@<TRIPOS>MOLECULE
4YAZ_rdock.pdb
 1780 1993 0 0 0
SMALL
GASTEIGER

@<TRIPOS>ATOM
      1  P        113.5130   27.3430   93.3270 P.3     2  G2          0.1654
      2  C5'      114.8560   28.2230   95.3840 C.3     2  G2          0.1799
      3  O5'      113.7550   28.3630   94.5050 O.3     2  G2         -0.3217
      4  C4'      114.7330   29.1940   96.5210 C.3     2  G2          0.1773
      5  O4'      114.3450   30.4810   95.9890 O.3     2  G2         -0.3307
      6  C3'      113.6410   28.8870   97.5270 C.3     2  G2          0.1860
      7  O3'      113.9330   27.8700   98.4680 O.3     2  G2         -0.3112
      8  C2'      113.3920   30.2540   98.1400 C.3     2  G2          0.2309
      9  O2'      114.3540   30.6450   99.0760 O.3     2  G2         -0.2156
     10  C1'      113.5480   31.1620   96.9260 C.3     2  G2          0.2408
     11  N1       109.3230   33.8570   97.4560 N.ar    2  G2         -0.1709
     12  C2       110.4010   33.7490   98.2880 C.ar    2  G2          0.2606
     13  N2       110.3430   34.4440   99.4230 N.pl3   2  G2         -0.0859
     14  N3       111.4580   33.0140   98.0290 N.ar    2  G2         -0.1918
     15  C4       111.3540   32.3810   96.8480 C.ar    2  G2          0.1723
     16  C5       110.3220   32.4200   95.9410 C.ar    2  G2          0.1748
     17  C6       109.1930   33.2220   96.2320 C.ar    2  G2          0.3023
     18  O6       108.1940   33.4150   95.5500 O.2     2  G2         -0.2633
     19  N7       110.6040   31.6250   94.8430 N.ar    2  G2         -0.2173
     20  C8       111.7730   31.1160   95.1060 C.ar    2  G2          0.1817
     21  N9       112.2830   31.5330   96.3090 N.ar    2  G2         -0.2693
     22  OP1      113.9090   26.0090   93.6420 O.3     2  G2         -0.1891
     23  OP2      112.2800   27.6770   92.7110 O.co2   2  G2         -0.8350
     24  P        112.8850   26.7650   98.7410 P.3     3  U3          0.2141
     25  C5'      112.4280   28.2610  100.8470 C.3     3  U3          0.1812
     26  O5'      111.9150   27.4630   99.7920 O.3     3  U3         -0.3114
     27  C4'      111.3670   29.1810  101.4010 C.3     3  U3          0.1773
     28  O4'      111.0750   30.2250  100.4390 O.3     3  U3         -0.3307
     29  C3'      110.0170   28.5450  101.6840 C.3     3  U3          0.1860
     30  O3'      109.9750   27.8930  102.9410 O.3     3  U3         -0.3112
     31  C2'      109.0560   29.7230  101.5930 C.3     3  U3          0.2309
     32  O2'      109.0220   30.4410  102.8130 O.3     3  U3         -0.2156
     33  C1'      109.7200   30.5960  100.5260 C.3     3  U3          0.2420
     34  N1       109.0840   30.4250   99.2040 N.ar    3  U3         -0.2534
     35  C2       107.9380   31.1580   98.9970 C.ar    3  U3          0.3546
     36  O2       107.4910   31.9040   99.8440 O.2     3  U3         -0.2443
     37  N3       107.3400   31.0030   97.7740 N.ar    3  U3         -0.1530
     38  C4       107.7670   30.1920   96.7570 C.ar    3  U3          0.2846
     39  O4       107.1190   30.1680   95.7140 O.2     3  U3         -0.2650
     40  C5       108.9570   29.4530   97.0500 C.ar    3  U3          0.0814
     41  C6       109.5700   29.5890   98.2350 C.ar    3  U3          0.0870
     42  OP1      113.5120   25.5970   99.4020 O.3     3  U3         -0.4373
     43  OP2      112.1310   26.5550   97.4670 O.co2   3  U3         -0.5172
     44  P        109.1770   26.5130  103.1210 P.3     4  A4          0.2141
     45  C5'      107.1660   27.9620  103.9490 C.3     4  A4          0.1812
     46  O5'      107.6540   26.9600  103.0700 O.3     4  A4         -0.3114
     47  C4'      105.6720   28.0660  103.8680 C.3     4  A4          0.1773
     48  O4'      105.3050   28.8130  102.6750 O.3     4  A4         -0.3307
     49  C3'      104.9580   26.7190  103.7640 C.3     4  A4          0.1860
     50  O3'      103.7090   26.7940  104.4290 O.3     4  A4         -0.3112
     51  C2'      104.7010   26.5930  102.2760 C.3     4  A4          0.2309
     52  O2'      103.6390   25.7290  101.9320 O.3     4  A4         -0.2156
     53  C1'      104.4100   28.0390  101.9050 C.3     4  A4          0.2408
     54  N1       102.3800   30.1340   97.7640 N.ar    4  A4         -0.2040
     55  C2       102.0010   30.1240   99.0420 C.ar    4  A4          0.2016
     56  N3       102.5960   29.5610  100.0830 N.ar    4  A4         -0.2048
     57  C4       103.7230   28.9510   99.6870 C.ar    4  A4          0.1692
     58  C5       104.2490   28.8650   98.4150 C.ar    4  A4          0.1518
     59  C6       103.5200   29.5040   97.4090 C.ar    4  A4          0.1919
     60  N6       103.8970   29.5210   96.1330 N.pl3   4  A4         -0.1054
     61  N7       105.4380   28.1440   98.4020 N.ar    4  A4         -0.2193
     62  C8       105.5920   27.8110   99.6610 C.ar    4  A4          0.1816
     63  N9       104.6020   28.2880  100.4820 N.ar    4  A4         -0.2693
     64  OP1      109.4230   26.0430  104.5070 O.3     4  A4         -0.4373
     65  OP2      109.4560   25.6080  101.9710 O.co2   4  A4         -0.5172
     66  P        103.6930   26.9770  106.0110 P.3     5  C5          0.2141
     67  C5'      102.4870   24.6520  105.9020 C.3     5  C5          0.1812
     68  O5'      102.6100   25.9340  106.4960 O.3     5  C5         -0.3114
     69  C4'      101.2590   23.9710  106.4400 C.3     5  C5          0.1773
     70  O4'      101.3820   23.8620  107.8880 O.3     5  C5         -0.3307
     71  C3'       99.9590   24.7340  106.1870 C.3     5  C5          0.1860
     72  O3'       98.8860   23.8090  106.0560 O.3     5  C5         -0.3112
     73  C2'       99.7790   25.5230  107.4770 C.3     5  C5          0.2309
     74  O2'       98.4540   25.9350  107.7340 O.3     5  C5         -0.2156
     75  C1'      100.2900   24.5200  108.5080 C.3     5  C5          0.2420
     76  N1       100.7560   25.1300  109.7600 N.ar    5  C5         -0.2535
     77  C2       101.0320   24.2910  110.8420 C.ar    5  C5          0.3532
     78  O2       100.8970   23.0640  110.6850 O.2     5  C5         -0.2443
     79  N3       101.4570   24.8410  112.0090 N.ar    5  C5         -0.1739
     80  C4       101.5880   26.1680  112.1190 C.ar    5  C5          0.1759
     81  N4       102.0040   26.6770  113.2860 N.pl3   5  C5         -0.1070
     82  C5       101.2970   27.0390  111.0260 C.ar    5  C5          0.0566
     83  C6       100.8810   26.4860  109.8800 C.ar    5  C5          0.0850
     84  OP1      103.1610   28.3390  106.2820 O.2     5  C5         -0.5172
     85  OP2      105.0070   26.5440  106.5590 O.co2   5  C5         -0.4373
     86  P         98.1610   23.6400  104.6420 P.3     6  A6          0.2141
     87  C5'       96.9340   25.9820  104.6940 C.3     6  A6          0.1812
     88  O5'       97.9340   25.1370  104.1370 O.3     6  A6         -0.3114
     89  C4'       96.7740   27.2300  103.8610 C.3     6  A6          0.1773
     90  O4'       98.0610   27.8960  103.7560 O.3     6  A6         -0.3307
     91  C3'       96.3410   26.9960  102.4180 C.3     6  A6          0.1860
     92  O3'       94.9300   26.9270  102.2800 O.3     6  A6         -0.3112
     93  C2'       96.9700   28.1680  101.6700 C.3     6  A6          0.2309
     94  O2'       96.2010   29.3480  101.8410 O.3     6  A6         -0.2156
     95  C1'       98.2720   28.3530  102.4370 C.3     6  A6          0.2408
     96  N1       101.0920   26.8680   98.2630 N.ar    6  A6         -0.2040
     97  C2       100.0000   27.6420   98.3640 C.ar    6  A6          0.2016
     98  N3        99.3010   28.0060   99.4450 N.ar    6  A6         -0.2048
     99  C4        99.8310   27.4700  100.5530 C.ar    6  A6          0.1692
    100  C5       100.9480   26.6440  100.6000 C.ar    6  A6          0.1518
    101  C6       101.5970   26.3380   99.3960 C.ar    6  A6          0.1919
    102  N6       102.6820   25.5650   99.3160 N.pl3   6  A6         -0.1054
    103  N7       101.2230   26.2630  101.9080 N.ar    6  A6         -0.2193
    104  C8       100.2870   26.8490  102.6120 C.ar    6  A6          0.1816
    105  N9        99.3990   27.5890  101.8620 N.ar    6  A6         -0.2693
    106  OP1       96.8450   22.9810  104.8680 O.3     6  A6         -0.4373
    107  OP2       99.1700   23.0300  103.7360 O.co2   6  A6         -0.5172
    108  P         94.2330   25.6860  101.5320 P.3     7  C7          0.2141
    109  C5'       94.5830   26.6900   99.1420 C.3     7  C7          0.1812
    110  O5'       94.8980   25.6930  100.0930 O.3     7  C7         -0.3114
    111  C4'       95.2410   26.3530   97.8350 C.3     7  C7          0.1773
    112  O4'       96.6730   26.4400   97.9990 O.3     7  C7         -0.3307
    113  C3'       95.0050   24.9330   97.3380 C.3     7  C7          0.1860
    114  O3'       93.8100   24.8390   96.5900 O.3     7  C7         -0.3112
    115  C2'       96.2460   24.6470   96.5030 C.3     7  C7          0.2309
    116  O2'       96.1080   25.2370   95.2170 O.3     7  C7         -0.2156
    117  C1'       97.3140   25.4340   97.2520 C.3     7  C7          0.2420
    118  N1        98.1450   24.6520   98.1890 N.ar    7  C7         -0.2535
    119  C2        99.1830   23.8390   97.7310 C.ar    7  C7          0.3532
    120  O2        99.3310   23.7000   96.5100 O.2     7  C7         -0.2443
    121  N3        99.9770   23.2000   98.6340 N.ar    7  C7         -0.1739
    122  C4        99.7760   23.3860   99.9390 C.ar    7  C7          0.1759
    123  N4       100.5700   22.7410  100.7880 N.pl3   7  C7         -0.1070
    124  C5        98.7430   24.2380  100.4310 C.ar    7  C7          0.0566
    125  C6        97.9690   24.8570   99.5280 C.ar    7  C7          0.0850
    126  OP1       92.7930   25.9870  101.3390 O.2     7  C7         -0.5172
    127  OP2       94.6380   24.4460  102.2450 O.co2   7  C7         -0.4373
    128  P         92.8790   23.5350   96.6820 P.3     8  G8          0.2141
    129  C5'       94.0770   22.5170   94.5760 C.3     8  G8          0.1812
    130  O5'       93.7380   22.4100   95.9570 O.3     8  G8         -0.3114
    131  C4'       94.9310   21.3550   94.1360 C.3     8  G8          0.1773
    132  O4'       96.1600   21.3550   94.9140 O.3     8  G8         -0.3307
    133  C3'       94.2950   19.9800   94.3540 C.3     8  G8          0.1860
    134  O3'       94.7600   19.0700   93.3630 O.3     8  G8         -0.3112
    135  C2'       94.8820   19.5610   95.6880 C.3     8  G8          0.2309
    136  O2'       94.8600   18.1730   95.9190 O.3     8  G8         -0.2156
    137  C1'       96.3010   20.1110   95.5630 C.3     8  G8          0.2408
    138  N1       100.5940   19.4270   98.2280 N.ar    8  G8         -0.1709
    139  C2       100.3610   19.2010   96.9020 C.ar    8  G8          0.2606
    140  N2       101.3980   18.7190   96.1930 N.pl3   8  G8         -0.0859
    141  N3        99.2040   19.4380   96.3080 N.ar    8  G8         -0.1918
    142  C4        98.2810   19.9180   97.1600 C.ar    8  G8          0.1723
    143  C5        98.4180   20.1750   98.4990 C.ar    8  G8          0.1748
    144  C6        99.6580   19.9220   99.1250 C.ar    8  G8          0.3023
    145  O6        99.9590   20.1040  100.3110 O.2     8  G8         -0.2633
    146  N7        97.2400   20.6680   99.0310 N.ar    8  G8         -0.2173
    147  C8        96.4170   20.6920   98.0240 C.ar    8  G8          0.1817
    148  N9        96.9840   20.2670   96.8530 N.ar    8  G8         -0.2693
    149  OP1       91.6580   23.8230   95.8730 O.2     8  G8         -0.5172
    150  OP2       92.7550   23.1360   98.1080 O.co2   8  G8         -0.4373
    151  P         93.9210   18.8400   92.0240 P.3     9  A9          0.2141
    152  C5'       96.3250   18.1850   91.2650 C.3     9  A9          0.1812
    153  O5'       94.9270   18.0210   91.1100 O.3     9  A9         -0.3114
    154  C4'       97.0600   17.8790   89.9870 C.3     9  A9          0.1773
    155  O4'       98.3940   18.4390   90.0770 O.3     9  A9         -0.3307
    156  C3'       97.2480   16.3970   89.7130 C.3     9  A9          0.1860
    157  O3'       97.3720   16.1860   88.3040 O.3     9  A9         -0.3112
    158  C2'       98.5870   16.1150   90.3810 C.3     9  A9          0.2309
    159  O2'       99.2620   14.9890   89.8700 O.3     9  A9         -0.2156
    160  C1'       99.3540   17.4000   90.0840 C.3     9  A9          0.2408
    161  N1       104.3790   17.8340   91.1860 N.ar    9  A9         -0.2040
    162  C2       103.7340   17.4370   90.0750 C.ar    9  A9          0.2016
    163  N3       102.4210   17.3420   89.8520 N.ar    9  A9         -0.2048
    164  C4       101.7190   17.7160   90.9430 C.ar    9  A9          0.1692
    165  C5       102.2340   18.1390   92.1590 C.ar    9  A9          0.1518
    166  C6       103.6400   18.2000   92.2640 C.ar    9  A9          0.1919
    167  N6       104.2670   18.5910   93.3760 N.pl3   9  A9         -0.1054
    168  N7       101.2100   18.4410   93.0550 N.ar    9  A9         -0.2193
    169  C8       100.1150   18.1950   92.3740 C.ar    9  A9          0.1816
    170  N9       100.3530   17.7450   91.0960 N.ar    9  A9         -0.2693
    171  OP1       93.6430   20.1530   91.3830 O.2     9  A9         -0.5172
    172  OP2       92.7830   17.9430   92.3700 O.co2   9  A9         -0.4373
    173  P         96.0770   16.0790   87.3510 P.3    10  C10         0.2141
    174  C5'       96.0330   13.5330   87.9980 C.3    10  C10         0.1812
    175  O5'       96.0080   14.5320   86.9820 O.3    10  C10        -0.3114
    176  C4'       96.5500   12.2180   87.4680 C.3    10  C10         0.1773
    177  O4'       95.9910   11.9940   86.1440 O.3    10  C10        -0.3307
    178  C3'       98.0670   12.1220   87.2980 C.3    10  C10         0.1860
    179  O3'       98.4290   10.7430   87.3980 O.3    10  C10        -0.3112
    180  C2'       98.2440   12.5600   85.8530 C.3    10  C10         0.2309
    181  O2'       99.4590   12.1610   85.2590 O.3    10  C10        -0.2156
    182  C1'       97.0460   11.8760   85.2060 C.3    10  C10         0.2420
    183  N1        96.6120   12.4520   83.9260 N.ar   10  C10        -0.2535
    184  C2        97.2520   12.0260   82.7520 C.ar   10  C10         0.3532
    185  O2        98.1790   11.2010   82.8240 O.2    10  C10        -0.2443
    186  N3        96.8580   12.5350   81.5630 N.ar   10  C10        -0.1739
    187  C4        95.8620   13.4210   81.5180 C.ar   10  C10         0.1759
    188  N4        95.5070   13.8920   80.3200 N.pl3  10  C10        -0.1070
    189  C5        95.1860   13.8620   82.6950 C.ar   10  C10         0.0566
    190  C6        95.5840   13.3530   83.8690 C.ar   10  C10         0.0850
    191  OP1       96.4090   16.8500   86.1230 O.2    10  C10        -0.5172
    192  OP2       94.8430   16.4190   88.1030 O.co2  10  C10        -0.4373
    193  P         99.7510   10.2390   88.1660 P.3    11  A11         0.2141
    194  C5'      101.7540   11.6320   87.2300 C.3    11  A11         0.1812
    195  O5'      100.7410   11.4880   88.2140 O.3    11  A11        -0.3114
    196  C4'      103.0970   12.0330   87.8010 C.3    11  A11         0.1773
    197  O4'      103.0470   13.3540   88.3920 O.3    11  A11        -0.3307
    198  C3'      103.6970   11.1780   88.9040 C.3    11  A11         0.1860
    199  O3'      104.2350    9.9530   88.4360 O.3    11  A11        -0.3112
    200  C2'      104.7620   12.1080   89.4760 C.3    11  A11         0.2309
    201  O2'      105.9150   12.1070   88.6460 O.3    11  A11        -0.2156
    202  C1'      104.0870   13.4760   89.3430 C.3    11  A11         0.2408
    203  N1       105.1320   15.6680   93.9210 N.ar   11  A11        -0.2040
    204  C2       105.9080   15.2850   92.8970 C.ar   11  A11         0.2016
    205  N3       105.5850   14.7200   91.7380 N.ar   11  A11        -0.2048
    206  C4       104.2580   14.5390   91.6600 C.ar   11  A11         0.1692
    207  C5       103.3300   14.8820   92.6260 C.ar   11  A11         0.1518
    208  C6       103.8060   15.4730   93.8140 C.ar   11  A11         0.1919
    209  N6       103.0420   15.8640   94.8330 N.pl3  11  A11        -0.1054
    210  N7       102.0610   14.5520   92.1900 N.ar   11  A11        -0.2193
    211  C8       102.2320   14.0250   91.0080 C.ar   11  A11         0.1816
    212  N9       103.5430   13.9800   90.6200 N.ar   11  A11        -0.2693
    213  OP1      100.3840    9.2570   87.2470 O.2    11  A11        -0.5172
    214  OP2       99.3850    9.8400   89.5530 O.co2  11  A11        -0.4373
    215  P        104.2910    8.6620   89.3970 P.3    12  A12         0.2141
    216  C5'      106.7730    9.0850   90.1760 C.3    12  A12         0.1812
    217  O5'      105.3880    9.0170   90.5010 O.3    12  A12        -0.3114
    218  C4'      107.5740    9.7200   91.2910 C.3    12  A12         0.1773
    219  O4'      107.0680   11.0560   91.5530 O.3    12  A12        -0.3307
    220  C3'      107.5000    9.0200   92.6390 C.3    12  A12         0.1860
    221  O3'      108.4090    7.9380   92.7500 O.3    12  A12        -0.3112
    222  C2'      107.7720   10.1460   93.6290 C.3    12  A12         0.2309
    223  O2'      109.1650   10.4080   93.7320 O.3    12  A12        -0.2156
    224  C1'      107.1070   11.3310   92.9330 C.3    12  A12         0.2408
    225  N1       104.2320   13.2760   96.6990 N.ar   12  A12        -0.2040
    226  C2       105.5480   13.1720   96.5260 C.ar   12  A12         0.2016
    227  N3       106.2200   12.6430   95.5140 N.ar   12  A12        -0.2048
    228  C4       105.3820   12.1760   94.5840 C.ar   12  A12         0.1692
    229  C5       104.0040   12.2080   94.6170 C.ar   12  A12         0.1518
    230  C6       103.4130   12.7940   95.7500 C.ar   12  A12         0.1919
    231  N6       102.1050   12.9170   95.9500 N.pl3  12  A12        -0.1054
    232  N7       103.4820   11.6270   93.4740 N.ar   12  A12        -0.2193
    233  C8       104.5420   11.2680   92.7900 C.ar   12  A12         0.1816
    234  N9       105.7300   11.5710   93.4050 N.ar   12  A12        -0.2693
    235  OP1      104.8240    7.5270   88.6030 O.2    12  A12        -0.5172
    236  OP2      102.9740    8.5430   90.0680 O.co2  12  A12        -0.4373
    237  P        108.0190    6.6640   93.6460 P.3    13  U13         0.2141
    238  C5'      109.3430    7.6480   95.6700 C.3    13  U13         0.1812
    239  O5'      108.1030    7.2030   95.1440 O.3    13  U13        -0.3114
    240  C4'      109.1960    8.3080   97.0170 C.3    13  U13         0.1773
    241  O4'      108.3930    9.5130   96.9130 O.3    13  U13        -0.3307
    242  C3'      108.4840    7.5170   98.0970 C.3    13  U13         0.1860
    243  O3'      109.2520    6.4640   98.6530 O.3    13  U13        -0.3112
    244  C2'      108.1180    8.6060   99.0940 C.3    13  U13         0.2309
    245  O2'      109.2600    9.0140   99.8340 O.3    13  U13        -0.2156
    246  C1'      107.7390    9.7460   98.1490 C.3    13  U13         0.2420
    247  N1       106.2750    9.8220   97.9490 N.ar   13  U13        -0.2534
    248  C2       105.5960   10.5070   98.9350 C.ar   13  U13         0.3546
    249  O2       106.1530   11.0150   99.8850 O.2    13  U13        -0.2443
    250  N3       104.2390   10.5900   98.7670 N.ar   13  U13        -0.1530
    251  C4       103.5000   10.0660   97.7340 C.ar   13  U13         0.2846
    252  O4       102.2810   10.2320   97.7430 O.2    13  U13        -0.2650
    253  C5       104.2630    9.3700   96.7470 C.ar   13  U13         0.0814
    254  C6       105.5980    9.2760   96.8800 C.ar   13  U13         0.0870
    255  OP1      109.0720    5.6260   93.4950 O.3    13  U13        -0.4373
    256  OP2      106.6020    6.3580   93.3220 O.co2  13  U13        -0.5172
    257  P        108.5260    5.0720   99.0020 P.3    14  A14         0.2141
    258  C5'      108.4240    5.7450  101.5280 C.3    14  A14         0.1812
    259  O5'      107.7230    5.3920  100.3450 O.3    14  A14        -0.3114
    260  C4'      107.5200    6.2750  102.6170 C.3    14  A14         0.1773
    261  O4'      106.9370    7.5520  102.2290 O.3    14  A14        -0.3307
    262  C3'      106.2970    5.4580  103.0010 C.3    14  A14         0.1860
    263  O3'      106.5340    4.2480  103.7030 O.3    14  A14        -0.3112
    264  C2'      105.4890    6.4860  103.7730 C.3    14  A14         0.2309
    265  O2'      106.0780    6.7470  105.0440 O.3    14  A14        -0.2156
    266  C1'      105.6860    7.7110  102.8830 C.3    14  A14         0.2408
    267  N1       100.8380    9.2180  102.0350 N.ar   14  A14        -0.2040
    268  C2       101.6480    9.3090  103.1050 C.ar   14  A14         0.2016
    269  N3       102.9090    8.8960  103.2490 N.ar   14  A14        -0.2048
    270  C4       103.3540    8.3100  102.1140 C.ar   14  A14         0.1692
    271  C5       102.6420    8.1370  100.9390 C.ar   14  A14         0.1518
    272  C6       101.3170    8.6320  100.9160 C.ar   14  A14         0.1919
    273  N6       100.5020    8.5550   99.8610 N.pl3  14  A14        -0.1054
    274  N7       103.4300    7.4970   99.9930 N.ar   14  A14        -0.2193
    275  C8       104.5730    7.2910  100.5980 C.ar   14  A14         0.1816
    276  N9       104.6050    7.7800  101.8810 N.ar   14  A14        -0.2693
    277  OP1      109.5780    4.0690   99.3030 O.3    14  A14        -0.4373
    278  OP2      107.5440    4.7920   97.9180 O.co2  14  A14        -0.5172
    279  P        105.5640    2.9960  103.3920 P.3    15  C15         0.2141
    280  C5'      104.0740    3.8110  105.3640 C.3    15  C15         0.1812
    281  O5'      104.1630    3.4400  104.0010 O.3    15  C15        -0.3114
    282  C4'      102.7820    4.5120  105.7070 C.3    15  C15         0.1773
    283  O4'      102.4820    5.6090  104.8030 O.3    15  C15        -0.3307
    284  C3'      101.5040    3.7030  105.6850 C.3    15  C15         0.1860
    285  O3'      101.4050    2.7700  106.7440 O.3    15  C15        -0.3112
    286  C2'      100.4650    4.8100  105.7560 C.3    15  C15         0.2309
    287  O2'      100.4420    5.3830  107.0570 O.3    15  C15        -0.2156
    288  C1'      101.0850    5.8430  104.8180 C.3    15  C15         0.2420
    289  N1       100.5320    5.7410  103.4470 N.ar   15  C15        -0.2535
    290  C2        99.2140    6.2010  103.2130 C.ar   15  C15         0.3532
    291  O2        98.5300    6.6810  104.1420 O.2    15  C15        -0.2443
    292  N3        98.7000    6.1130  101.9710 N.ar   15  C15        -0.1739
    293  C4        99.4390    5.5910  100.9840 C.ar   15  C15         0.1759
    294  N4        98.9000    5.5060   99.7680 N.pl3  15  C15        -0.1070
    295  C5       100.7630    5.1240  101.1920 C.ar   15  C15         0.0566
    296  C6       101.2700    5.2130  102.4310 C.ar   15  C15         0.0850
    297  OP1      106.0570    1.8210  104.1450 O.3    15  C15        -0.4373
    298  OP2      105.3340    2.9000  101.9270 O.co2  15  C15        -0.5172
    299  P        100.8880    1.2750  106.4650 P.3    16  U16         0.2141
    300  C5'       98.6430    2.1180  107.4860 C.3    16  U16         0.1812
    301  O5'       99.3050    1.4110  106.4550 O.3    16  U16        -0.3114
    302  C4'       97.3160    2.6440  107.0150 C.3    16  U16         0.1773
    303  O4'       97.4970    3.6150  105.9470 O.3    16  U16        -0.3307
    304  C3'       96.3670    1.6300  106.4060 C.3    16  U16         0.1860
    305  O3'       95.7280    0.8290  107.3840 O.3    16  U16        -0.3112
    306  C2'       95.4140    2.5320  105.6390 C.3    16  U16         0.2309
    307  O2'       94.5650    3.2020  106.5540 O.3    16  U16        -0.2156
    308  C1'       96.3820    3.5730  105.0800 C.3    16  U16         0.2420
    309  N1        96.8280    3.2340  103.7060 N.ar   16  U16        -0.2534
    310  C2        95.9310    3.4780  102.6850 C.ar   16  U16         0.3546
    311  O2        94.8310    3.9580  102.8760 O.2    16  U16        -0.2443
    312  N3        96.3530    3.1440  101.4300 N.ar   16  U16        -0.1530
    313  C4        97.5690    2.5910  101.1030 C.ar   16  U16         0.2846
    314  O4        97.8110    2.3470   99.9270 O.2    16  U16        -0.2650
    315  C5        98.4530    2.3620  102.2090 C.ar   16  U16         0.0814
    316  C6        98.0620    2.6820  103.4420 C.ar   16  U16         0.0870
    317  OP1      101.2260    0.4600  107.6520 O.3    16  U16        -0.4373
    318  OP2      101.3080    0.8570  105.0980 O.co2  16  U16        -0.5172
    319  P         95.3660   -0.7060  107.0690 P.3    17  A17         0.2141
    320  C5'       93.0470    0.1480  106.2140 C.3    17  A17         0.1812
    321  O5'       94.2050   -0.6320  105.9820 O.3    17  A17        -0.3114
    322  C4'       92.1960    0.2420  104.9820 C.3    17  A17         0.1773
    323  O4'       92.9760    0.8150  103.8990 O.3    17  A17        -0.3307
    324  C3'       91.6540   -1.0940  104.4840 C.3    17  A17         0.1860
    325  O3'       90.2680   -0.9790  104.2020 O.3    17  A17        -0.3112
    326  C2'       92.4170   -1.3670  103.1940 C.3    17  A17         0.2309
    327  O2'       91.6340   -1.9800  102.1920 O.3    17  A17        -0.2156
    328  C1'       92.8580    0.0250  102.7420 C.3    17  A17         0.2408
    329  N1        95.4160    0.0860   98.2630 N.ar   17  A17        -0.2040
    330  C2        94.1280    0.2880   98.5590 C.ar   17  A17         0.2016
    331  N3        93.5190    0.2830   99.7410 N.ar   17  A17        -0.2048
    332  C4        94.3950    0.0190  100.7170 C.ar   17  A17         0.1692
    333  C5        95.7360   -0.2190  100.5720 C.ar   17  A17         0.1518
    334  C6        96.2640   -0.1710   99.2870 C.ar   17  A17         0.1919
    335  N6        97.5570   -0.3740   99.0330 N.pl3  17  A17        -0.1054
    336  N7        96.3340   -0.4610  101.7830 N.ar   17  A17        -0.2193
    337  C8        95.3530   -0.3620  102.6340 C.ar   17  A17         0.1816
    338  N9        94.1530   -0.0570  102.0640 N.ar   17  A17        -0.2693
    339  OP1       94.7590   -1.2940  108.2750 O.3    17  A17        -0.4373
    340  OP2       96.5240   -1.3360  106.3900 O.co2  17  A17        -0.5172
    341  P         89.2590   -2.1310  104.6910 P.3    18  A18         0.2141
    342  C5'       87.2740   -0.5100  104.3800 C.3    18  A18         0.1812
    343  O5'       87.9050   -1.7160  103.9990 O.3    18  A18        -0.3114
    344  C4'       86.1480   -0.2310  103.4470 C.3    18  A18         0.1773
    345  O4'       86.6870    0.0960  102.1550 O.3    18  A18        -0.3307
    346  C3'       85.2650   -1.4310  103.1800 C.3    18  A18         0.1860
    347  O3'       84.3130   -1.6080  104.2040 O.3    18  A18        -0.3112
    348  C2'       84.6630   -1.1080  101.8240 C.3    18  A18         0.2309
    349  O2'       83.5780   -0.2090  101.9670 O.3    18  A18        -0.2156
    350  C1'       85.8150   -0.3630  101.1450 C.3    18  A18         0.2408
    351  N1        85.9320   -2.8160   96.5950 N.ar   18  A18        -0.2040
    352  C2        84.9690   -2.1390   97.2280 C.ar   18  A18         0.2016
    353  N3        84.9880   -1.5370   98.4110 N.ar   18  A18        -0.2048
    354  C4        86.1910   -1.6680   98.9810 C.ar   18  A18         0.1692
    355  C5        87.2830   -2.3270   98.4580 C.ar   18  A18         0.1518
    356  C6        87.1270   -2.9340   97.1940 C.ar   18  A18         0.1919
    357  N6        88.0800   -3.6130   96.5570 N.pl3  18  A18        -0.1054
    358  N7        88.3550   -2.2670   99.3350 N.ar   18  A18        -0.2193
    359  C8        87.8930   -1.5750  100.3520 C.ar   18  A18         0.1816
    360  N9        86.5910   -1.1850  100.2050 N.ar   18  A18        -0.2693
    361  OP1       89.0580   -1.9420  106.1560 O.3    18  A18        -0.4373
    362  OP2       89.7190   -3.4390  104.1920 O.co2  18  A18        -0.5172
    363  P         84.0020   -3.0680  104.7750 P.3    19  A19         0.2141
    364  C5'       82.0110   -3.4010  103.1220 C.3    19  A19         0.1812
    365  O5'       83.2980   -3.8050  103.5590 O.3    19  A19        -0.3114
    366  C4'       81.6940   -3.9640  101.7610 C.3    19  A19         0.1773
    367  O4'       82.6440   -3.4660  100.7860 O.3    19  A19        -0.3307
    368  C3'       81.7920   -5.4670  101.6110 C.3    19  A19         0.1860
    369  O3'       80.6710   -6.1510  102.1500 O.3    19  A19        -0.3112
    370  C2'       81.9280   -5.6180  100.1040 C.3    19  A19         0.2309
    371  O2'       80.6680   -5.3910   99.4890 O.3    19  A19        -0.2156
    372  C1'       82.8210   -4.4250   99.7660 C.3    19  A19         0.2408
    373  N1        86.3610   -6.6500   96.8350 N.ar   19  A19        -0.2040
    374  C2        85.0650   -6.3970   96.6460 C.ar   19  A19         0.2016
    375  N3        84.2230   -5.7960   97.4760 N.ar   19  A19        -0.2048
    376  C4        84.8220   -5.4450   98.6220 C.ar   19  A19         0.1692
    377  C5        86.1410   -5.6430   98.9540 C.ar   19  A19         0.1518
    378  C6        86.9370   -6.2770   97.9980 C.ar   19  A19         0.1919
    379  N6        88.2190   -6.5540   98.1560 N.pl3  19  A19        -0.1054
    380  N7        86.3920   -5.1500  100.2110 N.ar   19  A19        -0.2193
    381  C8        85.2360   -4.6610  100.6120 C.ar   19  A19         0.1816
    382  N9        84.2420   -4.8090   99.6880 N.ar   19  A19        -0.2693
    383  OP1       83.0020   -2.8360  105.8530 O.3    19  A19        -0.4373
    384  OP2       85.2740   -3.7950  105.0910 O.co2  19  A19        -0.5172
    385  P         80.8740   -7.5140  102.9880 P.3    20  C20         0.2141
    386  C5'       80.9320   -8.9260  100.7960 C.3    20  C20         0.1812
    387  O5'       81.5810   -8.5080  101.9810 O.3    20  C20        -0.3114
    388  C4'       81.8940   -9.6390   99.8930 C.3    20  C20         0.1773
    389  O4'       82.9610   -8.7340   99.4970 O.3    20  C20        -0.3307
    390  C3'       82.6220  -10.8130  100.5200 C.3    20  C20         0.1860
    391  O3'       81.8400  -11.9970  100.5420 O.3    20  C20        -0.3112
    392  C2'       83.8770  -10.9130   99.6660 C.3    20  C20         0.2309
    393  O2'       83.5880  -11.5380   98.4280 O.3    20  C20        -0.2156
    394  C1'       84.1750   -9.4400   99.3890 C.3    20  C20         0.2420
    395  N1        85.1260   -8.8830  100.3690 N.ar   20  C20        -0.2535
    396  C2        86.4700   -9.2010  100.2210 C.ar   20  C20         0.3532
    397  O2        86.8080   -9.9290   99.2790 O.2    20  C20        -0.2443
    398  N3        87.3550   -8.7000  101.1030 N.ar   20  C20        -0.1739
    399  C4        86.9390   -7.9180  102.0930 C.ar   20  C20         0.1759
    400  N4        87.8560   -7.4470  102.9250 N.pl3  20  C20        -0.1070
    401  C5        85.5740   -7.5720  102.2770 C.ar   20  C20         0.0566
    402  C6        84.7080   -8.0760  101.3890 C.ar   20  C20         0.0850
    403  OP1       79.5420   -8.0790  103.3140 O.2    20  C20        -0.5172
    404  OP2       81.8640   -7.2640  104.0660 O.co2  20  C20        -0.4373
    405  P         81.9900  -13.0490  101.7520 P.3    21  C21         0.2141
    406  C5'       83.5480  -14.3920  100.1350 C.3    21  C21         0.1812
    407  O5'       83.3350  -13.8170  101.4110 O.3    21  C21        -0.3114
    408  C4'       84.9520  -14.9120  100.0240 C.3    21  C21         0.1773
    409  O4'       85.8760  -13.8010   99.9050 O.3    21  C21        -0.3307
    410  C3'       85.4560  -15.6850  101.2330 C.3    21  C21         0.1860
    411  O3'       85.0150  -17.0330  101.2330 O.3    21  C21        -0.3112
    412  C2'       86.9700  -15.5350  101.1200 C.3    21  C21         0.2309
    413  O2'       87.4930  -16.4480  100.1670 O.3    21  C21        -0.2156
    414  C1'       87.0970  -14.1190  100.5450 C.3    21  C21         0.2420
    415  N1        87.3650  -13.1090  101.5910 N.ar   21  C21        -0.2535
    416  C2        88.6600  -13.0150  102.0940 C.ar   21  C21         0.3532
    417  O2        89.5340  -13.7680  101.6480 O.2    21  C21        -0.2443
    418  N3        88.9330  -12.1070  103.0450 N.ar   21  C21        -0.1739
    419  C4        87.9720  -11.3030  103.4990 C.ar   21  C21         0.1759
    420  N4        88.3130  -10.4200  104.4350 N.pl3  21  C21        -0.1070
    421  C5        86.6340  -11.3640  103.0070 C.ar   21  C21         0.0566
    422  C6        86.3750  -12.2820  102.0600 C.ar   21  C21         0.0850
    423  OP1       80.8670  -14.0170  101.6310 O.2    21  C21        -0.5172
    424  OP2       82.2270  -12.3510  103.0430 O.co2  21  C21        -0.4373
    425  P         84.8140  -17.8420  102.6090 P.3    22  A22         0.2141
    426  C5'       87.0990  -19.0910  102.3430 C.3    22  A22         0.1812
    427  O5'       86.2930  -18.1900  103.0820 O.3    22  A22        -0.3114
    428  C4'       88.4850  -19.1980  102.9190 C.3    22  A22         0.1773
    429  O4'       89.1850  -17.9380  102.7580 O.3    22  A22        -0.3307
    430  C3'       88.5810  -19.4930  104.4100 C.3    22  A22         0.1860
    431  O3'       88.3970  -20.8720  104.7180 O.3    22  A22        -0.3112
    432  C2'       89.9640  -18.9540  104.7650 C.3    22  A22         0.2309
    433  O2'       90.9810  -19.8720  104.3950 O.3    22  A22        -0.2156
    434  C1'       90.0590  -17.7280  103.8490 C.3    22  A22         0.2408
    435  N1        91.4220  -13.9050  107.0060 N.ar   22  A22        -0.2040
    436  C2        92.1010  -14.9520  106.5190 C.ar   22  A22         0.2016
    437  N3        91.6870  -15.9130  105.6990 N.ar   22  A22        -0.2048
    438  C4        90.4070  -15.7190  105.3680 C.ar   22  A22         0.1692
    439  C5        89.5800  -14.6910  105.7860 C.ar   22  A22         0.1518
    440  C6        90.1300  -13.7450  106.6480 C.ar   22  A22         0.1919
    441  N6        89.4450  -12.7000  107.1200 N.pl3  22  A22        -0.1054
    442  N7        88.3070  -14.8150  105.2380 N.ar   22  A22        -0.2193
    443  C8        88.3930  -15.9060  104.5080 C.ar   22  A22         0.1816
    444  N9        89.6400  -16.4960  104.5410 N.ar   22  A22        -0.2693
    445  OP1       84.1460  -19.1130  102.2500 O.2    22  A22        -0.5172
    446  OP2       84.2210  -16.9630  103.6490 O.co2  22  A22        -0.4373
    447  P         87.4480  -21.3370  105.9400 P.3    23  U23         0.2141
    448  C5'       89.5820  -22.0350  107.2650 C.3    23  U23         0.1812
    449  O5'       88.4110  -21.2400  107.2010 O.3    23  U23        -0.3114
    450  C4'       90.5930  -21.4660  108.2230 C.3    23  U23         0.1773
    451  O4'       91.0560  -20.1710  107.7600 O.3    23  U23        -0.3307
    452  C3'       90.1040  -21.1850  109.6280 C.3    23  U23         0.1860
    453  O3'       89.9980  -22.3530  110.4200 O.3    23  U23        -0.3112
    454  C2'       91.1380  -20.1930  110.1280 C.3    23  U23         0.2309
    455  O2'       92.3500  -20.8620  110.4330 O.3    23  U23        -0.2156
    456  C1'       91.3670  -19.3540  108.8710 C.3    23  U23         0.2420
    457  N1        90.4740  -18.1800  108.8460 N.ar   23  U23        -0.2534
    458  C2        90.8650  -17.0780  109.5680 C.ar   23  U23         0.3546
    459  O2        91.9120  -17.0480  110.1890 O.2    23  U23        -0.2443
    460  N3        89.9930  -16.0180  109.5170 N.ar   23  U23        -0.1530
    461  C4        88.7930  -15.9580  108.8450 C.ar   23  U23         0.2846
    462  O4        88.1190  -14.9300  108.8970 O.2    23  U23        -0.2650
    463  C5        88.4490  -17.1470  108.1250 C.ar   23  U23         0.0814
    464  C6        89.2840  -18.1900  108.1510 C.ar   23  U23         0.0870
    465  OP1       87.1240  -22.7650  105.7410 O.2    23  U23        -0.5172
    466  OP2       86.3220  -20.3910  106.1410 O.co2  23  U23        -0.4373
    467  P         88.7920  -22.4980  111.4700 P.3    24  C24         0.2141
    468  C5'       90.3830  -21.8230  113.4560 C.3    24  C24         0.1812
    469  O5'       89.2260  -21.5430  112.6760 O.3    24  C24        -0.3114
    470  C4'       90.7620  -20.6640  114.3550 C.3    24  C24         0.1773
    471  O4'       91.1270  -19.5100  113.5520 O.3    24  C24        -0.3307
    472  C3'       89.6810  -20.1250  115.2860 C.3    24  C24         0.1860
    473  O3'       89.4940  -20.8960  116.4540 O.3    24  C24        -0.3112
    474  C2'       90.1820  -18.7230  115.5770 C.3    24  C24         0.2309
    475  O2'       91.2620  -18.7610  116.5000 O.3    24  C24        -0.2156
    476  C1'       90.7280  -18.3240  114.2090 C.3    24  C24         0.2420
    477  N1        89.6740  -17.6660  113.4060 N.ar   24  C24        -0.2535
    478  C2        89.4480  -16.3080  113.6410 C.ar   24  C24         0.3532
    479  O2        90.1570  -15.7270  114.4740 O.2    24  C24        -0.2443
    480  N3        88.4830  -15.6640  112.9440 N.ar   24  C24        -0.1739
    481  C4        87.7600  -16.3420  112.0540 C.ar   24  C24         0.1759
    482  N4        86.8220  -15.6730  111.3850 N.pl3  24  C24        -0.1070
    483  C5        87.9600  -17.7310  111.8020 C.ar   24  C24         0.0566
    484  C6        88.9180  -18.3540  112.4930 C.ar   24  C24         0.0850
    485  OP1       88.7660  -23.8940  111.9640 O.3    24  C24        -0.4373
    486  OP2       87.5670  -21.9520  110.8340 O.co2  24  C24        -0.5172
    487  P         88.0520  -20.9410  117.1480 P.3    25  C25         0.2141
    488  C5'       88.8680  -19.1550  118.8780 C.3    25  C25         0.1812
    489  O5'       87.9330  -19.5310  117.8790 O.3    25  C25        -0.3114
    490  C4'       88.7170  -17.7110  119.2830 C.3    25  C25         0.1773
    491  O4'       88.9750  -16.8340  118.1500 O.3    25  C25        -0.3307
    492  C3'       87.3460  -17.2650  119.7570 C.3    25  C25         0.1860
    493  O3'       86.9970  -17.6970  121.0590 O.3    25  C25        -0.3112
    494  C2'       87.4530  -15.7590  119.6160 C.3    25  C25         0.2309
    495  O2'       88.2960  -15.2360  120.6330 O.3    25  C25        -0.2156
    496  C1'       88.2090  -15.6540  118.2880 C.3    25  C25         0.2420
    497  N1        87.2850  -15.5410  117.1340 N.ar   25  C25        -0.2535
    498  C2        86.6750  -14.2980  116.8830 C.ar   25  C25         0.3532
    499  O2        86.9120  -13.3310  117.6300 O.2    25  C25        -0.2443
    500  N3        85.8420  -14.1740  115.8190 N.ar   25  C25        -0.1739
    501  C4        85.6160  -15.2290  115.0340 C.ar   25  C25         0.1759
    502  N4        84.7770  -15.0520  114.0160 N.pl3  25  C25        -0.1070
    503  C5        86.2180  -16.5050  115.2610 C.ar   25  C25         0.0566
    504  C6        87.0450  -16.6160  116.3130 C.ar   25  C25         0.0850
    505  OP1       88.0960  -22.0260  118.1560 O.3    25  C25        -0.4373
    506  OP2       87.0180  -20.9780  116.0800 O.co2  25  C25        -0.5172
    507  P         85.5260  -18.2970  121.3180 P.3    26  G26         0.2141
    508  C5'       84.7950  -15.9590  122.2460 C.3    26  G26         0.1812
    509  O5'       84.5810  -17.0250  121.3410 O.3    26  G26        -0.3114
    510  C4'       83.8740  -14.8190  121.9160 C.3    26  G26         0.1773
    511  O4'       84.2550  -14.2470  120.6380 O.3    26  G26        -0.3307
    512  C3'       82.4120  -15.1870  121.7180 C.3    26  G26         0.1860
    513  O3'       81.7070  -15.3970  122.9400 O.3    26  G26        -0.3112
    514  C2'       81.8940  -14.0200  120.8800 C.3    26  G26         0.2309
    515  O2'       81.5920  -12.8940  121.6930 O.3    26  G26        -0.2156
    516  C1'       83.1200  -13.6920  120.0070 C.3    26  G26         0.2408
    517  N1        80.8350  -12.7800  115.6670 N.ar   26  G26        -0.1709
    518  C2        80.9220  -12.0320  116.8050 C.ar   26  G26         0.2606
    519  N2        80.2870  -10.8440  116.8200 N.pl3  26  G26        -0.0859
    520  N3        81.5940  -12.4270  117.8580 N.ar   26  G26        -0.1918
    521  C4        82.1780  -13.6270  117.7050 C.ar   26  G26         0.1723
    522  C5        82.1520  -14.4640  116.6270 C.ar   26  G26         0.1748
    523  C6        81.4220  -14.0310  115.4850 C.ar   26  G26         0.3023
    524  O6        81.2570  -14.5990  114.4010 O.2    26  G26        -0.2633
    525  N7        82.8940  -15.6190  116.9090 N.ar   26  G26        -0.2173
    526  C8        83.3380  -15.4650  118.1350 C.ar   26  G26         0.1817
    527  N9        82.9440  -14.2580  118.6620 N.ar   26  G26        -0.2693
    528  OP1       85.5390  -18.9060  122.6680 O.3    26  G26        -0.4373
    529  OP2       85.0560  -19.0400  120.1160 O.co2  26  G26        -0.5172
    530  P         80.6410  -16.6020  123.0990 P.3    27  C27         0.2141
    531  C5'       78.7580  -17.3550  121.4100 C.3    27  C27         0.1812
    532  O5'       79.5410  -16.3120  121.9800 O.3    27  C27        -0.3114
    533  C4'       77.3690  -16.8680  121.0470 C.3    27  C27         0.1773
    534  O4'       76.7210  -16.3530  122.2310 O.3    27  C27        -0.3307
    535  C3'       77.3000  -15.7210  120.0500 C.3    27  C27         0.1860
    536  O3'       77.3550  -16.1760  118.7080 O.3    27  C27        -0.3112
    537  C2'       75.9850  -15.0170  120.4010 C.3    27  C27         0.2309
    538  O2'       74.8850  -15.6400  119.7530 O.3    27  C27        -0.2156
    539  C1'       75.8630  -15.2830  121.9020 C.3    27  C27         0.2420
    540  N1        76.2140  -14.1360  122.7710 N.ar   27  C27        -0.2535
    541  C2        75.2770  -13.1480  123.0980 C.ar   27  C27         0.3532
    542  O2        74.1470  -13.2120  122.5900 O.2    27  C27        -0.2443
    543  N3        75.6400  -12.1420  123.9390 N.ar   27  C27        -0.1739
    544  C4        76.8770  -12.1410  124.4530 C.ar   27  C27         0.1759
    545  N4        77.2510  -11.1720  125.2820 N.pl3  27  C27        -0.1070
    546  C5        77.8290  -13.1380  124.1510 C.ar   27  C27         0.0566
    547  C6        77.4550  -14.1090  123.3220 C.ar   27  C27         0.0850
    548  OP1       80.0320  -16.4680  124.4500 O.3    27  C27        -0.4373
    549  OP2       81.2780  -17.8770  122.7160 O.co2  27  C27        -0.5172
    550  P         78.3440  -15.4670  117.6610 P.3    28  G28         0.2141
    551  C5'       76.3260  -13.9390  116.9450 C.3    28  G28         0.1812
    552  O5'       77.6620  -14.0430  117.4240 O.3    28  G28        -0.3114
    553  C4'       75.7490  -12.5600  117.1780 C.3    28  G28         0.1773
    554  O4'       75.6780  -12.2880  118.5970 O.3    28  G28        -0.3307
    555  C3'       76.5490  -11.4060  116.5980 C.3    28  G28         0.1860
    556  O3'       76.1530  -11.1360  115.2740 O.3    28  G28        -0.3112
    557  C2'       76.2340  -10.2480  117.5300 C.3    28  G28         0.2309
    558  O2'       74.9790   -9.6920  117.1800 O.3    28  G28        -0.2156
    559  C1'       76.0510  -10.9580  118.8610 C.3    28  G28         0.2408
    560  N1        78.2410   -9.2190  123.0630 N.ar   28  G28        -0.1709
    561  C2        77.0630   -8.8430  122.4620 C.ar   28  G28         0.2606
    562  N2        76.3570   -7.8870  123.0820 N.pl3  28  G28        -0.0859
    563  N3        76.6120   -9.3630  121.3400 N.ar   28  G28        -0.1918
    564  C4        77.4400  -10.3020  120.8620 C.ar   28  G28         0.1723
    565  C5        78.6420  -10.7490  121.3720 C.ar   28  G28         0.1748
    566  C6        79.1090  -10.1780  122.5720 C.ar   28  G28         0.3023
    567  O6        80.1400  -10.4170  123.1940 O.2    28  G28        -0.2633
    568  N7        79.1830  -11.7440  120.5630 N.ar   28  G28        -0.2173
    569  C8        78.3080  -11.8820  119.5970 C.ar   28  G28         0.1817
    570  N9        77.2460  -11.0200  119.7090 N.ar   28  G28        -0.2693
    571  OP1       78.3070  -16.2330  116.3850 O.2    28  G28        -0.5172
    572  OP2       79.6390  -15.2870  118.3750 O.co2  28  G28        -0.4373
    573  P         77.2070  -10.5550  114.2280 P.3    29  A29         0.2141
    574  C5'       76.1490   -8.1560  114.2680 C.3    29  A29         0.1812
    575  O5'       77.2540   -8.9950  114.5440 O.3    29  A29        -0.3114
    576  C4'       76.2990   -6.8290  114.9600 C.3    29  A29         0.1773
    577  O4'       76.3320   -7.0460  116.3870 O.3    29  A29        -0.3307
    578  C3'       77.5820   -6.0680  114.6670 C.3    29  A29         0.1860
    579  O3'       77.4980   -5.3100  113.4770 O.3    29  A29        -0.3112
    580  C2'       77.7530   -5.2020  115.9060 C.3    29  A29         0.2309
    581  O2'       76.9550   -4.0300  115.8020 O.3    29  A29        -0.2156
    582  C1'       77.1750   -6.1050  117.0020 C.3    29  A29         0.2408
    583  N1        79.6650   -6.6150  121.4890 N.ar   29  A29        -0.2040
    584  C2        78.6350   -5.8470  121.1090 C.ar   29  A29         0.2016
    585  N3        78.0340   -5.7650  119.9170 N.ar   29  A29        -0.2048
    586  C4        78.5910   -6.6210  119.0450 C.ar   29  A29         0.1692
    587  C5        79.6440   -7.4800  119.2900 C.ar   29  A29         0.1518
    588  C6        80.1950   -7.4630  120.5750 C.ar   29  A29         0.1919
    589  N6        81.2030   -8.2450  120.9310 N.pl3  29  A29        -0.1054
    590  N7        79.9460   -8.2190  118.1700 N.ar   29  A29        -0.2193
    591  C8        79.0960   -7.7820  117.2740 C.ar   29  A29         0.1816
    592  N9        78.2370   -6.8200  117.7370 N.ar   29  A29        -0.2693
    593  OP1       76.6230  -10.7790  112.8870 O.2    29  A29        -0.5172
    594  OP2       78.5520  -11.0700  114.6040 O.co2  29  A29        -0.4373
    595  P         78.6190   -5.4390  112.3290 P.3    30  G30         0.2141
    596  C5'       80.8930   -4.7200  113.4510 C.3    30  G30         0.1812
    597  O5'       79.9780   -5.7410  113.1000 O.3    30  G30        -0.3114
    598  C4'       81.7240   -5.1500  114.6350 C.3    30  G30         0.1773
    599  O4'       81.1450   -6.3410  115.2340 O.3    30  G30        -0.3307
    600  C3'       83.1630   -5.5560  114.3810 C.3    30  G30         0.1860
    601  O3'       84.0340   -4.4580  114.2170 O.3    30  G30        -0.3112
    602  C2'       83.4680   -6.3740  115.6270 C.3    30  G30         0.2309
    603  O2'       83.5990   -5.5090  116.7440 O.3    30  G30        -0.2156
    604  C1'       82.1660   -7.1400  115.7920 C.3    30  G30         0.2408
    605  N1        84.3340  -11.7180  115.5530 N.ar   30  G30        -0.1709
    606  C2        84.5310  -10.7210  116.4570 C.ar   30  G30         0.2606
    607  N2        85.4310  -10.9890  117.4160 N.pl3  30  G30        -0.0859
    608  N3        83.8820   -9.5690  116.4210 N.ar   30  G30        -0.1918
    609  C4        83.0260   -9.4940  115.3820 C.ar   30  G30         0.1723
    610  C5        82.7610  -10.4410  114.4270 C.ar   30  G30         0.1748
    611  C6        83.4560  -11.6700  114.4880 C.ar   30  G30         0.3023
    612  O6        83.3750  -12.6470  113.7370 O.2    30  G30        -0.2633
    613  N7        81.8020   -9.9770  113.5280 N.ar   30  G30        -0.2173
    614  C8        81.5050   -8.7740  113.9440 C.ar   30  G30         0.1817
    615  N9        82.2210   -8.4180  115.0600 N.ar   30  G30        -0.2693
    616  OP1       78.6400   -4.1440  111.6280 O.3    30  G30        -0.4373
    617  OP2       78.3630   -6.6920  111.5890 O.co2  30  G30        -0.5172
    618  P         85.3160   -4.5810  113.2600 P.3    31  G31         0.2141
    619  C5'       86.7350   -5.0500  115.4140 C.3    31  G31         0.1812
    620  O5'       86.3670   -5.4320  114.1020 O.3    31  G31        -0.3114
    621  C4'       87.5900   -6.1040  116.0610 C.3    31  G31         0.1773
    622  O4'       86.8310   -7.3240  116.2570 O.3    31  G31        -0.3307
    623  C3'       88.7900   -6.5590  115.2530 C.3    31  G31         0.1860
    624  O3'       89.8640   -5.6630  115.3470 O.3    31  G31        -0.3112
    625  C2'       89.0930   -7.9100  115.8760 C.3    31  G31         0.2309
    626  O2'       89.7020   -7.7240  117.1460 O.3    31  G31        -0.2156
    627  C1'       87.6840   -8.4430  116.1070 C.3    31  G31         0.2408
    628  N1        88.0590  -12.9680  113.8700 N.ar   31  G31        -0.1709
    629  C2        88.7160  -12.4540  114.9620 C.ar   31  G31         0.2606
    630  N2        89.6160  -13.2450  115.5730 N.pl3  31  G31        -0.0859
    631  N3        88.5120  -11.2400  115.4310 N.ar   31  G31        -0.1918
    632  C4        87.5940  -10.5610  114.7270 C.ar   31  G31         0.1723
    633  C5        86.8860  -10.9710  113.6280 C.ar   31  G31         0.1748
    634  C6        87.1140  -12.2810  113.1260 C.ar   31  G31         0.3023
    635  O6        86.5840  -12.8450  112.1610 O.2    31  G31        -0.2633
    636  N7        86.0380   -9.9540  113.2020 N.ar   31  G31        -0.2173
    637  C8        86.2470   -8.9670  114.0380 C.ar   31  G31         0.1817
    638  N9        87.1950   -9.2730  114.9860 N.ar   31  G31        -0.2693
    639  OP1       85.8170   -3.2010  113.0900 O.3    31  G31        -0.4373
    640  OP2       84.9420   -5.3950  112.0810 O.co2  31  G31        -0.5172
    641  P         90.9490   -5.5680  114.1680 P.3    32  A32         0.2141
    642  C5'       92.6540   -7.1370  115.4070 C.3    32  A32         0.1812
    643  O5'       91.7880   -6.9190  114.3050 O.3    32  A32        -0.3114
    644  C4'       93.2790   -8.5040  115.3230 C.3    32  A32         0.1773
    645  O4'       92.2420   -9.5040  115.3220 O.3    32  A32        -0.3307
    646  C3'       94.0420   -8.7960  114.0490 C.3    32  A32         0.1860
    647  O3'       95.3310   -8.2230  114.0390 O.3    32  A32        -0.3112
    648  C2'       94.0460  -10.3120  114.0180 C.3    32  A32         0.2309
    649  O2'       94.9960  -10.8050  114.9500 O.3    32  A32        -0.2156
    650  C1'       92.6560  -10.6190  114.5610 C.3    32  A32         0.2408
    651  N1        90.7120  -13.9470  111.1690 N.ar   32  A32        -0.2040
    652  C2        91.7150  -14.0530  112.0490 C.ar   32  A32         0.2016
    653  N3        92.1790  -13.1530  112.9030 N.ar   32  A32        -0.2048
    654  C4        91.4820  -12.0110  112.7970 C.ar   32  A32         0.1692
    655  C5        90.4420  -11.7440  111.9330 C.ar   32  A32         0.1518
    656  C6        90.0480  -12.7800  111.0810 C.ar   32  A32         0.1919
    657  N6        89.0570  -12.6740  110.1980 N.pl3  32  A32        -0.1054
    658  N7        89.9850  -10.4460  112.0900 N.ar   32  A32        -0.2193
    659  C8        90.7420   -9.9550  113.0360 C.ar   32  A32         0.1816
    660  N9        91.6680  -10.8490  113.5010 N.ar   32  A32        -0.2693
    661  OP1       91.7710   -4.4060  114.5730 O.3    32  A32        -0.4373
    662  OP2       90.2750   -5.6840  112.8530 O.co2  32  A32        -0.5172
    663  P         95.9520   -7.6950  112.6570 P.3    33  U33         0.2141
    664  C5'       97.3860   -9.8300  112.2720 C.3    33  U33         0.1812
    665  O5'       96.2980   -9.0250  111.8630 O.3    33  U33        -0.3114
    666  C4'       97.3480  -11.1710  111.6030 C.3    33  U33         0.1773
    667  O4'       96.0600  -11.7940  111.8310 O.3    33  U33        -0.3307
    668  C3'       97.4660  -11.1550  110.0930 C.3    33  U33         0.1860
    669  O3'       98.7880  -10.9640  109.6300 O.3    33  U33        -0.3112
    670  C2'       96.8520  -12.4920  109.7090 C.3    33  U33         0.2309
    671  O2'       97.7490  -13.5520  109.9880 O.3    33  U33        -0.2156
    672  C1'       95.7010  -12.5740  110.7040 C.3    33  U33         0.2420
    673  N1        94.4530  -12.0290  110.1310 N.ar   33  U33        -0.2534
    674  C2        93.7050  -12.8950  109.3680 C.ar   33  U33         0.3546
    675  O2        94.0500  -14.0490  109.1740 O.2    33  U33        -0.2443
    676  N3        92.5480  -12.3620  108.8520 N.ar   33  U33        -0.1530
    677  C4        92.0890  -11.0740  109.0400 C.ar   33  U33         0.2846
    678  O4        91.0320  -10.7450  108.5090 O.2    33  U33        -0.2650
    679  C5        92.9160  -10.2350  109.8490 C.ar   33  U33         0.0814
    680  C6        94.0500  -10.7300  110.3510 C.ar   33  U33         0.0870
    681  OP1       97.1980   -6.9710  112.9960 O.3    33  U33        -0.4373
    682  OP2       94.8630   -7.0010  111.9240 O.co2  33  U33        -0.5172
    683  P         99.0580   -9.9890  108.3760 P.3    34  G34         0.2141
    684  C5'       99.1830  -12.2680  107.0920 C.3    34  G34         0.1812
    685  O5'       98.7230  -10.9240  107.1270 O.3    34  G34        -0.3114
    686  C4'       98.4440  -13.0970  106.0680 C.3    34  G34         0.1773
    687  O4'       97.1060  -13.3990  106.5270 O.3    34  G34        -0.3307
    688  C3'       98.2190  -12.4460  104.7210 C.3    34  G34         0.1860
    689  O3'       99.3750  -12.4580  103.9080 O.3    34  G34        -0.3112
    690  C2'       97.0500  -13.2490  104.1570 C.3    34  G34         0.2309
    691  O2'       97.4800  -14.4960  103.6310 O.3    34  G34        -0.2156
    692  C1'       96.2350  -13.5150  105.4180 C.3    34  G34         0.2408
    693  N1        91.5140  -12.3580  104.0210 N.ar   34  G34        -0.1709
    694  C2        92.3090  -13.4050  103.6290 C.ar   34  G34         0.2606
    695  N2        91.7790  -14.2630  102.7450 N.pl3  34  G34        -0.0859
    696  N3        93.5420  -13.5950  104.0720 N.ar   34  G34        -0.1918
    697  C4        93.9160  -12.6350  104.9470 C.ar   34  G34         0.1723
    698  C5        93.2010  -11.5510  105.4040 C.ar   34  G34         0.1748
    699  C6        91.8940  -11.3570  104.9110 C.ar   34  G34         0.3023
    700  O6        91.1090  -10.4480  105.1940 O.2    34  G34        -0.2633
    701  N7        93.9550  -10.7930  106.2940 N.ar   34  G34        -0.2173
    702  C8        95.0980  -11.4250  106.3690 C.ar   34  G34         0.1817
    703  N9        95.1300  -12.5530  105.5750 N.ar   34  G34        -0.2693
    704  OP1      100.4990   -9.6380  108.3680 O.2    34  G34        -0.5172
    705  OP2       98.0900   -8.8670  108.4220 O.co2  34  G34        -0.4373
    706  P         99.5220  -11.3780  102.7350 P.3    35  G35         0.2141
    707  C5'       97.7360  -11.0210  100.8280 C.3    35  G35         0.1812
    708  O5'       98.4570  -11.9010  101.6710 O.3    35  G35        -0.3114
    709  C4'       96.6000  -11.7600  100.1780 C.3    35  G35         0.1773
    710  O4'       95.6570  -12.2010  101.1950 O.3    35  G35        -0.3307
    711  C3'       95.7520  -10.9570   99.2140 C.3    35  G35         0.1860
    712  O3'       96.3440  -10.8210   97.9300 O.3    35  G35        -0.3112
    713  C2'       94.4440  -11.7320   99.2230 C.3    35  G35         0.2309
    714  O2'       94.5580  -12.9290   98.4690 O.3    35  G35        -0.2156
    715  C1'       94.3410  -12.0970  100.7030 C.3    35  G35         0.2408
    716  N1        90.0360   -9.4920  101.2180 N.ar   35  G35        -0.1709
    717  C2        90.3360  -10.5440  100.3800 C.ar   35  G35         0.2606
    718  N2        89.3710  -10.9720   99.5540 N.pl3  35  G35        -0.0859
    719  N3        91.5140  -11.1380  100.3570 N.ar   35  G35        -0.1918
    720  C4        92.3790  -10.5990  101.2400 C.ar   35  G35         0.1723
    721  C5        92.1840   -9.5590  102.1190 C.ar   35  G35         0.1748
    722  C6        90.9160   -8.9270  102.1430 C.ar   35  G35         0.3023
    723  O6        90.5430   -7.9870  102.8490 O.2    35  G35        -0.2633
    724  N7        93.3350   -9.3200  102.8630 N.ar   35  G35        -0.2173
    725  C8        94.2000  -10.1990  102.4190 C.ar   35  G35         0.1817
    726  N9        93.6680  -11.0200  101.4470 N.ar   35  G35        -0.2693
    727  OP1      100.8560  -11.6110  102.1420 O.2    35  G35        -0.5172
    728  OP2       99.1700  -10.0060  103.2210 O.co2  35  G35        -0.4373
    729  P         96.4170   -9.3730   97.2270 P.3    36  G36         0.2141
    730  C5'       93.9580   -9.6290   96.3340 C.3    36  G36         0.1812
    731  O5'       94.8910   -8.9210   97.1400 O.3    36  G36        -0.3114
    732  C4'       92.5880   -9.0260   96.4690 C.3    36  G36         0.1773
    733  O4'       92.1790   -9.0800   97.8560 O.3    36  G36        -0.3307
    734  C3'       92.5050   -7.5550   96.1020 C.3    36  G36         0.1860
    735  O3'       92.3030   -7.3850   94.7090 O.3    36  G36        -0.3112
    736  C2'       91.3430   -7.0500   96.9430 C.3    36  G36         0.2309
    737  O2'       90.1110   -7.3490   96.3070 O.3    36  G36        -0.2156
    738  C1'       91.4530   -7.9220   98.1980 C.3    36  G36         0.2408
    739  N1        91.0880   -4.7310  102.2160 N.ar   36  G36        -0.1709
    740  C2        90.1290   -5.0710  101.3040 C.ar   36  G36         0.2606
    741  N2        88.9310   -4.4960  101.4860 N.pl3  36  G36        -0.0859
    742  N3        90.3340   -5.9060  100.3070 N.ar   36  G36        -0.1918
    743  C4        91.5960   -6.3870  100.2710 C.ar   36  G36         0.1723
    744  C5        92.6240   -6.1080  101.1440 C.ar   36  G36         0.1748
    745  C6        92.3880   -5.2100  102.2080 C.ar   36  G36         0.3023
    746  O6        93.1610   -4.8280  103.0870 O.2    36  G36        -0.2633
    747  N7        93.7760   -6.7900  100.7820 N.ar   36  G36        -0.2173
    748  C8        93.4420   -7.4760   99.7210 C.ar   36  G36         0.1817
    749  N9        92.1310   -7.2650   99.3400 N.ar   36  G36        -0.2693
    750  OP1       96.9370   -9.5890   95.8550 O.2    36  G36        -0.5172
    751  OP2       97.0640   -8.3780   98.1100 O.co2  36  G36        -0.4373
    752  P         93.1860   -6.4280   93.8180 P.3    37  G37         0.2141
    753  C5'       91.0840   -4.9010   93.8780 C.3    37  G37         0.1812
    754  O5'       92.4860   -5.0310   93.9640 O.3    37  G37        -0.3114
    755  C4'       90.6430   -3.6870   94.6420 C.3    37  G37         0.1773
    756  O4'       90.9030   -3.9000   96.0490 O.3    37  G37        -0.3307
    757  C3'       91.3750   -2.3920   94.2660 C.3    37  G37         0.1860
    758  O3'       90.5160   -1.2710   94.2170 O.3    37  G37        -0.3112
    759  C2'       92.2750   -2.1890   95.4680 C.3    37  G37         0.2309
    760  O2'       92.5560   -0.8460   95.6630 O.3    37  G37        -0.2156
    761  C1'       91.3650   -2.7050   96.5760 C.3    37  G37         0.2408
    762  N1        95.4180   -4.4990   99.0220 N.ar   37  G37        -0.1709
    763  C2        95.0930   -4.6030   97.7000 C.ar   37  G37         0.2606
    764  N2        95.9570   -5.2630   96.9350 N.pl3  37  G37        -0.0859
    765  N3        93.9950   -4.1070   97.1690 N.ar   37  G37        -0.1918
    766  C4        93.2260   -3.5020   98.0880 C.ar   37  G37         0.1723
    767  C5        93.4600   -3.3460   99.4340 C.ar   37  G37         0.1748
    768  C6        94.6530   -3.8580   99.9810 C.ar   37  G37         0.3023
    769  O6        95.0430   -3.8080  101.1400 O.2    37  G37        -0.2633
    770  N7        92.4360   -2.6380  100.0300 N.ar   37  G37        -0.2173
    771  C8        91.6170   -2.3800   99.0540 C.ar   37  G37         0.1817
    772  N9        92.0180   -2.9110   97.8590 N.ar   37  G37        -0.2693
    773  OP1       93.1000   -6.8900   92.4870 O.2    37  G37        -0.5172
    774  OP2       94.4570   -6.3110   94.4190 O.co2  37  G37        -0.4373
    775  P         90.5140   -0.3050   93.0290 P.3    38  C38         0.2141
    776  C5'       87.9260   -0.1380   93.1500 C.3    38  C38         0.1812
    777  O5'       89.1730    0.5120   93.2340 O.3    38  C38        -0.3114
    778  C4'       86.9470    0.4870   94.0940 C.3    38  C38         0.1773
    779  O4'       87.0810   -0.1070   95.4050 O.3    38  C38        -0.3307
    780  C3'       87.1320    1.9690   94.3460 C.3    38  C38         0.1860
    781  O3'       86.5840    2.7580   93.3130 O.3    38  C38        -0.3112
    782  C2'       86.4290    2.1580   95.6790 C.3    38  C38         0.2309
    783  O2'       85.0240    2.2020   95.4910 O.3    38  C38        -0.2156
    784  C1'       86.7620    0.8470   96.3900 C.3    38  C38         0.2420
    785  N1        87.8970    0.9550   97.3260 N.ar   38  C38        -0.2535
    786  C2        87.6480    1.4740   98.5940 C.ar   38  C38         0.3532
    787  O2        86.5060    1.8570   98.8830 O.2    38  C38        -0.2443
    788  N3        88.6600    1.5740   99.4760 N.ar   38  C38        -0.1739
    789  C4        89.8820    1.1590   99.1590 C.ar   38  C38         0.1759
    790  N4        90.8300    1.2710  100.0960 N.pl3  38  C38        -0.1070
    791  C5        90.1660    0.6110   97.8750 C.ar   38  C38         0.0566
    792  C6        89.1500    0.5250   96.9830 C.ar   38  C38         0.0850
    793  OP1       90.4020   -1.1470   91.8040 O.2    38  C38        -0.5172
    794  OP2       91.6410    0.6420   93.2120 O.co2  38  C38        -0.4373
    795  P         87.1550    4.2230   93.0150 P.3    39  G39         0.2141
    796  C5'       87.9330    5.7310   94.9980 C.3    39  G39         0.1812
    797  O5'       86.8930    5.0160   94.3600 O.3    39  G39        -0.3114
    798  C4'       87.6760    5.7990   96.4740 C.3    39  G39         0.1773
    799  O4'       88.0790    4.5560   97.0980 O.3    39  G39        -0.3307
    800  C3'       88.4510    6.8570   97.2190 C.3    39  G39         0.1860
    801  O3'       87.8210    8.1050   97.1230 O.3    39  G39        -0.3112
    802  C2'       88.4950    6.3060   98.6330 C.3    39  G39         0.2309
    803  O2'       87.2550    6.5050   99.2870 O.3    39  G39        -0.2156
    804  C1'       88.6530    4.8160   98.3570 C.3    39  G39         0.2408
    805  N1        92.9600    4.2360  100.9300 N.ar   39  G39        -0.1709
    806  C2        91.7300    4.7020  101.3540 C.ar   39  G39         0.2606
    807  N2        91.5440    5.0650  102.6300 N.pl3  39  G39        -0.0859
    808  N3        90.6960    4.8020  100.5700 N.ar   39  G39        -0.1918
    809  C4        90.9630    4.4110   99.3140 C.ar   39  G39         0.1723
    810  C5        92.1270    3.9510   98.7720 C.ar   39  G39         0.1748
    811  C6        93.2520    3.8430   99.6180 C.ar   39  G39         0.3023
    812  O6        94.3770    3.4390   99.2840 O.2    39  G39        -0.2633
    813  N7        91.9770    3.6580   97.4130 N.ar   39  G39        -0.2173
    814  C8        90.7280    3.9490   97.1710 C.ar   39  G39         0.1817
    815  N9        90.0710    4.4170   98.2800 N.ar   39  G39        -0.2693
    816  OP1       86.2590    4.9170   92.0500 O.2    39  G39        -0.5172
    817  OP2       88.6060    4.0920   92.7590 O.co2  39  G39        -0.4373
    818  P         88.6960    9.4180   96.8620 P.3    40  G40         0.2141
    819  C5'       88.5740    9.9990   99.3980 C.3    40  G40         0.1812
    820  O5'       89.3820    9.7070   98.2680 O.3    40  G40        -0.3114
    821  C4'       89.3540    9.9120  100.6830 C.3    40  G40         0.1773
    822  O4'       89.9070    8.5850  100.8480 O.3    40  G40        -0.3307
    823  C3'       90.5550   10.8280  100.8210 C.3    40  G40         0.1860
    824  O3'       90.1720   12.1280  101.2140 O.3    40  G40        -0.3112
    825  C2'       91.3640   10.1320  101.9040 C.3    40  G40         0.2309
    826  O2'       90.8140   10.4200  103.1740 O.3    40  G40        -0.2156
    827  C1'       91.1000    8.6560  101.5960 C.3    40  G40         0.2408
    828  N1        95.8820    6.8610  101.6140 N.ar   40  G40        -0.1709
    829  C2        95.1440    7.3490  102.6550 C.ar   40  G40         0.2606
    830  N2        95.7750    7.3600  103.8380 N.pl3  40  G40        -0.0859
    831  N3        93.8990    7.7970  102.5420 N.ar   40  G40        -0.1918
    832  C4        93.4410    7.7080  101.2710 C.ar   40  G40         0.1723
    833  C5        94.1000    7.2380  100.1590 C.ar   40  G40         0.1748
    834  C6        95.4310    6.7820  100.2990 C.ar   40  G40         0.3023
    835  O6        96.1610    6.3310   99.4230 O.2    40  G40        -0.2633
    836  N7        93.2960    7.3080   99.0320 N.ar   40  G40        -0.2173
    837  C8        92.1720    7.8120   99.4610 C.ar   40  G40         0.1817
    838  N9        92.1920    8.0660  100.8060 N.ar   40  G40        -0.2693
    839  OP1       87.7160   10.5130   96.6490 O.3    40  G40        -0.4373
    840  OP2       89.7350    9.0900   95.8640 O.co2  40  G40        -0.5172
    841  P         90.3790   13.3880  100.2490 P.3    41  A41         0.2141
    842  C5'       92.8660   13.7130  101.0420 C.3    41  A41         0.1812
    843  O5'       91.5420   14.2180  100.9380 O.3    41  A41        -0.3114
    844  C4'       93.7590   14.6700  101.8010 C.3    41  A41         0.1773
    845  O4'       95.1090   14.1550  101.7390 O.3    41  A41        -0.3307
    846  C3'       93.8060   16.0760  101.2120 C.3    41  A41         0.1860
    847  O3'       94.0570   17.0820  102.1950 O.3    41  A41        -0.3112
    848  C2'       95.0160   16.0170  100.2950 C.3    41  A41         0.2309
    849  O2'       95.6280   17.2820  100.1310 O.3    41  A41        -0.2156
    850  C1'       95.9410   15.0430  101.0300 C.3    41  A41         0.2408
    851  N1       100.2350   12.1800  100.2910 N.ar   41  A41        -0.2040
    852  C2        99.7530   12.8020  101.3760 C.ar   41  A41         0.2016
    853  N3        98.6530   13.5310  101.5350 N.ar   41  A41        -0.2048
    854  C4        97.9640   13.5900  100.3820 C.ar   41  A41         0.1692
    855  C5        98.3350   13.0060   99.1850 C.ar   41  A41         0.1518
    856  C6        99.5270   12.2680   99.1500 C.ar   41  A41         0.1919
    857  N6        99.9800   11.6490   98.0520 N.pl3  41  A41        -0.1054
    858  N7        97.3990   13.2570   98.2000 N.ar   41  A41        -0.2193
    859  C8        96.5070   13.9910   98.8110 C.ar   41  A41         0.1816
    860  N9        96.7740   14.2390  100.1270 N.ar   41  A41        -0.2693
    861  OP1       89.1580   14.2030  100.4500 O.3    41  A41        -0.4373
    862  OP2       90.8370   12.9810   98.8960 O.co2  41  A41        -0.5172
    863  P         93.3540   17.1310  103.6350 P.3    42  A42         0.2141
    864  C5'       94.1500   15.8670  105.7720 C.3    42  A42         0.1812
    865  O5'       94.4680   16.4540  104.5320 O.3    42  A42        -0.3114
    866  C4'       94.2900   14.3810  105.6800 C.3    42  A42         0.1773
    867  O4'       95.6800   13.9870  105.8870 O.3    42  A42        -0.3307
    868  C3'       93.4670   13.6260  106.7090 C.3    42  A42         0.1860
    869  O3'       92.8440   12.5080  106.1000 O.3    42  A42        -0.3112
    870  C2'       94.5080   13.1530  107.7110 C.3    42  A42         0.2309
    871  O2'       94.1460   11.9910  108.4250 O.3    42  A42        -0.2156
    872  C1'       95.7150   12.9300  106.8100 C.3    42  A42         0.2408
    873  N1       100.0920   10.3400  107.4590 N.ar   42  A42        -0.2040
    874  C2        99.1010   10.2040  106.5700 C.ar   42  A42         0.2016
    875  N3        98.0090   10.9500  106.4600 N.ar   42  A42        -0.2048
    876  C4        97.9590   11.9250  107.3880 C.ar   42  A42         0.1692
    877  C5        98.9060   12.1870  108.3520 C.ar   42  A42         0.1518
    878  C6       100.0230   11.3410  108.3680 C.ar   42  A42         0.1919
    879  N6       101.0140   11.4610  109.2410 N.pl3  42  A42        -0.1054
    880  N7        98.5200   13.2560  109.1420 N.ar   42  A42        -0.2193
    881  C8        97.3660   13.6170  108.6360 C.ar   42  A42         0.1816
    882  N9        96.9800   12.8740  107.5510 N.ar   42  A42        -0.2693
    883  OP1       92.0980   16.3660  103.7240 O.2    42  A42        -0.5172
    884  OP2       93.3250   18.5470  104.0840 O.co2  42  A42        -0.4373
    885  P         91.2440   12.4060  106.1330 P.3    43  A43         0.2141
    886  C5'       91.3410   10.3850  107.8030 C.3    43  A43         0.1812
    887  O5'       90.9500   10.9020  106.5440 O.3    43  A43        -0.3114
    888  C4'       91.3650    8.8770  107.7590 C.3    43  A43         0.1773
    889  O4'       90.0930    8.4210  107.2350 O.3    43  A43        -0.3307
    890  C3'       92.4300    8.2800  106.8420 C.3    43  A43         0.1860
    891  O3'       92.7630    6.9700  107.3030 O.3    43  A43        -0.3112
    892  C2'       91.6880    8.1640  105.5160 C.3    43  A43         0.2309
    893  O2'       92.2170    7.2040  104.6250 O.3    43  A43        -0.2156
    894  C1'       90.2880    7.7740  105.9910 C.3    43  A43         0.2408
    895  N1        87.4940    6.8670  101.7710 N.ar   43  A43        -0.2040
    896  C2        88.5040    6.1840  102.3270 C.ar   43  A43         0.2016
    897  N3        89.2060    6.4590  103.4160 N.ar   43  A43        -0.2048
    898  C4        88.7520    7.5910  103.9790 C.ar   43  A43         0.1692
    899  C5        87.7290    8.3960  103.5310 C.ar   43  A43         0.1518
    900  C6        87.0730    7.9960  102.3700 C.ar   43  A43         0.1919
    901  N6        86.0700    8.6850  101.8340 N.pl3  43  A43        -0.1054
    902  N7        87.5410    9.4850  104.3620 N.ar   43  A43        -0.2193
    903  C8        88.4470    9.3360  105.2880 C.ar   43  A43         0.1816
    904  N9        89.2160    8.2160  105.1070 N.ar   43  A43        -0.2693
    905  OP1       90.7780   12.6060  104.7410 O.2    43  A43        -0.5172
    906  OP2       90.7010   13.2130  107.2390 O.co2  43  A43        -0.4373
    907  P         93.7890    6.7400  108.5190 P.3    44  G44         0.2141
    908  C5'       96.1640    6.0970  107.5970 C.3    44  G44         0.1812
    909  O5'       95.2070    7.1080  107.8930 O.3    44  G44        -0.3114
    910  C4'       97.4200    6.2770  108.4140 C.3    44  G44         0.1773
    911  O4'       97.8930    7.6360  108.2660 O.3    44  G44        -0.3307
    912  C3'       97.2540    6.0790  109.9180 C.3    44  G44         0.1860
    913  O3'       97.4590    4.7260  110.2800 O.3    44  G44        -0.3112
    914  C2'       98.2970    7.0180  110.5200 C.3    44  G44         0.2309
    915  O2'       99.5720    6.4000  110.5700 O.3    44  G44        -0.2156
    916  C1'       98.3550    8.1420  109.4940 C.3    44  G44         0.2408
    917  N1        97.2550   12.0490  112.6810 N.ar   44  G44        -0.1709
    918  C2        98.2490   11.1180  112.8020 C.ar   44  G44         0.2606
    919  N2        99.0080   11.2730  113.8860 N.pl3  44  G44        -0.0859
    920  N3        98.4730   10.1380  111.9470 N.ar   44  G44        -0.1918
    921  C4        97.6010   10.1680  110.9200 C.ar   44  G44         0.1723
    922  C5        96.5670   11.0510  110.7130 C.ar   44  G44         0.1748
    923  C6        96.3480   12.0950  111.6380 C.ar   44  G44         0.3023
    924  O6        95.4810   12.9750  111.6120 O.2    44  G44        -0.2633
    925  N7        95.8730   10.7450  109.5530 N.ar   44  G44        -0.2173
    926  C8        96.4800    9.7120  109.0610 C.ar   44  G44         0.1817
    927  N9        97.5150    9.2940  109.8470 N.ar   44  G44        -0.2693
    928  OP1       93.7980    5.2850  108.8260 O.2    44  G44        -0.5172
    929  OP2       93.5080    7.6950  109.6280 O.co2  44  G44        -0.4373
    930  P         96.6990    4.0700  111.5320 P.3    45  C45         0.2141
    931  C5'       98.6460    4.7710  113.1570 C.3    45  C45         0.1812
    932  O5'       97.2770    4.8470  112.7920 O.3    45  C45        -0.3114
    933  C4'       98.8780    5.5100  114.4470 C.3    45  C45         0.1773
    934  O4'       98.8940    6.9410  114.2060 O.3    45  C45        -0.3307
    935  C3'       97.7910    5.3270  115.4850 C.3    45  C45         0.1860
    936  O3'       97.9220    4.1040  116.1870 O.3    45  C45        -0.3112
    937  C2'       97.9330    6.5790  116.3410 C.3    45  C45         0.2309
    938  O2'       99.0330    6.4580  117.2220 O.3    45  C45        -0.2156
    939  C1'       98.3000    7.6200  115.2890 C.3    45  C45         0.2420
    940  N1        97.1400    8.3820  114.7750 N.ar   45  C45        -0.2535
    941  C2        96.6780    9.5090  115.4740 C.ar   45  C45         0.3532
    942  O2        97.2090    9.8440  116.5320 O.2    45  C45        -0.2443
    943  N3        95.6360   10.2170  114.9840 N.ar   45  C45        -0.1739
    944  C4        95.0650    9.8580  113.8370 C.ar   45  C45         0.1759
    945  N4        94.0650   10.6180  113.4090 N.pl3  45  C45        -0.1070
    946  C5        95.5160    8.7260  113.0910 C.ar   45  C45         0.0566
    947  C6        96.5470    8.0250  113.5860 C.ar   45  C45         0.0850
    948  OP1       97.1450    2.6570  111.6030 O.3    45  C45        -0.4373
    949  OP2       95.2530    4.3960  111.4750 O.co2  45  C45        -0.5172
    950  P         96.6530    3.4410  116.8950 P.3    46  C46         0.2141
    951  C5'       94.9560    4.7450  118.4100 C.3    46  C46         0.1812
    952  O5'       96.2840    4.5260  117.9900 O.3    46  C46        -0.3114
    953  C4'       94.8870    6.0450  119.1550 C.3    46  C46         0.1773
    954  O4'       95.1330    7.1430  118.2380 O.3    46  C46        -0.3307
    955  C3'       93.5500    6.3750  119.7840 C.3    46  C46         0.1860
    956  O3'       93.3910    5.7510  121.0380 O.3    46  C46        -0.3112
    957  C2'       93.5810    7.8870  119.8850 C.3    46  C46         0.2309
    958  O2'       94.3180    8.2800  121.0300 O.3    46  C46        -0.2156
    959  C1'       94.3650    8.2620  118.6200 C.3    46  C46         0.2420
    960  N1        93.4800    8.6330  117.4860 N.ar   46  C46        -0.2535
    961  C2        92.7360    9.8170  117.5560 C.ar   46  C46         0.3532
    962  O2        92.8250   10.5220  118.5790 O.2    46  C46        -0.2443
    963  N3        91.9310   10.1700  116.5230 N.ar   46  C46        -0.1739
    964  C4        91.8530    9.4030  115.4400 C.ar   46  C46         0.1759
    965  N4        91.0570    9.8070  114.4440 N.pl3  46  C46        -0.1070
    966  C5        92.6070    8.1950  115.3360 C.ar   46  C46         0.0566
    967  C6        93.4000    7.8520  116.3660 C.ar   46  C46         0.0850
    968  OP1       97.1130    2.2560  117.6550 O.3    46  C46        -0.4373
    969  OP2       95.5510    3.3190  115.9040 O.co2  46  C46        -0.5172
    970  P         91.9820    5.1170  121.4230 P.3    47  U47         0.2141
    971  C5'       91.4920    7.3190  122.7800 C.3    47  U47         0.1812
    972  O5'       91.0840    6.3570  121.8190 O.3    47  U47        -0.3114
    973  C4'       90.5630    8.5080  122.7370 C.3    47  U47         0.1773
    974  O4'       90.7500    9.2210  121.4920 O.3    47  U47        -0.3307
    975  C3'       89.0830    8.1700  122.7450 C.3    47  U47         0.1860
    976  O3'       88.5950    7.9250  124.0530 O.3    47  U47        -0.3112
    977  C2'       88.4480    9.3810  122.0640 C.3    47  U47         0.2309
    978  O2'       88.2750   10.4440  122.9880 O.3    47  U47        -0.2156
    979  C1'       89.5320    9.7850  121.0610 C.3    47  U47         0.2420
    980  N1        89.2560    9.3520  119.6640 N.ar   47  U47        -0.2534
    981  C2        88.4100   10.1250  118.8800 C.ar   47  U47         0.3546
    982  O2        87.8530   11.1310  119.2630 O.2    47  U47        -0.2443
    983  N3        88.2060    9.6760  117.6130 N.ar   47  U47        -0.1530
    984  C4        88.7560    8.5640  117.0370 C.ar   47  U47         0.2846
    985  O4        88.4630    8.3220  115.8650 O.2    47  U47        -0.2650
    986  C5        89.6300    7.8140  117.8800 C.ar   47  U47         0.0814
    987  C6        89.8440    8.2270  119.1330 C.ar   47  U47         0.0870
    988  OP1       92.1890    4.2580  122.6240 O.3    47  U47        -0.4373
    989  OP2       91.3770    4.5500  120.1860 O.co2  47  U47        -0.5172
    990  P         87.5930    6.7000  124.3460 P.3    48  A48         0.2141
    991  C5'       85.4470    7.9460  123.5040 C.3    48  A48         0.1812
    992  O5'       86.1980    7.4120  124.5780 O.3    48  A48        -0.3114
    993  C4'       84.0120    7.5020  123.6060 C.3    48  A48         0.1773
    994  O4'       83.6110    6.9670  122.3210 O.3    48  A48        -0.3307
    995  C3'       83.7690    6.3860  124.6090 C.3    48  A48         0.1860
    996  O3'       82.3960    6.4330  124.9970 O.3    48  A48        -0.3112
    997  C2'       83.9950    5.1490  123.7540 C.3    48  A48         0.2309
    998  O2'       83.3840    3.9830  124.2570 O.3    48  A48        -0.2156
    999  C1'       83.3530    5.5870  122.4440 C.3    48  A48         0.2408
   1000  N1        83.0260    5.3560  117.3960 N.ar   48  A48        -0.2040
   1001  C2        82.4460    6.1630  118.2940 C.ar   48  A48         0.2016
   1002  N3        82.5860    6.1750  119.6140 N.ar   48  A48        -0.2048
   1003  C4        83.4470    5.1990  119.9820 C.ar   48  A48         0.1692
   1004  C5        84.1190    4.3000  119.1840 C.ar   48  A48         0.1518
   1005  C6        83.8830    4.3930  117.8100 C.ar   48  A48         0.1919
   1006  N6        84.4700    3.5930  116.9140 N.pl3  48  A48        -0.1054
   1007  N7        84.9290    3.4470  119.9320 N.ar   48  A48        -0.2193
   1008  C8        84.7300    3.8480  121.1640 C.ar   48  A48         0.1816
   1009  N9        83.8520    4.9010  121.2520 N.ar   48  A48        -0.2693
   1010  OP1       87.9190    6.1420  125.6870 O.3    48  A48        -0.4373
   1011  OP2       87.5210    5.7900  123.1950 O.co2  48  A48        -0.5172
   1012  P         81.9320    6.1040  126.5000 P.3    49  A49         0.2141
   1013  C5'       81.1420    8.6250  126.5440 C.3    49  A49         0.1812
   1014  O5'       81.7650    7.5240  127.1940 O.3    49  A49        -0.3114
   1015  C4'       81.5240    9.9190  127.2250 C.3    49  A49         0.1773
   1016  O4'       81.2150    9.8200  128.6410 O.3    49  A49        -0.3307
   1017  C3'       83.0050   10.2560  127.1510 C.3    49  A49         0.1860
   1018  O3'       83.1460   11.6650  127.2120 O.3    49  A49        -0.3112
   1019  C2'       83.5530    9.6530  128.4380 C.3    49  A49         0.2309
   1020  O2'       84.7610   10.2290  128.8870 O.3    49  A49        -0.2156
   1021  C1'       82.4090    9.9280  129.4040 C.3    49  A49         0.2408
   1022  N1        83.6860    9.0420  134.3150 N.ar   49  A49        -0.2040
   1023  C2        83.9310   10.0790  133.5030 C.ar   49  A49         0.2016
   1024  N3        83.5640   10.2430  132.2340 N.ar   49  A49        -0.2048
   1025  C4        82.8610    9.1800  131.7860 C.ar   49  A49         0.1692
   1026  C5        82.5350    8.0420  132.5050 C.ar   49  A49         0.1518
   1027  C6        82.9790    7.9900  133.8400 C.ar   49  A49         0.1919
   1028  N6        82.7350    6.9600  134.6600 N.pl3  49  A49        -0.1054
   1029  N7        81.8030    7.1540  131.7160 N.ar   49  A49        -0.2193
   1030  C8        81.7120    7.7580  130.5530 C.ar   49  A49         0.1816
   1031  N9        82.3360    8.9830  130.5240 N.ar   49  A49        -0.2693
   1032  OP1       83.0220    5.4360  127.2840 O.3    49  A49        -0.4373
   1033  OP2       80.5840    5.4990  126.3230 O.co2  49  A49        -0.5172
   1034  P         83.8690   12.4100  126.0080 P.3    50  G50         0.2141
   1035  C5'       81.7100   13.9110  125.9450 C.3    50  G50         0.1812
   1036  O5'       82.6740   13.1360  125.2510 O.3    50  G50        -0.3114
   1037  C4'       80.8850   14.6980  124.9650 C.3    50  G50         0.1773
   1038  O4'       81.7660   15.1970  123.9220 O.3    50  G50        -0.3307
   1039  C3'       79.8400   13.8970  124.2060 C.3    50  G50         0.1860
   1040  O3'       78.6340   13.7250  124.9210 O.3    50  G50        -0.3112
   1041  C2'       79.6860   14.6910  122.9210 C.3    50  G50         0.2309
   1042  O2'       78.9340   15.8730  123.1470 O.3    50  G50        -0.2156
   1043  C1'       81.1360   15.0870  122.6620 C.3    50  G50         0.2408
   1044  N1        81.3720   13.0150  118.0840 N.ar   50  G50        -0.1709
   1045  C2        80.6230   14.0630  118.5550 C.ar   50  G50         0.2606
   1046  N2        79.8130   14.6550  117.6720 N.pl3  50  G50        -0.0859
   1047  N3        80.6720   14.4940  119.8000 N.ar   50  G50        -0.1918
   1048  C4        81.5510   13.7970  120.5460 C.ar   50  G50         0.1723
   1049  C5        82.3500   12.7330  120.1880 C.ar   50  G50         0.1748
   1050  C6        82.2780   12.2730  118.8410 C.ar   50  G50         0.3023
   1051  O6        82.8830   11.3490  118.2880 O.2    50  G50        -0.2633
   1052  N7        83.1050   12.3070  121.2800 N.ar   50  G50        -0.2173
   1053  C8        82.7500   13.1010  122.2540 C.ar   50  G50         0.1817
   1054  N9        81.8150   14.0420  121.8680 N.ar   50  G50        -0.2693
   1055  OP1       84.3680   11.3480  125.0880 O.2    50  G50        -0.5172
   1056  OP2       84.7880   13.4160  126.6010 O.co2  50  G50        -0.4373
   1057  P         77.7920   12.3780  124.7380 P.3    51  G51         0.2141
   1058  C5'       76.1820   13.4430  122.9600 C.3    51  G51         0.1812
   1059  O5'       77.1750   12.4760  123.2680 O.3    51  G51        -0.3114
   1060  C4'       76.0450   13.6970  121.4770 C.3    51  G51         0.1773
   1061  O4'       77.3490   13.8220  120.8540 O.3    51  G51        -0.3307
   1062  C3'       75.3630   12.6210  120.6550 C.3    51  G51         0.1860
   1063  O3'       73.9580   12.6320  120.7720 O.3    51  G51        -0.3112
   1064  C2'       75.8380   12.9510  119.2530 C.3    51  G51         0.2309
   1065  O2'       75.1450   14.0830  118.7560 O.3    51  G51        -0.2156
   1066  C1'       77.2860   13.3510  119.5240 C.3    51  G51         0.2408
   1067  N1        79.2400    9.9520  116.2960 N.ar   51  G51        -0.1709
   1068  C2        78.3930   11.0090  116.0690 C.ar   51  G51         0.2606
   1069  N2        77.9890   11.2020  114.8100 N.pl3  51  G51        -0.0859
   1070  N3        77.9640   11.8230  117.0110 N.ar   51  G51        -0.1918
   1071  C4        78.4500   11.5180  118.2260 C.ar   51  G51         0.1723
   1072  C5        79.2970   10.4940  118.5730 C.ar   51  G51         0.1748
   1073  C6        79.7550    9.6200  117.5510 C.ar   51  G51         0.3023
   1074  O6        80.5140    8.6520  117.6470 O.2    51  G51        -0.2633
   1075  N7        79.5500   10.5280  119.9400 N.ar   51  G51        -0.2173
   1076  C8        78.8550   11.5390  120.3890 C.ar   51  G51         0.1817
   1077  N9        78.1710   12.1830  119.3920 N.ar   51  G51        -0.2693
   1078  OP1       76.6820   12.4460  125.7180 O.3    51  G51        -0.4373
   1079  OP2       78.7570   11.2500  124.7490 O.co2  51  G51        -0.5172
   1080  P         73.1540   11.2500  120.9050 P.3    52  G52         0.2141
   1081  C5'       72.8570   11.0950  118.2840 C.3    52  G52         0.1812
   1082  O5'       73.3360   10.5200  119.4940 O.3    52  G52        -0.3114
   1083  C4'       73.4580   10.4290  117.0660 C.3    52  G52         0.1773
   1084  O4'       74.9090   10.4660  117.1500 O.3    52  G52        -0.3307
   1085  C3'       73.1380    8.9540  116.8710 C.3    52  G52         0.1860
   1086  O3'       71.8860    8.7360  116.2510 O.3    52  G52        -0.3112
   1087  C2'       74.3050    8.4670  116.0230 C.3    52  G52         0.2309
   1088  O2'       74.1180    8.8310  114.6630 O.3    52  G52        -0.2156
   1089  C1'       75.4580    9.2900  116.5910 C.3    52  G52         0.2408
   1090  N1        78.6380    5.4540  117.6880 N.ar   52  G52        -0.1709
   1091  C2        78.1380    5.8490  116.4710 C.ar   52  G52         0.2606
   1092  N2        78.5260    5.1530  115.3870 N.pl3  52  G52        -0.0859
   1093  N3        77.3150    6.8710  116.3130 N.ar   52  G52        -0.1918
   1094  C4        77.0180    7.4780  117.4830 C.ar   52  G52         0.1723
   1095  C5        77.4650    7.1690  118.7390 C.ar   52  G52         0.1748
   1096  C6        78.3490    6.0770  118.8960 C.ar   52  G52         0.3023
   1097  O6        78.8360    5.6730  119.9540 O.2    52  G52        -0.2633
   1098  N7        76.9340    8.0310  119.6920 N.ar   52  G52        -0.2173
   1099  C8        76.1860    8.8460  118.9970 C.ar   52  G52         0.1817
   1100  N9        76.1890    8.5640  117.6500 N.ar   52  G52        -0.2693
   1101  OP1       71.7190   11.5950  121.1150 O.2    52  G52        -0.5172
   1102  OP2       73.8660   10.4370  121.9190 O.co2  52  G52        -0.4373
   1103  P         70.9390    7.5440  116.7530 P.3    53  U53         0.2141
   1104  C5'       71.5860    6.1760  114.6050 C.3    53  U53         0.1812
   1105  O5'       71.4980    6.2470  116.0190 O.3    53  U53        -0.3114
   1106  C4'       72.5270    5.0790  114.1610 C.3    53  U53         0.1773
   1107  O4'       73.8800    5.3870  114.5860 O.3    53  U53        -0.3307
   1108  C3'       72.2780    3.6960  114.7450 C.3    53  U53         0.1860
   1109  O3'       71.2450    2.9760  114.1070 O.3    53  U53        -0.3112
   1110  C2'       73.6330    3.0380  114.5870 C.3    53  U53         0.2309
   1111  O2'       73.8520    2.6870  113.2330 O.3    53  U53        -0.2156
   1112  C1'       74.5580    4.1940  114.9240 C.3    53  U53         0.2420
   1113  N1        74.8950    4.2190  116.3670 N.ar   53  U53        -0.2534
   1114  C2        75.8140    3.2770  116.8070 C.ar   53  U53         0.3546
   1115  O2        76.3340    2.4420  116.1010 O.2    53  U53        -0.2443
   1116  N3        76.1230    3.3200  118.1290 N.ar   53  U53        -0.1530
   1117  C4        75.6220    4.1900  119.0540 C.ar   53  U53         0.2846
   1118  O4        76.0150    4.0830  120.2140 O.2    53  U53        -0.2650
   1119  C5        74.6750    5.1390  118.5390 C.ar   53  U53         0.0814
   1120  C6        74.3420    5.1280  117.2420 C.ar   53  U53         0.0870
   1121  OP1       69.5600    7.8080  116.2700 O.2    53  U53        -0.5172
   1122  OP2       71.2240    7.3890  118.2030 O.co2  53  U53        -0.4373
   1123  P         70.3270    1.9920  114.9790 P.3    54  C54         0.2141
   1124  C5'       71.8280    0.0040  114.1620 C.3    54  C54         0.1812
   1125  O5'       71.2450    0.7200  115.2360 O.3    54  C54        -0.3114
   1126  C4'       72.9040   -0.9230  114.6630 C.3    54  C54         0.1773
   1127  O4'       73.9420   -0.1510  115.3250 O.3    54  C54        -0.3307
   1128  C3'       72.4880   -1.9290  115.7270 C.3    54  C54         0.1860
   1129  O3'       71.7720   -3.0460  115.2300 O.3    54  C54        -0.3112
   1130  C2'       73.8240   -2.2780  116.3700 C.3    54  C54         0.2309
   1131  O2'       74.5900   -3.1500  115.5460 O.3    54  C54        -0.2156
   1132  C1'       74.5050   -0.9140  116.3770 C.3    54  C54         0.2420
   1133  N1        74.2880   -0.2150  117.6620 N.ar   54  C54        -0.2535
   1134  C2        75.0060   -0.6950  118.7570 C.ar   54  C54         0.3532
   1135  O2        75.7670   -1.6560  118.5860 O.2    54  C54        -0.2443
   1136  N3        74.8560   -0.1170  119.9630 N.ar   54  C54        -0.1739
   1137  C4        74.0320    0.9050  120.1110 C.ar   54  C54         0.1759
   1138  N4        73.9360    1.4210  121.3370 N.pl3  54  C54        -0.1070
   1139  C5        73.2810    1.4280  119.0140 C.ar   54  C54         0.0566
   1140  C6        73.4370    0.8420  117.8120 C.ar   54  C54         0.0850
   1141  OP1       69.1660    1.5440  114.1690 O.2    54  C54        -0.5172
   1142  OP2       70.1160    2.6570  116.2960 O.co2  54  C54        -0.4373
   1143  P         70.7380   -3.8240  116.1870 P.3    55  U55         0.2141
   1144  C5'       72.6320   -5.6050  116.4930 C.3    55  U55         0.1812
   1145  O5'       71.6600   -4.7600  117.0880 O.3    55  U55        -0.3114
   1146  C4'       73.4640   -6.3040  117.5340 C.3    55  U55         0.1773
   1147  O4'       74.2570   -5.3410  118.2760 O.3    55  U55        -0.3307
   1148  C3'       72.6830   -7.0480  118.6020 C.3    55  U55         0.1860
   1149  O3'       72.2830   -8.3250  118.1510 O.3    55  U55        -0.3112
   1150  C2'       73.6630   -7.0950  119.7700 C.3    55  U55         0.2309
   1151  O2'       74.6050   -8.1390  119.5900 O.3    55  U55        -0.2156
   1152  C1'       74.4040   -5.7650  119.6100 C.3    55  U55         0.2420
   1153  N1        73.8990   -4.7040  120.4970 N.ar   55  U55        -0.2534
   1154  C2        74.2150   -4.8150  121.8270 C.ar   55  U55         0.3546
   1155  O2        74.8400   -5.7550  122.2960 O.2    55  U55        -0.2443
   1156  N3        73.7550   -3.7770  122.5960 N.ar   55  U55        -0.1530
   1157  C4        73.0360   -2.6730  122.2040 C.ar   55  U55         0.2846
   1158  O4        72.7110   -1.8500  123.0650 O.2    55  U55        -0.2650
   1159  C5        72.7480   -2.6270  120.8140 C.ar   55  U55         0.0814
   1160  C6        73.1970   -3.6170  120.0240 C.ar   55  U55         0.0870
   1161  OP1       69.9220   -4.7210  115.3240 O.2    55  U55        -0.5172
   1162  OP2       70.1080   -2.8430  117.0820 O.co2  55  U55        -0.4373
   1163  P         70.9170   -8.9900  118.6640 P.3    56  C56         0.2141
   1164  C5'       72.3630  -10.4260  120.3080 C.3    56  C56         0.1812
   1165  O5'       71.2900   -9.5240  120.1150 O.3    56  C56        -0.3114
   1166  C4'       72.7040  -10.5280  121.7680 C.3    56  C56         0.1773
   1167  O4'       73.2460   -9.2710  122.2130 O.3    56  C56        -0.3307
   1168  C3'       71.5360  -10.7920  122.7000 C.3    56  C56         0.1860
   1169  O3'       71.2710  -12.1800  122.7790 O.3    56  C56        -0.3112
   1170  C2'       72.0100  -10.1970  124.0180 C.3    56  C56         0.2309
   1171  O2'       72.8520  -11.1180  124.6890 O.3    56  C56        -0.2156
   1172  C1'       72.8800   -9.0300  123.5450 C.3    56  C56         0.2420
   1173  N1        72.1980   -7.7220  123.6080 N.ar   56  C56        -0.2535
   1174  C2        72.3620   -6.9930  124.7810 C.ar   56  C56         0.3532
   1175  O2        73.0450   -7.4930  125.6820 O.2    56  C56        -0.2443
   1176  N3        71.7720   -5.7820  124.8960 N.ar   56  C56        -0.1739
   1177  C4        71.0590   -5.3020  123.8770 C.ar   56  C56         0.1759
   1178  N4        70.5010   -4.1020  124.0370 N.pl3  56  C56        -0.1070
   1179  C5        70.8840   -6.0220  122.6550 C.ar   56  C56         0.0566
   1180  C6        71.4630   -7.2250  122.5620 C.ar   56  C56         0.0850
   1181  OP1       70.6750  -10.1460  117.7630 O.2    56  C56        -0.5172
   1182  OP2       69.8520   -7.9630  118.8240 O.co2  56  C56        -0.4373
   1183  P         69.9120  -12.7580  123.4220 P.3    57  C57         0.2141
   1184  C5'       71.2580  -13.8660  125.3970 C.3    57  C57         0.1812
   1185  O5'       70.2610  -12.9520  124.9640 O.3    57  C57        -0.3114
   1186  C4'       71.4420  -13.7590  126.8850 C.3    57  C57         0.1773
   1187  O4'       72.6030  -14.5330  127.3070 O.3    57  C57        -0.3307
   1188  C3'       71.6760  -12.3380  127.3930 C.3    57  C57         0.1860
   1189  O3'       71.0910  -12.2160  128.6900 O.3    57  C57        -0.3112
   1190  C2'       73.1970  -12.2870  127.5270 C.3    57  C57         0.2309
   1191  O2'       73.6930  -11.3120  128.4200 O.3    57  C57        -0.2156
   1192  C1'       73.4900  -13.6950  128.0240 C.3    57  C57         0.2420
   1193  N1        74.8880  -14.1230  127.8220 N.ar   57  C57        -0.2535
   1194  C2        75.3070  -14.7140  126.6190 C.ar   57  C57         0.3532
   1195  O2        74.4900  -14.8880  125.7050 O.2    57  C57        -0.2443
   1196  N3        76.6050  -15.0820  126.4540 N.ar   57  C57        -0.1739
   1197  C4        77.4710  -14.8780  127.4500 C.ar   57  C57         0.1759
   1198  N4        78.7370  -15.2630  127.2500 N.pl3  57  C57        -0.1070
   1199  C5        77.0720  -14.2780  128.6900 C.ar   57  C57         0.0566
   1200  C6        75.7870  -13.9130  128.8340 C.ar   57  C57         0.0850
   1201  OP1       69.7440  -14.0750  122.7510 O.2    57  C57        -0.5172
   1202  OP2       68.8070  -11.7640  123.3790 O.co2  57  C57        -0.4373
   1203  P         69.6010  -11.6330  128.8800 P.3    58  C58         0.2141
   1204  C5'       70.7030   -9.2640  128.6420 C.3    58  C58         0.1812
   1205  O5'       69.8700  -10.1500  129.3740 O.3    58  C58        -0.3114
   1206  C4'       70.2240   -7.8500  128.8080 C.3    58  C58         0.1773
   1207  O4'       70.1120   -7.2330  127.5010 O.3    58  C58        -0.3307
   1208  C3'       68.8460   -7.7430  129.4480 C.3    58  C58         0.1860
   1209  O3'       68.7940   -6.5780  130.2460 O.3    58  C58        -0.3112
   1210  C2'       67.9180   -7.5620  128.2550 C.3    58  C58         0.2309
   1211  O2'       66.7210   -6.8840  128.5660 O.3    58  C58        -0.2156
   1212  C1'       68.7980   -6.7560  127.3090 C.3    58  C58         0.2420
   1213  N1        68.4520   -6.9200  125.8910 N.ar   58  C58        -0.2535
   1214  C2        67.8150   -5.8410  125.2940 C.ar   58  C58         0.3532
   1215  O2        67.6020   -4.8480  126.0090 O.2    58  C58        -0.2443
   1216  N3        67.4580   -5.9190  123.9850 N.ar   58  C58        -0.1739
   1217  C4        67.7210   -7.0290  123.2890 C.ar   58  C58         0.1759
   1218  N4        67.3540   -7.0590  122.0060 N.pl3  58  C58        -0.1070
   1219  C5        68.3700   -8.1540  123.8860 C.ar   58  C58         0.0566
   1220  C6        68.7160   -8.0580  125.1820 C.ar   58  C58         0.0850
   1221  OP1       68.9740  -12.3500  130.0160 O.3    58  C58        -0.4373
   1222  OP2       68.8630  -11.5880  127.5900 O.co2  58  C58        -0.5172
   1223  P         68.4530   -6.7080  131.7990 P.3    59  U59         0.2141
   1224  C5'       69.2090   -4.2440  132.2600 C.3    59  U59         0.1812
   1225  O5'       68.1640   -5.2030  132.2090 O.3    59  U59        -0.3114
   1226  C4'       68.7830   -3.0530  133.0680 C.3    59  U59         0.1773
   1227  O4'       67.6670   -2.4160  132.3900 O.3    59  U59        -0.3307
   1228  C3'       68.2890   -3.3990  134.4700 C.3    59  U59         0.1860
   1229  O3'       68.6620   -2.3810  135.3880 O.3    59  U59        -0.3112
   1230  C2'       66.7750   -3.4230  134.3060 C.3    59  U59         0.2309
   1231  O2'       66.0490   -3.1770  135.4880 O.3    59  U59        -0.2156
   1232  C1'       66.5590   -2.3340  133.2640 C.3    59  U59         0.2420
   1233  N1        65.3310   -2.5160  132.4770 N.ar   59  U59        -0.2534
   1234  C2        64.6590   -1.3850  132.0670 C.ar   59  U59         0.3546
   1235  O2        65.0660   -0.2660  132.3190 O.2    59  U59        -0.2443
   1236  N3        63.5100   -1.6150  131.3410 N.ar   59  U59        -0.1530
   1237  C4        62.9680   -2.8450  131.0020 C.ar   59  U59         0.2846
   1238  O4        61.9200   -2.9000  130.3430 O.2    59  U59        -0.2650
   1239  C5        63.7250   -3.9690  131.4760 C.ar   59  U59         0.0814
   1240  C6        64.8490   -3.7700  132.1780 C.ar   59  U59         0.0870
   1241  OP1       69.6780   -7.1400  132.5370 O.3    59  U59        -0.4373
   1242  OP2       67.1780   -7.4820  131.8890 O.co2  59  U59        -0.5172
   1243  P         69.6470   -2.7570  136.5920 P.3    60  G60         0.2141
   1244  C5'       71.7860   -2.2330  135.2150 C.3    60  G60         0.1812
   1245  O5'       70.9720   -3.2040  135.8500 O.3    60  G60        -0.3114
   1246  C4'       72.8400   -2.8700  134.3510 C.3    60  G60         0.1773
   1247  O4'       72.2390   -3.3230  133.0960 O.3    60  G60        -0.3307
   1248  C3'       73.9700   -1.9290  133.9510 C.3    60  G60         0.1860
   1249  O3'       75.1600   -2.6920  133.8000 O.3    60  G60        -0.3112
   1250  C2'       73.5060   -1.4460  132.5870 C.3    60  G60         0.2309
   1251  O2'       74.5010   -0.8850  131.7600 O.3    60  G60        -0.2156
   1252  C1'       72.9410   -2.7350  132.0230 C.3    60  G60         0.2408
   1253  N1        71.8000   -4.5320  127.4960 N.ar   60  G60        -0.1709
   1254  C2        72.6580   -5.0210  128.4410 C.ar   60  G60         0.2606
   1255  N2        73.3010   -6.1470  128.1190 N.pl3  60  G60        -0.0859
   1256  N3        72.8670   -4.4530  129.6130 N.ar   60  G60        -0.1918
   1257  C4        72.1230   -3.3320  129.7480 C.ar   60  G60         0.1723
   1258  C5        71.2330   -2.7520  128.8700 C.ar   60  G60         0.1748
   1259  C6        71.0320   -3.3740  127.6200 C.ar   60  G60         0.3023
   1260  O6        70.2930   -3.0170  126.6920 O.2    60  G60        -0.2633
   1261  N7        70.6760   -1.5960  129.4160 N.ar   60  G60        -0.2173
   1262  C8        71.2270   -1.4980  130.5980 C.ar   60  G60         0.1817
   1263  N9        72.0890   -2.5350  130.8590 N.ar   60  G60        -0.2693
   1264  OP1       69.0880   -3.9350  137.3010 O.2    60  G60        -0.5172
   1265  OP2       70.0080   -1.5170  137.3230 O.co2  60  G60        -0.4373
   1266  P         76.5150   -2.2160  134.5120 P.3    61  A61         0.2141
   1267  C5'       77.9310   -2.6390  132.3330 C.3    61  A61         0.1812
   1268  O5'       77.6640   -2.9580  133.6920 O.3    61  A61        -0.3114
   1269  C4'       78.0840   -3.8880  131.5030 C.3    61  A61         0.1773
   1270  O4'       76.7660   -4.3660  131.1020 O.3    61  A61        -0.3307
   1271  C3'       78.8330   -3.7280  130.1900 C.3    61  A61         0.1860
   1272  O3'       80.2510   -3.7100  130.3200 O.3    61  A61        -0.3112
   1273  C2'       78.2810   -4.8840  129.3700 C.3    61  A61         0.2309
   1274  O2'       78.8080   -6.1190  129.8350 O.3    61  A61        -0.2156
   1275  C1'       76.8080   -4.8310  129.7680 C.3    61  A61         0.2408
   1276  N1        74.5630   -3.6840  125.1530 N.ar   61  A61        -0.2040
   1277  C2        75.2310   -4.7770  125.5640 C.ar   61  A61         0.2016
   1278  N3        75.7870   -5.0260  126.7520 N.ar   61  A61        -0.2048
   1279  C4        75.6160   -3.9940  127.6120 C.ar   61  A61         0.1692
   1280  C5        74.9510   -2.8090  127.3210 C.ar   61  A61         0.1518
   1281  C6        74.4020   -2.6690  126.0350 C.ar   61  A61         0.1919
   1282  N6        73.7410   -1.5850  125.6340 N.pl3  61  A61        -0.1054
   1283  N7        74.9560   -1.9620  128.4130 N.ar   61  A61        -0.2193
   1284  C8        75.6080   -2.6320  129.3280 C.ar   61  A61         0.1816
   1285  N9        76.0410   -3.8760  128.9310 N.ar   61  A61        -0.2693
   1286  OP1       76.5560   -2.8020  135.8750 O.3    61  A61        -0.4373
   1287  OP2       76.6410   -0.7490  134.2710 O.co2  61  A61        -0.5172
   1288  P         81.0930   -2.5450  129.5990 P.3    62  G62         0.2141
   1289  C5'       81.5770   -4.1780  127.6310 C.3    62  G62         0.1812
   1290  O5'       81.0490   -2.9380  128.0570 O.3    62  G62        -0.3114
   1291  C4'       80.9300   -4.6770  126.3640 C.3    62  G62         0.1773
   1292  O4'       79.4910   -4.5050  126.4010 O.3    62  G62        -0.3307
   1293  C3'       81.3200   -3.9880  125.0800 C.3    62  G62         0.1860
   1294  O3'       82.6210   -4.3170  124.6380 O.3    62  G62        -0.3112
   1295  C2'       80.2130   -4.4440  124.1470 C.3    62  G62         0.2309
   1296  O2'       80.4000   -5.8130  123.8170 O.3    62  G62        -0.2156
   1297  C1'       79.0060   -4.3640  125.0780 C.3    62  G62         0.2408
   1298  N1        76.2340   -1.4420  121.9930 N.ar   62  G62        -0.1709
   1299  C2        76.8120   -2.6610  121.7680 C.ar   62  G62         0.2606
   1300  N2        76.6220   -3.1930  120.5560 N.pl3  62  G62        -0.0859
   1301  N3        77.5080   -3.3180  122.6630 N.ar   62  G62        -0.1918
   1302  C4        77.6030   -2.6520  123.8300 C.ar   62  G62         0.1723
   1303  C5        77.0760   -1.4250  124.1570 C.ar   62  G62         0.1748
   1304  C6        76.3170   -0.7320  123.1740 C.ar   62  G62         0.3023
   1305  O6        75.7450    0.3590  123.2360 O.2    62  G62        -0.2633
   1306  N7        77.4080   -1.0920  125.4650 N.ar   62  G62        -0.2173
   1307  C8        78.1090   -2.1040  125.8990 C.ar   62  G62         0.1817
   1308  N9        78.2750   -3.0850  124.9490 N.ar   62  G62        -0.2693
   1309  OP1       82.4990   -2.6260  130.0640 O.3    62  G62        -0.4373
   1310  OP2       80.3400   -1.2720  129.7050 O.co2  62  G62        -0.5172
   1311  P         83.4540   -3.2420  123.7880 P.3    63  A63         0.2141
   1312  C5'       82.8710   -4.5740  121.5930 C.3    63  A63         0.1812
   1313  O5'       82.8510   -3.3620  122.3220 O.3    63  A63        -0.3114
   1314  C4'       82.2470   -4.3660  120.2410 C.3    63  A63         0.1773
   1315  O4'       80.8370   -4.0710  120.3980 O.3    63  A63        -0.3307
   1316  C3'       82.7810   -3.1660  119.4850 C.3    63  A63         0.1860
   1317  O3'       83.9920   -3.4360  118.8160 O.3    63  A63        -0.3112
   1318  C2'       81.6330   -2.8160  118.5530 C.3    63  A63         0.2309
   1319  O2'       81.5990   -3.7050  117.4550 O.3    63  A63        -0.2156
   1320  C1'       80.4310   -3.1170  119.4330 C.3    63  A63         0.2408
   1321  N1        77.8760    1.3490  118.9890 N.ar   63  A63        -0.2040
   1322  C2        78.2100    0.4140  118.0970 C.ar   63  A63         0.2016
   1323  N3        78.8770   -0.7220  118.2790 N.ar   63  A63        -0.2048
   1324  C4        79.2330   -0.8670  119.5640 C.ar   63  A63         0.1692
   1325  C5        78.9650    0.0100  120.5900 C.ar   63  A63         0.1518
   1326  C6        78.2460    1.1730  120.2700 C.ar   63  A63         0.1919
   1327  N6        77.9150    2.1030  121.1580 N.pl3  63  A63        -0.1054
   1328  N7        79.4820   -0.4710  121.7860 N.ar   63  A63        -0.2193
   1329  C8        80.0430   -1.6110  121.4620 C.ar   63  A63         0.1816
   1330  N9        79.9300   -1.9130  120.1290 N.ar   63  A63        -0.2693
   1331  OP1       84.9000   -3.5870  123.7540 O.2    63  A63        -0.5172
   1332  OP2       83.0290   -1.9090  124.2730 O.co2  63  A63        -0.4373
   1333  P         85.0550   -2.2480  118.6420 P.3    64  C64         0.2141
   1334  C5'       84.1070   -1.9480  116.2350 C.3    64  C64         0.1812
   1335  O5'       84.4500   -1.3650  117.4740 O.3    64  C64        -0.3114
   1336  C4'       83.3290   -0.9800  115.3930 C.3    64  C64         0.1773
   1337  O4'       82.0460   -0.7010  116.0000 O.3    64  C64        -0.3307
   1338  C3'       83.9510    0.3920  115.2120 C.3    64  C64         0.1860
   1339  O3'       84.9710    0.3820  114.2290 O.3    64  C64        -0.3112
   1340  C2'       82.7480    1.2270  114.8130 C.3    64  C64         0.2309
   1341  O2'       82.4020    0.9470  113.4660 O.3    64  C64        -0.2156
   1342  C1'       81.6560    0.6200  115.6970 C.3    64  C64         0.2420
   1343  N1        81.4460    1.3750  116.9600 N.ar   64  C64        -0.2535
   1344  C2        80.6400    2.5110  116.9080 C.ar   64  C64         0.3532
   1345  O2        80.1450    2.8510  115.8280 O.2    64  C64        -0.2443
   1346  N3        80.4150    3.2330  118.0170 N.ar   64  C64        -0.1739
   1347  C4        80.9550    2.8530  119.1660 C.ar   64  C64         0.1759
   1348  N4        80.6860    3.6080  120.2260 N.pl3  64  C64        -0.1070
   1349  C5        81.7850    1.6950  119.2660 C.ar   64  C64         0.0566
   1350  C6        82.0050    0.9960  118.1420 C.ar   64  C64         0.0850
   1351  OP1       86.3150   -2.8160  118.1070 O.2    64  C64        -0.5172
   1352  OP2       84.9600   -1.4230  119.8690 O.co2  64  C64        -0.4373
   1353  P         86.3080    1.2620  114.3970 P.3    65  A65         0.2141
   1354  C5'       85.1810    3.1830  113.0510 C.3    65  A65         0.1812
   1355  O5'       85.8110    2.7620  114.2460 O.3    65  A65        -0.3114
   1356  C4'       85.3550    4.6610  112.8550 C.3    65  A65         0.1773
   1357  O4'       84.8560    5.3670  114.0150 O.3    65  A65        -0.3307
   1358  C3'       86.7950    5.1140  112.7050 C.3    65  A65         0.1860
   1359  O3'       87.1570    5.0560  111.3390 O.3    65  A65        -0.3112
   1360  C2'       86.7670    6.5340  113.2340 C.3    65  A65         0.2309
   1361  O2'       86.3080    7.3910  112.2030 O.3    65  A65        -0.2156
   1362  C1'       85.6830    6.4580  114.3140 C.3    65  A65         0.2408
   1363  N1        85.3810    8.1910  119.0770 N.ar   65  A65        -0.2040
   1364  C2        84.8280    8.5930  117.9280 C.ar   65  A65         0.2016
   1365  N3        84.9740    8.0820  116.7130 N.ar   65  A65        -0.2048
   1366  C4        85.7980    7.0160  116.7520 C.ar   65  A65         0.1692
   1367  C5        86.4280    6.4780  117.8520 C.ar   65  A65         0.1518
   1368  C6        86.1950    7.1200  119.0800 C.ar   65  A65         0.1919
   1369  N6        86.7200    6.7470  120.2500 N.pl3  65  A65        -0.1054
   1370  N7        87.1960    5.3840  117.4790 N.ar   65  A65        -0.2193
   1371  C8        87.0080    5.2760  116.1910 C.ar   65  A65         0.1816
   1372  N9        86.1870    6.2520  115.6840 N.ar   65  A65        -0.2693
   1373  OP1       87.1230    0.9840  113.1920 O.2    65  A65        -0.5172
   1374  OP2       86.8380    1.1260  115.7810 O.co2  65  A65        -0.4373
   1375  P         88.6720    5.1850  110.8150 P.3    66  G66         0.2141
   1376  C5'       87.7690    6.8550  109.0040 C.3    66  G66         0.1812
   1377  O5'       88.4940    5.6710  109.3060 O.3    66  G66        -0.3114
   1378  C4'       86.6250    6.5860  108.0550 C.3    66  G66         0.1773
   1379  O4'       87.1430    6.2250  106.7460 O.3    66  G66        -0.3307
   1380  C3'       85.7020    5.4510  108.4730 C.3    66  G66         0.1860
   1381  O3'       84.3770    5.7510  108.0550 O.3    66  G66        -0.3112
   1382  C2'       86.2350    4.2640  107.6790 C.3    66  G66         0.2309
   1383  O2'       85.2880    3.2520  107.4340 O.3    66  G66        -0.2156
   1384  C1'       86.6890    4.9310  106.3850 C.3    66  G66         0.2408
   1385  N1        88.2540    2.6010  102.1580 N.ar   66  G66        -0.1709
   1386  C2        87.0410    3.1620  102.4370 C.ar   66  G66         0.2606
   1387  N2        86.1310    3.1010  101.4530 N.pl3  66  G66        -0.0859
   1388  N3        86.7460    3.7410  103.5900 N.ar   66  G66        -0.1918
   1389  C4        87.7840    3.7150  104.4490 C.ar   66  G66         0.1723
   1390  C5        89.0420    3.1830  104.2580 C.ar   66  G66         0.1748
   1391  C6        89.3440    2.5690  103.0130 C.ar   66  G66         0.3023
   1392  O6        90.3900    2.0370  102.6290 O.2    66  G66        -0.2633
   1393  N7        89.8220    3.3540  105.3870 N.ar   66  G66        -0.2173
   1394  C8        89.0480    3.9880  106.2260 C.ar   66  G66         0.1817
   1395  N9        87.7920    4.2360  105.7210 N.ar   66  G66        -0.2693
   1396  OP1       89.2260    3.8030  110.7390 O.2    66  G66        -0.5172
   1397  OP2       89.3880    6.2540  111.5300 O.co2  66  G66        -0.4373
   1398  P         83.2810    6.2000  109.1400 P.3    67  C67         0.2141
   1399  C5'       81.5270    7.5380  107.7220 C.3    67  C67         0.1812
   1400  O5'       82.6860    7.5460  108.5350 O.3    67  C67        -0.3114
   1401  C4'       80.4500    8.4070  108.3190 C.3    67  C67         0.1773
   1402  O4'       79.8010    7.6900  109.4000 O.3    67  C67        -0.3307
   1403  C3'       80.9140    9.6930  108.9780 C.3    67  C67         0.1860
   1404  O3'       81.2520   10.7300  108.0670 O.3    67  C67        -0.3112
   1405  C2'       79.7510   10.0070  109.9170 C.3    67  C67         0.2309
   1406  O2'       78.6430   10.5460  109.2090 O.3    67  C67        -0.2156
   1407  C1'       79.3660    8.6030  110.3840 C.3    67  C67         0.2420
   1408  N1        79.9980    8.2530  111.6730 N.ar   67  C67        -0.2535
   1409  C2        79.4470    8.8020  112.8230 C.ar   67  C67         0.3532
   1410  O2        78.4610    9.5420  112.6960 O.2    67  C67        -0.2443
   1411  N3        79.9900    8.5130  114.0240 N.ar   67  C67        -0.1739
   1412  C4        81.0480    7.7200  114.1030 C.ar   67  C67         0.1759
   1413  N4        81.5580    7.4700  115.3150 N.pl3  67  C67        -0.1070
   1414  C5        81.6280    7.1460  112.9340 C.ar   67  C67         0.0566
   1415  C6        81.0780    7.4330  111.7510 C.ar   67  C67         0.0850
   1416  OP1       83.9680    6.6290  110.3920 O.3    67  C67        -0.4373
   1417  OP2       82.2750    5.1100  109.1480 O.co2  67  C67        -0.5172
   1418  P         82.5070   11.7070  108.3720 P.3    68  C68         0.2141
   1419  C5'       80.6360   13.4030  108.9690 C.3    68  C68         0.1812
   1420  O5'       81.8840   12.8260  109.3100 O.3    68  C68        -0.3114
   1421  C4'       80.0530   14.1500  110.1300 C.3    68  C68         0.1773
   1422  O4'       79.5260   13.2200  111.1160 O.3    68  C68        -0.3307
   1423  C3'       81.0530   14.9560  110.9210 C.3    68  C68         0.1860
   1424  O3'       81.4600   16.1540  110.2880 O.3    68  C68        -0.3112
   1425  C2'       80.3370   15.1350  112.2530 C.3    68  C68         0.2309
   1426  O2'       79.2940   16.0890  112.1500 O.3    68  C68        -0.2156
   1427  C1'       79.7020   13.7630  112.4160 C.3    68  C68         0.2420
   1428  N1        80.5640   12.8650  113.2140 N.ar   68  C68        -0.2535
   1429  C2        80.5500   13.0550  114.6010 C.ar   68  C68         0.3532
   1430  O2        79.8350   13.9590  115.0620 O.2    68  C68        -0.2443
   1431  N3        81.3030   12.2660  115.4000 N.ar   68  C68        -0.1739
   1432  C4        82.0670   11.3180  114.8510 C.ar   68  C68         0.1759
   1433  N4        82.7950   10.5650  115.6780 N.pl3  68  C68        -0.1070
   1434  C5        82.1000   11.0990  113.4380 C.ar   68  C68         0.0566
   1435  C6        81.3420   11.8900  112.6530 C.ar   68  C68         0.0850
   1436  OP1       82.8440   12.4130  107.1130 O.2    68  C68        -0.5172
   1437  OP2       83.5380   10.9480  109.1470 O.co2  68  C68        -0.4373
   1438  P         82.8480   16.8290  110.7340 P.3    69  G69         0.2141
   1439  C5'       82.7850   18.2500  112.9520 C.3    69  G69         0.1812
   1440  O5'       82.6830   17.0040  112.3100 O.3    69  G69        -0.3114
   1441  C4'       82.7680   18.0970  114.4510 C.3    69  G69         0.1773
   1442  O4'       82.2520   16.7880  114.8240 O.3    69  G69        -0.3307
   1443  C3'       84.1150   18.1430  115.1250 C.3    69  G69         0.1860
   1444  O3'       84.6250   19.4550  115.2550 O.3    69  G69        -0.3112
   1445  C2'       83.8440   17.4490  116.4470 C.3    69  G69         0.2309
   1446  O2'       83.1530   18.3080  117.3360 O.3    69  G69        -0.2156
   1447  C1'       82.8990   16.3420  115.9970 C.3    69  G69         0.2408
   1448  N1        85.9270   12.8230  118.0080 N.ar   69  G69        -0.1709
   1449  C2        85.3060   13.9170  118.5850 C.ar   69  G69         0.2606
   1450  N2        85.5120   14.1360  119.8890 N.pl3  69  G69        -0.0859
   1451  N3        84.5330   14.7510  117.9240 N.ar   69  G69        -0.1918
   1452  C4        84.4130   14.4290  116.6210 C.ar   69  G69         0.1723
   1453  C5        84.9720   13.3680  115.9460 C.ar   69  G69         0.1748
   1454  C6        85.8080   12.4680  116.6640 C.ar   69  G69         0.3023
   1455  O6        86.3930   11.4630  116.2360 O.2    69  G69        -0.2633
   1456  N7        84.5810   13.3760  114.6060 N.ar   69  G69        -0.2173
   1457  C8        83.8140   14.4420  114.5110 C.ar   69  G69         0.1817
   1458  N9        83.6620   15.1130  115.7000 N.ar   69  G69        -0.2693
   1459  OP1       82.9490   18.1450  110.0550 O.2    69  G69        -0.5172
   1460  OP2       83.9390   15.8450  110.5920 O.co2  69  G69        -0.4373
   1461  P         86.1550   19.7280  114.8740 P.3    70  G70         0.2141
   1462  C5'       86.5310   19.5360  117.4360 C.3    70  G70         0.1812
   1463  O5'       86.9440   19.1650  116.1360 O.3    70  G70        -0.3114
   1464  C4'       87.2560   18.7440  118.4760 C.3    70  G70         0.1773
   1465  O4'       86.7790   17.3780  118.4730 O.3    70  G70        -0.3307
   1466  C3'       88.7470   18.5970  118.2690 C.3    70  G70         0.1860
   1467  O3'       89.4750   19.7430  118.6460 O.3    70  G70        -0.3112
   1468  C2'       89.0650   17.3760  119.1120 C.3    70  G70         0.2309
   1469  O2'       89.0780   17.7290  120.4800 O.3    70  G70        -0.2156
   1470  C1'       87.8340   16.5080  118.8330 C.3    70  G70         0.2408
   1471  N1        90.3860   12.4080  117.3150 N.ar   70  G70        -0.1709
   1472  C2        90.3570   13.0290  118.5360 C.ar   70  G70         0.2606
   1473  N2        91.1210   12.4890  119.4950 N.pl3  70  G70        -0.0859
   1474  N3        89.6370   14.1010  118.8010 N.ar   70  G70        -0.1918
   1475  C4        88.9340   14.5110  117.7310 C.ar   70  G70         0.1723
   1476  C5        88.8870   13.9730  116.4730 C.ar   70  G70         0.1748
   1477  C6        89.6690   12.8150  116.2030 C.ar   70  G70         0.3023
   1478  O6        89.7800   12.1790  115.1440 O.2    70  G70        -0.2633
   1479  N7        88.0260   14.7170  115.6680 N.ar   70  G70        -0.2173
   1480  C8        87.5800   15.6720  116.4390 C.ar   70  G70         0.1817
   1481  N9        88.0870   15.5950  117.7040 N.ar   70  G70        -0.2693
   1482  OP1       86.3900   21.1920  114.7760 O.3    70  G70        -0.4373
   1483  OP2       86.4370   18.8510  113.7300 O.co2  70  G70        -0.5172
   1484  P         90.8760   20.0620  117.9310 P.3    71  G71         0.2141
   1485  C5'       92.1370   19.1840  120.0540 C.3    71  G71         0.1812
   1486  O5'       91.9130   19.0950  118.6590 O.3    71  G71        -0.3114
   1487  C4'       93.1620   18.1790  120.5120 C.3    71  G71         0.1773
   1488  O4'       92.6260   16.8290  120.4180 O.3    71  G71        -0.3307
   1489  C3'       94.4280   18.1170  119.6930 C.3    71  G71         0.1860
   1490  O3'       95.3200   19.1700  119.9920 O.3    71  G71        -0.3112
   1491  C2'       94.9580   16.7290  120.0270 C.3    71  G71         0.2309
   1492  O2'       95.5390   16.7040  121.3170 O.3    71  G71        -0.2156
   1493  C1'       93.6600   15.9270  120.0740 C.3    71  G71         0.2408
   1494  N1        94.7880   12.3570  116.5940 N.ar   71  G71        -0.1709
   1495  C2        95.3250   12.5570  117.8510 C.ar   71  G71         0.2606
   1496  N2        96.2870   11.7170  118.2520 N.pl3  71  G71        -0.0859
   1497  N3        94.9370   13.5110  118.6660 N.ar   71  G71        -0.1918
   1498  C4        93.9670   14.2790  118.1460 C.ar   71  G71         0.1723
   1499  C5        93.3780   14.1760  116.9160 C.ar   71  G71         0.1748
   1500  C6        93.7870   13.1440  116.0480 C.ar   71  G71         0.3023
   1501  O6        93.3620   12.9070  114.9270 O.2    71  G71        -0.2633
   1502  N7        92.4220   15.1600  116.7390 N.ar   71  G71        -0.2173
   1503  C8        92.4450   15.8440  117.8480 C.ar   71  G71         0.1817
   1504  N9        93.3630   15.3580  118.7460 N.ar   71  G71        -0.2693
   1505  OP1       91.2230   21.4630  118.2490 O.3    71  G71        -0.4373
   1506  OP2       90.7850   19.6300  116.5240 O.co2  71  G71        -0.5172
   1507  P         96.2740   19.7720  118.8600 P.3    72  C72         0.2141
   1508  C5'       98.1800   18.1370  119.5550 C.3    72  C72         0.1812
   1509  O5'       97.2970   18.5970  118.5420 O.3    72  C72        -0.3114
   1510  C4'       98.9100   16.8900  119.1370 C.3    72  C72         0.1773
   1511  O4'       97.9810   15.7980  118.8920 O.3    72  C72        -0.3307
   1512  C3'       99.6890   16.9790  117.8450 C.3    72  C72         0.1860
   1513  O3'      100.9030   17.6740  118.0010 O.3    72  C72        -0.3112
   1514  C2'       99.8740   15.5170  117.5000 C.3    72  C72         0.2309
   1515  O2'      100.8490   14.9470  118.3570 O.3    72  C72        -0.2156
   1516  C1'       98.5060   14.9560  117.8800 C.3    72  C72         0.2420
   1517  N1        97.6050   14.9870  116.7090 N.ar   72  C72        -0.2535
   1518  C2        97.7180   13.9890  115.7390 C.ar   72  C72         0.3532
   1519  O2        98.5300   13.0660  115.8880 O.2    72  C72        -0.2443
   1520  N3        96.9150   14.0360  114.6620 N.ar   72  C72        -0.1739
   1521  C4        96.0410   15.0260  114.5300 C.ar   72  C72         0.1759
   1522  N4        95.2630   15.0490  113.4520 N.pl3  72  C72        -0.1070
   1523  C5        95.9220   16.0630  115.4870 C.ar   72  C72         0.0566
   1524  C6        96.7180   16.0050  116.5490 C.ar   72  C72         0.0850
   1525  OP1       97.0690   20.8570  119.5250 O.3    72  C72        -0.4373
   1526  OP2       95.4810   20.0450  117.6360 O.co2  72  C72        -0.5172
   1527  P        101.5520   18.4600  116.7730 P.3    73  U73         0.2141
   1528  C5'      103.0680   16.3400  116.4790 C.3    73  U73         0.1812
   1529  O5'      102.1930   17.2970  115.8970 O.3    73  U73        -0.3114
   1530  C4'      103.2980   15.1720  115.5530 C.3    73  U73         0.1773
   1531  O4'      102.0570   14.4470  115.3470 O.3    73  U73        -0.3307
   1532  C3'      103.7480   15.5160  114.1440 C.3    73  U73         0.1860
   1533  O3'      105.1250   15.8200  114.0410 O.3    73  U73        -0.3112
   1534  C2'      103.3490   14.2760  113.3710 C.3    73  U73         0.2309
   1535  O2'      104.2570   13.2210  113.6480 O.3    73  U73        -0.2156
   1536  C1'      102.0150   13.9420  114.0300 C.3    73  U73         0.2420
   1537  N1       100.8720   14.5670  113.3280 N.ar   73  U73        -0.2534
   1538  C2       100.4240   13.9690  112.1580 C.ar   73  U73         0.3546
   1539  O2       100.9550   12.9810  111.6780 O.2    73  U73        -0.2443
   1540  N3        99.3370   14.5660  111.5670 N.ar   73  U73        -0.1530
   1541  C4        98.6770   15.6820  112.0260 C.ar   73  U73         0.2846
   1542  O4        97.7270   16.1200  111.3850 O.2    73  U73        -0.2650
   1543  C5        99.1920   16.2400  113.2400 C.ar   73  U73         0.0814
   1544  C6       100.2470   15.6760  113.8410 C.ar   73  U73         0.0870
   1545  OP1      102.6000   19.3100  117.3900 O.3    73  U73        -0.4373
   1546  OP2      100.5240   19.1600  115.9690 O.co2  73  U73        -0.5172
   1547  P        105.6090   16.8850  112.9480 P.3    74  G74         0.2141
   1548  C5'      106.3060   14.8970  111.3910 C.3    74  G74         0.1812
   1549  O5'      105.5460   16.0810  111.5700 O.3    74  G74        -0.3114
   1550  C4'      105.9100   14.1560  110.1410 C.3    74  G74         0.1773
   1551  O4'      104.5330   13.6990  110.2460 O.3    74  G74        -0.3307
   1552  C3'      105.9260   14.9360  108.8390 C.3    74  G74         0.1860
   1553  O3'      107.2270   15.1420  108.2990 O.3    74  G74        -0.3112
   1554  C2'      105.0310   14.0830  107.9580 C.3    74  G74         0.2309
   1555  O2'      105.7260   12.9160  107.5280 O.3    74  G74        -0.2156
   1556  C1'      103.9510   13.6570  108.9600 C.3    74  G74         0.2408
   1557  N1        99.7640   15.1350  106.4550 N.ar   74  G74        -0.1709
   1558  C2       100.6630   14.1550  106.1340 C.ar   74  G74         0.2606
   1559  N2       100.4020   13.4950  104.9970 N.pl3  74  G74        -0.0859
   1560  N3       101.7250   13.8510  106.8620 N.ar   74  G74        -0.1918
   1561  C4       101.8110   14.6260  107.9660 C.ar   74  G74         0.1723
   1562  C5       100.9630   15.6290  108.3740 C.ar   74  G74         0.1748
   1563  C6        99.8310   15.9400  107.5810 C.ar   74  G74         0.3023
   1564  O6        98.9610   16.7930  107.7790 O.2    74  G74        -0.2633
   1565  N7       101.3920   16.1850  109.5640 N.ar   74  G74        -0.2173
   1566  C8       102.4800   15.5270  109.8610 C.ar   74  G74         0.1817
   1567  N9       102.7910   14.5650  108.9370 N.ar   74  G74        -0.2693
   1568  OP1      107.0200   17.2450  113.2770 O.3    74  G74        -0.4373
   1569  OP2      104.5850   17.9600  112.8280 O.co2  74  G74        -0.5172
   1570  P        107.4480   16.2570  107.1630 P.3    75  C75         0.2141
   1571  C5'      107.9410   14.2580  105.5470 C.3    75  C75         0.1812
   1572  O5'      107.2590   15.4710  105.7980 O.3    75  C75        -0.3114
   1573  C4'      107.5420   13.6970  104.2080 C.3    75  C75         0.1773
   1574  O4'      106.1540   13.2890  104.2460 O.3    75  C75        -0.3307
   1575  C3'      107.6050   14.6610  103.0390 C.3    75  C75         0.1860
   1576  O3'      108.9170   14.8310  102.5340 O.3    75  C75        -0.3112
   1577  C2'      106.6390   14.0340  102.0460 C.3    75  C75         0.2309
   1578  O2'      107.2290   12.9180  101.3880 O.3    75  C75        -0.2156
   1579  C1'      105.5600   13.4990  102.9810 C.3    75  C75         0.2420
   1580  N1       104.4070   14.4190  103.1290 N.ar   75  C75        -0.2535
   1581  C2       103.5480   14.5890  102.0400 C.ar   75  C75         0.3532
   1582  O2       103.7870   13.9840  100.9850 O.2    75  C75        -0.2443
   1583  N3       102.4760   15.4030  102.1610 N.ar   75  C75        -0.1739
   1584  C4       102.2330   16.0400  103.3010 C.ar   75  C75         0.1759
   1585  N4       101.1550   16.8290  103.3490 N.pl3  75  C75        -0.1070
   1586  C5       103.0970   15.8950  104.4240 C.ar   75  C75         0.0566
   1587  C6       104.1540   15.0800  104.2960 C.ar   75  C75         0.0850
   1588  OP1      108.8350   16.7770  107.2360 O.3    75  C75        -0.4373
   1589  OP2      106.3160   17.2070  107.1870 O.co2  75  C75        -0.5172
   1590  P        109.3450   16.1960  101.8090 P.3    76  C76         0.2141
   1591  C5'      108.8650   15.1450   99.4660 C.3    76  C76         0.1812
   1592  O5'      108.5830   16.1480  100.4230 O.3    76  C76        -0.3114
   1593  C4'      108.1170   15.4560   98.2080 C.3    76  C76         0.1773
   1594  O4'      106.7010   15.3260   98.4680 O.3    76  C76        -0.3307
   1595  C3'      108.2710   16.8860   97.7250 C.3    76  C76         0.1860
   1596  O3'      109.4550   17.0680   96.9690 O.3    76  C76        -0.3112
   1597  C2'      106.9910   17.1160   96.9320 C.3    76  C76         0.2309
   1598  O2'      107.0980   16.5130   95.6540 O.3    76  C76        -0.2156
   1599  C1'      105.9850   16.2980   97.7340 C.3    76  C76         0.2420
   1600  N1       105.1440   17.0810   98.6630 N.ar   76  C76        -0.2535
   1601  C2       103.9920   17.6940   98.1620 C.ar   76  C76         0.3532
   1602  O2       103.7470   17.6120   96.9580 O.2    76  C76        -0.2443
   1603  N3       103.1790   18.3740   98.9950 N.ar   76  C76        -0.1739
   1604  C4       103.4890   18.4330  100.2950 C.ar   76  C76         0.1759
   1605  N4       102.6620   19.1020  101.0920 N.pl3  76  C76        -0.1070
   1606  C5       104.6480   17.8080  100.8460 C.ar   76  C76         0.0566
   1607  C6       105.4440   17.1410   99.9990 C.ar   76  C76         0.0850
   1608  OP1      110.7930   16.0700  101.5000 O.2    76  C76        -0.5172
   1609  OP2      108.8190   17.3810  102.5340 O.co2  76  C76        -0.4373
   1610  P        110.1900   18.4970   96.9030 P.3    77  G77         0.2141
   1611  C5'      109.2640   18.8810   94.4990 C.3    77  G77         0.1812
   1612  O5'      109.3330   19.3210   95.8470 O.3    77  G77        -0.3114
   1613  C4'      108.0990   19.4940   93.7760 C.3    77  G77         0.1773
   1614  O4'      106.9210   19.4380   94.6290 O.3    77  G77        -0.3307
   1615  C3'      108.2840   20.9600   93.4130 C.3    77  G77         0.1860
   1616  O3'      107.5410   21.2340   92.2310 O.3    77  G77        -0.3112
   1617  C2'      107.6040   21.6690   94.5680 C.3    77  G77         0.2309
   1618  O2'      107.1890   22.9850   94.2740 O.3    77  G77        -0.2156
   1619  C1'      106.4180   20.7430   94.8150 C.3    77  G77         0.2408
   1620  N1       102.3190   21.9900   97.5800 N.ar   77  G77        -0.1709
   1621  C2       102.4480   21.8940   96.2250 C.ar   77  G77         0.2606
   1622  N2       101.3560   22.1830   95.5020 N.pl3  77  G77        -0.0859
   1623  N3       103.5670   21.5380   95.6170 N.ar   77  G77        -0.1918
   1624  C4       104.5740   21.2830   96.4790 C.ar   77  G77         0.1723
   1625  C5       104.5480   21.3530   97.8500 C.ar   77  G77         0.1748
   1626  C6       103.3420   21.7310   98.4880 C.ar   77  G77         0.3023
   1627  O6       103.1380   21.8480   99.6980 O.2    77  G77        -0.2633
   1628  N7       105.7840   21.0210   98.3790 N.ar   77  G77        -0.2173
   1629  C8       106.5390   20.7740   97.3390 C.ar   77  G77         0.1817
   1630  N9       105.8620   20.8950   96.1610 N.ar   77  G77        -0.2693
   1631  OP1      111.5000   18.1990   96.2920 O.2    77  G77        -0.5172
   1632  OP2      110.1340   19.1900   98.2190 O.co2  77  G77        -0.4373
   1633  P        108.2790   21.3720   90.8140 P.3    78  A78         0.2141
   1634  C5'      106.1730   22.4610   89.6750 C.3    78  A78         0.1812
   1635  O5'      107.0730   21.3680   89.7710 O.3    78  A78        -0.3114
   1636  C4'      105.0100   22.1150   88.7820 C.3    78  A78         0.1773
   1637  O4'      104.2090   21.0820   89.4050 O.3    78  A78        -0.3307
   1638  C3'      104.0240   23.2380   88.4960 C.3    78  A78         0.1860
   1639  O3'      104.4630   24.0730   87.4360 O.3    78  A78        -0.3112
   1640  C2'      102.7360   22.4920   88.1710 C.3    78  A78         0.2309
   1641  O2'      102.7380   22.0720   86.8130 O.3    78  A78        -0.2156
   1642  C1'      102.8470   21.2580   89.0750 C.3    78  A78         0.2408
   1643  N1        98.1790   21.6650   91.2990 N.ar   78  A78        -0.2040
   1644  C2        98.5570   21.5710   90.0150 C.ar   78  A78         0.2016
   1645  N3        99.7760   21.4670   89.4930 N.ar   78  A78        -0.2048
   1646  C4       100.7070   21.4660   90.4650 C.ar   78  A78         0.1692
   1647  C5       100.4790   21.5590   91.8320 C.ar   78  A78         0.1518
   1648  C6        99.1410   21.6550   92.2510 C.ar   78  A78         0.1919
   1649  N6        98.7960   21.7500   93.5370 N.pl3  78  A78        -0.1054
   1650  N7       101.6680   21.5320   92.5470 N.ar   78  A78        -0.2193
   1651  C8       102.5730   21.4210   91.6100 C.ar   78  A78         0.1816
   1652  N9       102.0720   21.3850   90.3290 N.ar   78  A78        -0.2693
   1653  OP1      109.0650   20.1290   90.5840 O.2    78  A78        -0.5172
   1654  OP2      108.9530   22.7040   90.8040 O.co2  78  A78        -0.4373
   1655  P        104.3720   25.6720   87.5620 P.3    79  A79         0.2141
   1656  C5'      102.1220   25.4440   86.2010 C.3    79  A79         0.1812
   1657  O5'      102.8410   26.0110   87.2900 O.3    79  A79        -0.3114
   1658  C4'      100.6370   25.5970   86.4230 C.3    79  A79         0.1773
   1659  O4'      100.1670   24.5640   87.3300 O.3    79  A79        -0.3307
   1660  C3'      100.2350   26.8950   87.1070 C.3    79  A79         0.1860
   1661  O3'      100.1700   28.0020   86.2300 O.3    79  A79        -0.3112
   1662  C2'       98.9150   26.5370   87.7770 C.3    79  A79         0.2309
   1663  O2'       97.8440   26.5650   86.8450 O.3    79  A79        -0.2156
   1664  C1'       99.1760   25.0900   88.1940 C.3    79  A79         0.2408
   1665  N1        97.8370   24.7930   93.1340 N.ar   79  A79        -0.2040
   1666  C2        97.1230   24.8710   92.0060 C.ar   79  A79         0.2016
   1667  N3        97.5450   24.9470   90.7470 N.ar   79  A79        -0.2048
   1668  C4        98.8850   24.9380   90.7010 C.ar   79  A79         0.1692
   1669  C5        99.7570   24.8570   91.7710 C.ar   79  A79         0.1518
   1670  C6        99.1870   24.7810   93.0450 C.ar   79  A79         0.1919
   1671  N6        99.9000   24.6950   94.1670 N.pl3  79  A79        -0.1054
   1672  N7       101.0720   24.8670   91.3390 N.ar   79  A79        -0.2193
   1673  C8       100.9670   24.9560   90.0340 C.ar   79  A79         0.1816
   1674  N9        99.6690   24.9970   89.5810 N.ar   79  A79        -0.2693
   1675  OP1      105.1810   26.2840   86.4810 O.2    79  A79        -0.5172
   1676  OP2      104.6590   26.0440   88.9730 O.co2  79  A79        -0.4373
   1677  P        100.2800   29.4860   86.8320 P.3    80  A80         0.2141
   1678  C5'       98.6110   30.5730   88.5230 C.3    80  A80         0.1812
   1679  O5'       98.8160   29.7490   87.3930 O.3    80  A80        -0.3114
   1680  C4'       97.3120   30.2440   89.2040 C.3    80  A80         0.1773
   1681  O4'       97.3860   28.9280   89.8100 O.3    80  A80        -0.3307
   1682  C3'       96.9430   31.1500   90.3630 C.3    80  A80         0.1860
   1683  O3'       96.4090   32.3960   89.9570 O.3    80  A80        -0.3112
   1684  C2'       95.9810   30.2870   91.1580 C.3    80  A80         0.2309
   1685  O2'       94.7100   30.2480   90.5300 O.3    80  A80        -0.2156
   1686  C1'       96.6330   28.9140   91.0090 C.3    80  A80         0.2408
   1687  N1       101.3780   27.7570   92.8730 N.ar   80  A80        -0.2040
   1688  C2       100.9430   27.9840   91.6210 C.ar   80  A80         0.2016
   1689  N3        99.7190   28.2720   91.1730 N.ar   80  A80        -0.2048
   1690  C4        98.8620   28.3430   92.1980 C.ar   80  A80         0.1692
   1691  C5        99.1580   28.1290   93.5400 C.ar   80  A80         0.1518
   1692  C6       100.4800   27.8260   93.8820 C.ar   80  A80         0.1919
   1693  N6       100.8640   27.6080   95.1460 N.pl3  80  A80        -0.1054
   1694  N7        98.0400   28.2650   94.3410 N.ar   80  A80        -0.2193
   1695  C8        97.1000   28.5490   93.4720 C.ar   80  A80         0.1816
   1696  N9        97.5120   28.6030   92.1570 N.ar   80  A80        -0.2693
   1697  OP1      100.5430   30.4210   85.7100 O.2    80  A80        -0.5172
   1698  OP2      101.2210   29.4560   87.9840 O.co2  80  A80        -0.4373
   1699  P         97.1210   33.7460   90.4570 P.3    81  U81         0.2141
   1700  C5'       95.7070   33.6360   92.6690 C.3    81  U81         0.1812
   1701  O5'       96.9880   33.6600   92.0490 O.3    81  U81        -0.3114
   1702  C4'       95.8010   33.2990   94.1360 C.3    81  U81         0.1773
   1703  O4'       96.5040   32.0500   94.2880 O.3    81  U81        -0.3307
   1704  C3'       96.5730   34.2900   94.9940 C.3    81  U81         0.1860
   1705  O3'       95.7280   35.3130   95.4800 O.3    81  U81        -0.3112
   1706  C2'       97.1490   33.4340   96.1140 C.3    81  U81         0.2309
   1707  O2'       96.2080   33.2800   97.1710 O.3    81  U81        -0.2156
   1708  C1'       97.3200   32.0810   95.4320 C.3    81  U81         0.2420
   1709  N1        98.6960   31.7720   95.0050 N.ar   81  U81        -0.2534
   1710  C2        99.5780   31.3440   95.9700 C.ar   81  U81         0.3546
   1711  O2        99.2820   31.2940   97.1490 O.2    81  U81        -0.2443
   1712  N3       100.8210   31.0150   95.4980 N.ar   81  U81        -0.1530
   1713  C4       101.2330   31.0550   94.1850 C.ar   81  U81         0.2846
   1714  O4       102.3810   30.7130   93.9260 O.2    81  U81        -0.2650
   1715  C5       100.2470   31.4850   93.2360 C.ar   81  U81         0.0814
   1716  C6        99.0300   31.8160   93.6720 C.ar   81  U81         0.0870
   1717  OP1       96.3290   34.9210   90.0090 O.2    81  U81        -0.5172
   1718  OP2       98.5510   33.6320   90.0480 O.co2  81  U81        -0.4373
   1719  P         96.0760   36.8560   95.2240 P.3    82  A82         0.2141
   1720  C5'       98.4310   37.2230   96.2850 C.3    82  A82         0.1812
   1721  O5'       97.0240   37.2530   96.4300 O.3    82  A82        -0.3114
   1722  C4'       99.0620   36.7680   97.5650 C.3    82  A82         0.1773
   1723  O4'       99.3220   35.3460   97.5040 O.3    82  A82        -0.3307
   1724  C3'      100.4090   37.3690   97.9020 C.3    82  A82         0.1860
   1725  O3'      100.3080   38.6680   98.4510 O.3    82  A82        -0.3112
   1726  C2'      100.9770   36.3450   98.8630 C.3    82  A82         0.2309
   1727  O2'      100.3380   36.4760  100.1210 O.3    82  A82        -0.2156
   1728  C1'      100.4950   35.0480   98.2230 C.3    82  A82         0.2408
   1729  N1       104.8630   32.3820   97.6420 N.ar   82  A82        -0.2040
   1730  C2       104.1980   32.8080   98.7170 C.ar   82  A82         0.2016
   1731  N3       103.0680   33.5000   98.8000 N.ar   82  A82        -0.2048
   1732  C4       102.5980   33.7670   97.5820 C.ar   82  A82         0.1692
   1733  C5       103.1680   33.4030   96.3720 C.ar   82  A82         0.1518
   1734  C6       104.3640   32.6660   96.4260 C.ar   82  A82         0.1919
   1735  N6       105.0320   32.2300   95.3580 N.pl3  82  A82        -0.1054
   1736  N7       102.3940   33.8460   95.3220 N.ar   82  A82        -0.2193
   1737  C8       101.3990   34.4630   95.9060 C.ar   82  A82         0.1816
   1738  N9       101.4670   34.4690   97.2770 N.ar   82  A82        -0.2693
   1739  OP1       94.8180   37.6330   95.3930 O.3    82  A82        -0.4373
   1740  OP2       96.9170   36.9340   93.9950 O.co2  82  A82        -0.5172
   1741  P        101.3120   39.8130   97.9540 P.3    83  U83         0.2141
   1742  C5'      102.9330   39.4680   99.9740 C.3    83  U83         0.1812
   1743  O5'      102.7120   39.3850   98.5760 O.3    83  U83        -0.3114
   1744  C4'      104.1280   38.6580  100.3980 C.3    83  U83         0.1773
   1745  O4'      104.0170   37.3120   99.8670 O.3    83  U83        -0.3307
   1746  C3'      105.4710   39.1420   99.8870 C.3    83  U83         0.1860
   1747  O3'      106.0010   40.2160  100.6470 O.3    83  U83        -0.3112
   1748  C2'      106.3150   37.8830   99.9470 C.3    83  U83         0.2309
   1749  O2'      106.6940   37.6170  101.2870 O.3    83  U83        -0.2156
   1750  C1'      105.2970   36.8210   99.5340 C.3    83  U83         0.2420
   1751  N1       105.3260   36.5180   98.0830 N.ar   83  U83        -0.2534
   1752  C2       106.2730   35.6240   97.6450 C.ar   83  U83         0.3546
   1753  O2       107.0680   35.1160   98.4130 O.2    83  U83        -0.2443
   1754  N3       106.2520   35.3490   96.2970 N.ar   83  U83        -0.1530
   1755  C4       105.3910   35.8740   95.3520 C.ar   83  U83         0.2846
   1756  O4       105.4770   35.5420   94.1680 O.2    83  U83        -0.2650
   1757  C5       104.4400   36.7920   95.8910 C.ar   83  U83         0.0814
   1758  C6       104.4340   37.0710   97.2010 C.ar   83  U83         0.0870
   1759  OP1      100.9190   41.1070   98.5610 O.3    83  U83        -0.4373
   1760  OP2      101.3900   39.6990   96.4830 O.co2  83  U83        -0.5172
   1761  P        106.7970   41.4030   99.9190 P.3    84  C84         0.2141
   1762  C5'      109.0930   40.4800  100.7940 C.3    84  C84         0.1813
   1763  O5'      108.2530   40.7910   99.6820 O.3    84  C84        -0.3114
   1764  C4'      110.3390   39.7100  100.4070 C.3    84  C84         0.1801
   1765  O4'      109.9710   38.5780   99.5680 O.3    84  C84        -0.3306
   1766  C3'      111.4280   40.4910   99.6490 C.3    84  C84         0.2161
   1767  O3'      112.7350   40.2130  100.1720 O.3    84  C84        -0.2175
   1768  C2'      111.3340   39.9450   98.2290 C.3    84  C84         0.2338
   1769  O2'      112.5660   39.9620   97.5410 O.3    84  C84        -0.2155
   1770  C1'      110.8340   38.5160   98.4550 C.3    84  C84         0.2421
   1771  N1       110.1000   37.9790   97.2990 N.ar   84  C84        -0.2535
   1772  C2       110.6310   36.9040   96.5850 C.ar   84  C84         0.3532
   1773  O2       111.6830   36.3860   96.9580 O.2    84  C84        -0.2443
   1774  N3       109.9880   36.4460   95.4940 N.ar   84  C84        -0.1739
   1775  C4       108.8550   37.0180   95.1050 C.ar   84  C84         0.1759
   1776  N4       108.2510   36.5240   94.0330 N.pl3  84  C84        -0.1070
   1777  C5       108.2900   38.1170   95.8060 C.ar   84  C84         0.0566
   1778  C6       108.9450   38.5730   96.8820 C.ar   84  C84         0.0850
   1779  OP1      106.9600   42.4750  100.9320 O.3    84  C84        -0.4373
   1780  OP2      106.1470   41.7330   98.6210 O.co2  84  C84        -0.5172
@<TRIPOS>BOND
     1   188   187    1
     2   187   186   ar
     3   187   189   ar
     4   186   184   ar
     5   189   190   ar
     6   184   185    2
     7   184   183   ar
     8   190   183   ar
     9   183   182    1
    10   182   180    1
    11   182   177    1
    12   181   180    1
    13  1697  1677    2
    14   180   178    1
    15   191   173    2
    16   177   176    1
    17  1656  1658    1
    18  1656  1657    1
    19  1661  1677    1
    20  1661  1660    1
    21  1658  1660    1
    22  1658  1659    1
    23  1675  1655    2
    24  1641  1640    1
    25  1677  1679    1
    26  1677  1698    1
    27  1663  1662    1
    28   175   173    1
    29   175   174    1
    30  1660  1662    1
    31   194   196    1
    32   194   195    1
    33   213   193    2
    34  1657  1655    1
    35   178   179    1
    36   178   176    1
    37  1659  1664    1
    38   173   192    1
    39   173   157    1
    40  1679  1678    1
    41   179   193    1
    42  1639  1655    1
    43  1639  1638    1
    44   176   174    1
    45  1655  1676    1
    46  1662  1664    1
    47   196   197    1
    48   196   198    1
    49   193   195    1
    50   193   214    1
    51  1640  1638    1
    52  1640  1642    1
    53  1664  1674    1
    54   157   156    1
    55   197   202    1
    56   199   198    1
    57   199   215    1
    58  1638  1636    1
    59  1678  1680    1
    60   235   215    2
    61   201   200    1
    62  1636  1637    1
    63  1636  1634    1
    64   198   200    1
    65  1642  1637    1
    66  1642  1652    1
    67  1680  1681    1
    68  1680  1682    1
    69   202   200    1
    70   202   212    1
    71   215   236    1
    72   215   217    1
    73  1645  1644   ar
    74  1645  1646   ar
    75  1674  1673   ar
    76  1674  1668   ar
    77  1634  1635    1
    78   156   154    1
    79   156   158    1
    80  1635  1633    1
    81  1681  1686    1
    82   163   162   ar
    83   163   164   ar
    84   159   158    1
    85  1683  1682    1
    86  1683  1699    1
    87   154   155    1
    88   154   152    1
    89  1717  1699    2
    90  1644  1643   ar
    91  1673  1672   ar
    92  1718  1699    1
    93   162   161   ar
    94   155   160    1
    95   160   158    1
    96   160   170    1
    97   216   217    1
    98   216   218    1
    99  1652  1646   ar
   100  1652  1651   ar
   101  1682  1684    1
   102  1699  1701    1
   103  1646  1647   ar
   104  1685  1684    1
   105  1653  1633    2
   106   212   211   ar
   107   212   206   ar
   108  1668  1667   ar
   109  1668  1669   ar
   110  1667  1666   ar
   111  1654  1633    1
   112  1633  1616    1
   113   164   170   ar
   114   164   165   ar
   115   211   210   ar
   116  1686  1684    1
   117  1686  1696    1
   118   170   169   ar
   119   153   152    1
   120   153   151    1
   121  1689  1688   ar
   122  1689  1690   ar
   123   161   166   ar
   124   218   219    1
   125   218   220    1
   126  1643  1648   ar
   127  1672  1669   ar
   128   171   151    2
   129   219   224    1
   130  1651  1650   ar
   131  1688  1687   ar
   132   206   205   ar
   133   206   207   ar
   134   205   204   ar
   135  1669  1670   ar
   136   793   775    2
   137  1647  1648   ar
   138  1647  1650   ar
   139  1666  1665   ar
   140   151   172    1
   141   151   134    1
   142  1701  1700    1
   143   816   795    2
   144  1696  1690   ar
   145  1696  1695   ar
   146   165   166   ar
   147   165   168   ar
   148   210   207   ar
   149  1690  1691   ar
   150  1616  1615    1
   151  1648  1649    1
   152   166   167    1
   153   169   168   ar
   154   773   752    2
   155   207   208   ar
   156   220   221    1
   157   220   222    1
   158  1700  1702    1
   159    23     1    2
   160   221   237    1
   161   817   795    1
   162   233   234   ar
   163   233   232   ar
   164  1687  1692   ar
   165   204   203   ar
   166   224   234    1
   167   224   222    1
   168   795   781    1
   169   795   797    1
   170   775   794    1
   171   775   777    1
   172   775   758    1
   173  1670  1665   ar
   174  1670  1671    1
   175   776   777    1
   176   776   778    1
   177  1715  1716   ar
   178  1715  1713   ar
   179   781   780    1
   180   256   237    2
   181     1    22    1
   182     1     3    1
   183   134   133    1
   184   234   228   ar
   185  1615  1613    1
   186  1615  1617    1
   187  1695  1694   ar
   188   232   229   ar
   189   255   237    1
   190  1691  1692   ar
   191  1691  1694   ar
   192   222   223    1
   193   237   239    1
   194  1716  1709   ar
   195  1613  1611    1
   196  1613  1614    1
   197   208   203   ar
   198   208   209    1
   199   752   754    1
   200   752   774    1
   201   752   735    1
   202   753   754    1
   203   753   755    1
   204  1692  1693    1
   205  1714  1713    2
   206  1740  1719    2
   207  1776  1775    1
   208   778   780    1
   209   778   779    1
   210  1702  1703    1
   211  1702  1704    1
   212   131   133    1
   213   131   129    1
   214   131   132    1
   215  1756  1755    2
   216  1713  1712   ar
   217   758   757    1
   218   757   755    1
   219   757   759    1
   220  1618  1617    1
   221  1703  1708    1
   222   780   782    1
   223   133   135    1
   224   797   796    1
   225  1611  1612    1
   226     3     2    1
   227  1617  1619    1
   228   129   130    1
   229   228   229   ar
   230   228   227   ar
   231   229   230   ar
   232  1614  1619    1
   233   755   756    1
   234   735   734    1
   235  1619  1630    1
   236    19    20   ar
   237    19    16   ar
   238   132   137    1
   239  1704  1705    1
   240  1704  1706    1
   241   796   798    1
   242  1709  1708    1
   243  1709  1710   ar
   244  1775  1774   ar
   245  1775  1777   ar
   246    20    21   ar
   247   239   238    1
   248   116   115    1
   249  1719  1739    1
   250  1719  1705    1
   251  1719  1721    1
   252  1736  1737   ar
   253  1736  1733   ar
   254  1755  1757   ar
   255  1755  1754   ar
   256  1735  1734    1
   257     2     4    1
   258   779   784    1
   259  1708  1706    1
   260   759   760    1
   261   759   761    1
   262   783   782    1
   263  1774  1772   ar
   264  1712  1710   ar
   265  1622  1621    1
   266   227   226   ar
   267    18    17    2
   268   137   135    1
   269   137   148    1
   270  1623  1621   ar
   271  1623  1624   ar
   272  1598  1597    1
   273   238   240    1
   274   782   784    1
   275   135   136    1
   276    39    38    2
   277   230   231    1
   278   230   225   ar
   279  1777  1778   ar
   280  1612  1610    1
   281   750   729    2
   282   840   818    2
   283   149   128    2
   284  1757  1758   ar
   285  1737  1738   ar
   286    16    17   ar
   287    16    15   ar
   288   130   128    1
   289  1710  1711    2
   290     5     4    1
   291     5    10    1
   292   756   761    1
   293   734   732    1
   294   734   736    1
   295  1706  1707    1
   296    60    59    1
   297  1630  1624   ar
   298  1630  1629   ar
   299   140   139    1
   300  1621  1620   ar
   301    17    11   ar
   302  1720  1721    1
   303  1720  1722    1
   304  1631  1610    2
   305  1754  1752   ar
   306   737   736    1
   307   141   139   ar
   308   141   142   ar
   309    21    15   ar
   310    21    10    1
   311   730   732    1
   312   730   731    1
   313  1733  1734   ar
   314  1733  1732   ar
   315   784   785    1
   316  1734  1729   ar
   317   732   733    1
   318   798   799    1
   319   798   800    1
   320  1624  1625   ar
   321  1760  1741    2
   322   115   117    1
   323   115   113    1
   324   120   119    2
   325     4     6    1
   326   226   225   ar
   327   357   356    1
   328   761   772    1
   329  1772  1773    2
   330  1772  1771   ar
   331   114   128    1
   332   114   113    1
   333   351   356   ar
   334   351   352   ar
   335   374   373   ar
   336   374   375   ar
   337   839   818    1
   338   128   150    1
   339   253   254   ar
   340   253   251   ar
   341    38    40   ar
   342    38    37   ar
   343   373   378   ar
   344    15    14   ar
   345   148   142   ar
   346   148   147   ar
   347   818   801    1
   348   818   820    1
   349   254   247   ar
   350  1778  1771   ar
   351   139   138   ar
   352  1610  1596    1
   353  1610  1632    1
   354   241   240    1
   355   241   246    1
   356    10     8    1
   357  1597  1595    1
   358  1597  1599    1
   359   764   763    1
   360   736   738    1
   361  1602  1601    2
   362  1596  1595    1
   363   792   785   ar
   364   792   791   ar
   365   240   242    1
   366    40    41   ar
   367   799   804    1
   368   801   800    1
   369   731   729    1
   370   142   143   ar
   371   765   763   ar
   372   765   766   ar
   373   814   813   ar
   374   814   815   ar
   375   356   355   ar
   376  1758  1751   ar
   377   800   802    1
   378   729   712    1
   379   729   751    1
   380   352   353   ar
   381   117   112    1
   382   117   118    1
   383  1738  1732   ar
   384  1738  1728    1
   385  1771  1770    1
   386   785   786   ar
   387   113   111    1
   388  1629  1628   ar
   389    59    54   ar
   390    59    58   ar
   391   813   810   ar
   392    11    12   ar
   393    43    24    2
   394   375   376   ar
   395  1723  1722    1
   396  1723  1728    1
   397     6     8    1
   398     6     7    1
   399  1769  1768    1
   400  1722  1724    1
   401  1620  1626   ar
   402  1732  1731   ar
   403  1729  1730   ar
   404  1752  1751   ar
   405  1752  1753    2
   406   763   762   ar
   407  1595  1593    1
   408   119   118   ar
   409   119   121   ar
   410   251   252    2
   411   251   250   ar
   412  1599  1594    1
   413  1599  1600    1
   414    54    55   ar
   415    37    35   ar
   416   111   112    1
   417   111   109    1
   418  1625  1628   ar
   419  1625  1626   ar
   420   733   738    1
   421   772   766   ar
   422   772   771   ar
   423   791   789   ar
   424  1724  1725    1
   425  1724  1726    1
   426   278   257    2
   427   712   711    1
   428   247   246    1
   429   247   248   ar
   430  1741  1725    1
   431  1741  1759    1
   432  1741  1743    1
   433   378   379    1
   434   378   377   ar
   435   147   146   ar
   436    14    12   ar
   437   857   856    1
   438  1751  1750    1
   439   766   767   ar
   440   242   243    1
   441   242   244    1
   442     8     9    1
   443   246   244    1
   444  1601  1600   ar
   445  1601  1603   ar
   446   118   125   ar
   447   738   749    1
   448   858   859   ar
   449   858   855   ar
   450  1593  1594    1
   451  1593  1591    1
   452  1728  1726    1
   453   138   144   ar
   454  1768  1770    1
   455  1768  1766    1
   456    41    34   ar
   457   329   330   ar
   458   329   334   ar
   459    96    97   ar
   460    96   101   ar
   461   820   819    1
   462   815   804    1
   463   815   809   ar
   464    12    13    1
   465   804   802    1
   466    97    98   ar
   467    61    58   ar
   468    61    62   ar
   469   353   354   ar
   470    58    57   ar
   471   393   392    1
   472  1770  1765    1
   473   355   354   ar
   474   355   358   ar
   475     7    24    1
   476   714   713    1
   477  1626  1627    2
   478   143   146   ar
   479   143   144   ar
   480   330   331   ar
   481  1743  1742    1
   482   786   787    2
   483   786   788   ar
   484  1780  1761    2
   485   376   377   ar
   486   376   382   ar
   487   802   803    1
   488   121   122   ar
   489   243   257    1
   490  1600  1607   ar
   491  1730  1731   ar
   492    24    42    1
   493    24    26    1
   494   250   248   ar
   495   810   809   ar
   496   810   811   ar
   497   859   860   ar
   498  1726  1727    1
   499   862   841    2
   500   248   249    2
   501   377   380   ar
   502   354   360   ar
   503  1603  1604   ar
   504    35    34   ar
   505    35    36    2
   506   257   277    1
   507   257   259    1
   508   762   768   ar
   509   836   837   ar
   510   836   833   ar
   511   335   334    1
   512    55    56   ar
   513   771   770   ar
   514   244   245    1
   515   144   145    2
   516   109   110    1
   517   856   855   ar
   518   856   851   ar
   519   789   788   ar
   520   789   790    1
   521   855   854   ar
   522    34    33    1
   523   711   713    1
   524   711   709    1
   525   713   715    1
   526   397   396    2
   527   812   811    2
   528   334   333   ar
   529   809   808   ar
   530   102   101    1
   531   358   359   ar
   532   749   748   ar
   533   749   743   ar
   534   394   389    1
   535   394   392    1
   536   394   395    1
   537   101   100   ar
   538   819   821    1
   539   835   834    2
   540   767   768   ar
   541   767   770   ar
   542    98    99   ar
   543   837   838   ar
   544  1591  1592    1
   545   371   370    1
   546   389   388    1
   547   125   124   ar
   548  1750  1745    1
   549  1750  1748    1
   550   718   717    1
   551  1765  1764    1
   552   811   805   ar
   553  1766  1767    1
   554  1766  1764    1
   555    62    63   ar
   556   392   390    1
   557  1763  1761    1
   558  1763  1762    1
   559    57    56   ar
   560    57    63   ar
   561   382   372    1
   562   382   381   ar
   563   748   747   ar
   564   331   332   ar
   565   372   370    1
   566   372   367    1
   567   294   293    1
   568    26    25    1
   569   273   272    1
   570  1745  1744    1
   571  1746  1748    1
   572  1746  1744    1
   573  1746  1747    1
   574   388   390    1
   575   388   386    1
   576   409   408    1
   577   409   414    1
   578  1761  1747    1
   579  1761  1779    1
   580   314   313    2
   581   122   124   ar
   582   122   123    1
   583  1748  1749    1
   584  1742  1744    1
   585   768   769    2
   586   274   275   ar
   587   274   271   ar
   588  1607  1606   ar
   589   408   406    1
   590   408   410    1
   591   110   108    1
   592   370   368    1
   593   860   854   ar
   594   860   850    1
   595   849   848    1
   596   406   407    1
   597   833   834   ar
   598   833   832   ar
   599   413   412    1
   600   709   707    1
   601   709   710    1
   602   360   359   ar
   603   360   350    1
   604   380   381   ar
   605   396   395   ar
   606   396   398   ar
   607   841   861    1
   608   841   843    1
   609   841   824    1
   610   743   742   ar
   611   743   744   ar
   612   851   852   ar
   613   848   850    1
   614   848   846    1
   615  1604  1606   ar
   616  1604  1605    1
   617   834   828   ar
   618   742   740   ar
   619   259   258    1
   620   719   717   ar
   621   719   720   ar
   622   395   402   ar
   623   717   716   ar
   624   854   853   ar
   625  1764  1762    1
   626  1592  1590    1
   627    28    33    1
   628    28    27    1
   629    63    53    1
   630   390   391    1
   631    33    31    1
   632   391   405    1
   633   414   412    1
   634   414   415    1
   635    99   100   ar
   636    99   105   ar
   637   808   806   ar
   638   333   332   ar
   639   333   336   ar
   640   275   276   ar
   641   100   103   ar
   642   821   823    1
   643   821   822    1
   644   715   710    1
   645   715   726    1
   646   332   338   ar
   647   747   744   ar
   648   367   366    1
   649   386   387    1
   650   838   832   ar
   651   838   827    1
   652   823   824    1
   653   823   825    1
   654   707   708    1
   655    25    27    1
   656   822   827    1
   657   272   271   ar
   658   272   267   ar
   659   805   806   ar
   660   843   842    1
   661   271   270   ar
   662   293   295   ar
   663   293   292   ar
   664  1582  1581    2
   665   850   845    1
   666   842   844    1
   667   398   399   ar
   668   313   312   ar
   669   313   315   ar
   670   412   410    1
   671   744   745   ar
   672   350   348    1
   673   350   345    1
   674   295   296   ar
   675   846   844    1
   676   846   847    1
   677   716   722   ar
   678   411   410    1
   679   411   425    1
   680   720   726   ar
   681   720   721   ar
   682   832   831   ar
   683   740   741    1
   684   740   739   ar
   685   126   108    2
   686   806   807    1
   687   852   853   ar
   688  1578  1577    1
   689   402   401   ar
   690    27    29    1
   691   407   405    1
   692   312   310   ar
   693   726   725   ar
   694  1387  1386    1
   695  1608  1590    2
   696   258   260    1
   697   108   127    1
   698   108    92    1
   699   415   422   ar
   700   415   416   ar
   701    31    29    1
   702    31    32    1
   703   827   825    1
   704   368   366    1
   705   368   369    1
   706   828   829   ar
   707   423   405    2
   708   417   416    2
   709    93    94    1
   710    93    91    1
   711    93    95    1
   712   708   706    1
   713    29    30    1
   714   845   844    1
   715   405   424    1
   716   366   364    1
   717   895   896   ar
   718   895   900   ar
   719   336   337   ar
   720  1590  1609    1
   721  1590  1576    1
   722   348   349    1
   723   348   346    1
   724   901   900    1
   725   105    95    1
   726   105   104   ar
   727   276   270   ar
   728   276   266    1
   729   825   826    1
   730    53    51    1
   731    53    48    1
   732   103   104   ar
   733   298   279    2
   734    52    51    1
   735    65    44    2
   736   292   290   ar
   737   387   385    1
   738   267   268   ar
   739  1581  1583   ar
   740  1581  1580   ar
   741  1577  1579    1
   742  1577  1575    1
   743   422   421   ar
   744   338   337   ar
   745   338   328    1
   746   399   401   ar
   747   399   400    1
   748   416   418   ar
   749   270   269   ar
   750   721   722   ar
   751   721   724   ar
   752   727   706    2
   753   722   723    2
   754   369   385    1
   755   345   344    1
   756  1385  1386   ar
   757  1385  1391   ar
   758  1583  1584   ar
   759   327   326    1
   760   847   863    1
   761   745   739   ar
   762   745   746    2
   763   315   316   ar
   764   261   260    1
   765   261   266    1
   766   445   425    2
   767    51    49    1
   768    92    91    1
   769   896   897   ar
   770   426   428    1
   771   426   427    1
   772   900   899   ar
   773    91    89    1
   774   725   724   ar
   775   296   289   ar
   776  1386  1388   ar
   777    95    90    1
   778  1576  1575    1
   779   831   829   ar
   780   425   427    1
   781   425   446    1
   782   260   262    1
   783  1392  1391    2
   784   829   830    1
   785    48    47    1
   786   310   311    2
   787   310   309   ar
   788   706   728    1
   789   706   689    1
   790   328   326    1
   791   328   323    1
   792   695   694    1
   793   429   428    1
   794   429   434    1
   795   266   264    1
   796   428   430    1
   797    30    44    1
   798  1579  1580    1
   799  1579  1574    1
   800   385   403    2
   801   385   404    1
   802   262   263    1
   803   262   264    1
   804   421   419   ar
   805  1391  1390   ar
   806  1575  1573    1
   807   418   419   ar
   808    46    44    1
   809    46    45    1
   810   268   269   ar
   811    44    64    1
   812   364   365    1
   813  1580  1587   ar
   814   346   344    1
   815   346   347    1
   816   326   324    1
   817   290   289   ar
   818   290   291    2
   819  1584  1585    1
   820  1584  1586   ar
   821   279   263    1
   822   279   281    1
   823   279   297    1
   824   897   898   ar
   825   316   309   ar
   826   344   342    1
   827   289   288    1
   828   419   420    1
   829   899   898   ar
   830   899   902   ar
   831   365   363    1
   832  1388  1389   ar
   833   694   693   ar
   834   694   696   ar
   835   691   690    1
   836   863   883    2
   837   863   884    1
   838   863   865    1
   839   309   308    1
   840   107    86    2
   841    90    89    1
   842    49    47    1
   843    49    50    1
   844   264   265    1
   845   434   444    1
   846   434   432    1
   847    89    87    1
   848    47    45    1
   849   323   322    1
   850   689   688    1
   851   898   904   ar
   852   343   342    1
   853   343   341    1
   854   281   280    1
   855   693   699   ar
   856   696   697   ar
   857    88    86    1
   858    88    87    1
   859   690   688    1
   860   690   692    1
   861   362   341    2
   862   325   324    1
   863   325   341    1
   864   347   363    1
   865  1573  1574    1
   866  1573  1571    1
   867  1390  1389   ar
   868  1390  1393   ar
   869  1587  1586   ar
   870   902   903   ar
   871   433   432    1
   872   430   431    1
   873   430   432    1
   874    50    66    1
   875  1389  1395   ar
   876   324   322    1
   877   443   444   ar
   878   443   442   ar
   879   865   864    1
   880   444   438   ar
   881   893   892    1
   882    86   106    1
   883    86    72    1
   884   341   361    1
   885   431   447    1
   886   688   686    1
   887   905   885    2
   888   363   384    2
   889   363   383    1
   890   283   288    1
   891   283   282    1
   892   288   286    1
   893   699   700    2
   894   699   698   ar
   895   697   698   ar
   896   697   703   ar
   897   322   320    1
   898  1559  1558    1
   899   308   306    1
   900   308   303    1
   901   318   299    2
   902   904   903   ar
   903   904   894    1
   904   442   439   ar
   905   280   282    1
   906   438   437   ar
   907   438   439   ar
   908  1393  1394   ar
   909   698   701   ar
   910   692   703    1
   911   692   687    1
   912   892   894    1
   913   892   890    1
   914  1571  1572    1
   915   703   702   ar
   916   306   304    1
   917   306   307    1
   918   866   864    1
   919   866   867    1
   920   866   868    1
   921   284   282    1
   922   284   286    1
   923   284   285    1
   924   437   436   ar
   925  1395  1394   ar
   926  1395  1384    1
   927   465   447    2
   928   286   287    1
   929   439   440   ar
   930  1572  1570    1
   931   867   872    1
   932    67    69    1
   933    67    68    1
   934   447   466    1
   935   447   449    1
   936   303   302    1
   937   321   320    1
   938   321   319    1
   939   894   889    1
   940    66    84    2
   941    66    68    1
   942    66    85    1
   943    72    71    1
   944   686   687    1
   945   686   684    1
   946   869   885    1
   947   869   868    1
   948   885   887    1
   949   885   906    1
   950  1558  1557   ar
   951  1558  1560   ar
   952    71    69    1
   953    71    73    1
   954   701   702   ar
   955  1384  1379    1
   956  1384  1382    1
   957   340   319    2
   958   304   302    1
   959   304   305    1
   960    69    70    1
   961   301   299    1
   962   301   300    1
   963  1557  1563   ar
   964   875   874   ar
   965   875   876   ar
   966   299   285    1
   967   299   317    1
   968   436   435   ar
   969   887   886    1
   970   874   873   ar
   971   440   435   ar
   972   440   441    1
   973   868   870    1
   974  1379  1378    1
   975   872   882    1
   976   872   870    1
   977   890   891    1
   978   890   888    1
   979  1560  1561   ar
   980   302   300    1
   981   319   305    1
   982   319   339    1
   983   684   685    1
   984  1436  1418    2
   985   685   683    1
   986  1570  1589    2
   987  1570  1588    1
   988  1570  1553    1
   989   449   448    1
   990   889   888    1
   991   448   450    1
   992   891   907    1
   993   876   882   ar
   994   876   877   ar
   995  1383  1382    1
   996   873   878   ar
   997    73    74    1
   998    73    75    1
   999  1555  1554    1
  1000   882   881   ar
  1001  1563  1564    2
  1002  1563  1562   ar
  1003   908   909    1
  1004   908   910    1
  1005  1382  1380    1
  1006   870   871    1
  1007  1399  1401    1
  1008  1399  1400    1
  1009   888   886    1
  1010   451   450    1
  1011   451   456    1
  1012    70    75    1
  1013   909   907    1
  1014  1554  1552    1
  1015  1554  1556    1
  1016  1561  1562   ar
  1017  1561  1567   ar
  1018  1381  1380    1
  1019  1381  1398    1
  1020  1378  1380    1
  1021  1378  1376    1
  1022  1404  1418    1
  1023  1404  1403    1
  1024   463   464   ar
  1025   463   461   ar
  1026   464   457   ar
  1027   450   452    1
  1028   911   910    1
  1029   911   916    1
  1030  1553  1552    1
  1031  1401  1403    1
  1032  1401  1402    1
  1033   877   878   ar
  1034   877   880   ar
  1035   704   683    2
  1036   878   879    1
  1037  1418  1437    1
  1038  1418  1420    1
  1039  1562  1565   ar
  1040   683   705    1
  1041   683   669    1
  1042   910   912    1
  1043    75    76    1
  1044   678   677    2
  1045   907   928    2
  1046   907   929    1
  1047  1400  1398    1
  1048   881   880   ar
  1049  1552  1550    1
  1050   461   462    2
  1051   461   460   ar
  1052   457   456    1
  1053   457   458   ar
  1054   676   677   ar
  1055   676   674   ar
  1056   456   454    1
  1057  1567  1556    1
  1058  1567  1566   ar
  1059  1556  1551    1
  1060  1419  1420    1
  1061  1419  1421    1
  1062  1403  1405    1
  1063  1376  1377    1
  1064   677   679   ar
  1065   926   925   ar
  1066   926   927   ar
  1067  1398  1417    2
  1068  1398  1416    1
  1069   675   674    2
  1070  1406  1405    1
  1071  1377  1375    1
  1072   674   673   ar
  1073  1402  1407    1
  1074   916   927    1
  1075   916   914    1
  1076   460   458   ar
  1077   925   922   ar
  1078  1565  1566   ar
  1079   458   459    2
  1080   452   454    1
  1081   452   453    1
  1082   669   668    1
  1083   670   671    1
  1084   670   668    1
  1085   670   672    1
  1086    76    83   ar
  1087    76    77   ar
  1088   927   921   ar
  1089   679   680   ar
  1090    83    82   ar
  1091  1405  1407    1
  1092   912   913    1
  1093   912   914    1
  1094  1459  1438    2
  1095   668   666    1
  1096   454   455    1
  1097  1421  1423    1
  1098  1421  1422    1
  1099   673   680   ar
  1100   673   672    1
  1101  1550  1551    1
  1102  1550  1548    1
  1103   657   656    1
  1104   913   930    1
  1105  1424  1438    1
  1106  1424  1423    1
  1107  1407  1408    1
  1108   453   467    1
  1109   914   915    1
  1110  1460  1438    1
  1111    78    77    2
  1112   672   667    1
  1113   922   921   ar
  1114   922   923   ar
  1115  1438  1440    1
  1116  1396  1375    2
  1117  1375  1359    1
  1118  1375  1397    1
  1119   486   467    2
  1120    77    79   ar
  1121   921   920   ar
  1122  1423  1425    1
  1123    82    80   ar
  1124   656   651   ar
  1125   656   655   ar
  1126  1422  1427    1
  1127   651   652   ar
  1128  1359  1358    1
  1129   482   481    1
  1130  1542  1541    2
  1131  1548  1549    1
  1132   467   485    1
  1133   467   469    1
  1134   949   930    2
  1135   930   948    1
  1136   930   932    1
  1137  1540  1541   ar
  1138  1540  1538   ar
  1139  1549  1547    1
  1140   617   595    2
  1141   666   667    1
  1142   666   664    1
  1143   924   923    2
  1144   616   595    1
  1145   923   917   ar
  1146  1408  1415   ar
  1147  1408  1409   ar
  1148  1539  1538    2
  1149  1415  1414   ar
  1150   483   481   ar
  1151   483   484   ar
  1152   665   664    1
  1153   665   663    1
  1154   682   663    2
  1155   655   658   ar
  1156   655   654   ar
  1157   920   918   ar
  1158    79    80   ar
  1159  1541  1543   ar
  1160   652   653   ar
  1161   481   480   ar
  1162   640   618    2
  1163   658   659   ar
  1164    80    81    1
  1165  1426  1425    1
  1166  1538  1537   ar
  1167   635   634    2
  1168  1361  1360    1
  1169  1425  1427    1
  1170  1440  1439    1
  1171   595   597    1
  1172   595   579    1
  1173  1427  1428    1
  1174   484   477   ar
  1175  1435  1428   ar
  1176  1435  1434   ar
  1177   663   681    1
  1178   663   647    1
  1179   469   468    1
  1180   917   918   ar
  1181  1410  1409    2
  1182  1358  1356    1
  1183  1358  1360    1
  1184   932   931    1
  1185   654   653   ar
  1186   654   660   ar
  1187   918   919    1
  1188  1409  1411   ar
  1189  1569  1547    2
  1190   662   641    2
  1191  1356  1354    1
  1192  1356  1357    1
  1193   593   573    2
  1194  1414  1412   ar
  1195   480   478   ar
  1196  1547  1568    1
  1197  1547  1533    1
  1198  1439  1441    1
  1199   659   660   ar
  1200  1354  1355    1
  1201   639   618    1
  1202   946   947   ar
  1203   946   944   ar
  1204   597   596    1
  1205   634   633   ar
  1206   634   628   ar
  1207   931   933    1
  1208  1373  1353    2
  1209   636   633   ar
  1210   636   637   ar
  1211  1428  1429   ar
  1212  1111  1110    1
  1213  1360  1362    1
  1214  1543  1544   ar
  1215   618   620    1
  1216   618   601    1
  1217  1537  1544   ar
  1218  1537  1536    1
  1219  1534  1535    1
  1220  1534  1536    1
  1221  1534  1532    1
  1222   477   478   ar
  1223   477   476    1
  1224   945   944    1
  1225  1434  1432   ar
  1226   596   598    1
  1227  1522  1521    1
  1228   468   470    1
  1229  1341  1340    1
  1230   579   578    1
  1231   660   650    1
  1232   613   614   ar
  1233   613   610   ar
  1234   471   476    1
  1235   471   470    1
  1236   947   940   ar
  1237   633   632   ar
  1238   478   479    2
  1239  1483  1461    2
  1240   612   611    2
  1241   944   943   ar
  1242   628   629   ar
  1243   614   615   ar
  1244  1357  1362    1
  1245   502   501    1
  1246   648   646    1
  1247   648   650    1
  1248   648   649    1
  1249  1411  1412   ar
  1250  1536  1531    1
  1251   637   638   ar
  1252   647   646    1
  1253  1533  1532    1
  1254   646   644    1
  1255   620   619    1
  1256  1412  1413    1
  1257  1109  1108    1
  1258  1109  1123    1
  1259  1532  1530    1
  1260  1106  1107    1
  1261  1106  1104    1
  1262  1106  1108    1
  1263  1124  1126    1
  1264  1124  1125    1
  1265   641   643    1
  1266   641   661    1
  1267   641   624    1
  1268  1141  1123    2
  1269   934   933    1
  1270   934   939    1
  1271   476   474    1
  1272   601   600    1
  1273   573   575    1
  1274   573   594    1
  1275   573   556    1
  1276  1339  1353    1
  1277  1339  1338    1
  1278  1355  1353    1
  1279   574   575    1
  1280   574   576    1
  1281   643   642    1
  1282  1362  1372    1
  1283   470   472    1
  1284   600   598    1
  1285   600   602    1
  1286  1353  1374    1
  1287   524   523    2
  1288   610   611   ar
  1289   610   609   ar
  1290   965   964    1
  1291   933   935    1
  1292  1441  1442    1
  1293  1441  1443    1
  1294   611   605   ar
  1295  1457  1456   ar
  1296  1457  1458   ar
  1297  1521  1520   ar
  1298  1521  1523   ar
  1299   650   645    1
  1300  1107  1112    1
  1301  1110  1108    1
  1302  1110  1112    1
  1303  1429  1430    2
  1304  1429  1431   ar
  1305  1104  1105    1
  1306  1456  1453   ar
  1307   598   599    1
  1308  1520  1518   ar
  1309  1126  1127    1
  1310  1126  1128    1
  1311  1088  1087    1
  1312   578   576    1
  1313   578   580    1
  1314   632   638   ar
  1315   632   631   ar
  1316   940   939    1
  1317   940   941   ar
  1318  1482  1461    1
  1319  1069  1068    1
  1320  1340  1338    1
  1321  1340  1342    1
  1322  1442  1447    1
  1323  1432  1431   ar
  1324  1432  1433    1
  1325  1461  1444    1
  1326  1461  1463    1
  1327  1112  1113    1
  1328  1501  1500    2
  1329   576   577    1
  1330   629   631   ar
  1331   629   630    1
  1332  1123  1125    1
  1333  1123  1142    1
  1334   943   941   ar
  1335   638   627    1
  1336   501   503   ar
  1337   501   500   ar
  1338   615   609   ar
  1339   615   604    1
  1340  1443  1444    1
  1341  1443  1445    1
  1342  1478  1477    2
  1343  1338  1336    1
  1344  1129  1128    1
  1345  1129  1143    1
  1346   599   604    1
  1347   623   624    1
  1348   623   625    1
  1349   623   621    1
  1350   503   504   ar
  1351   556   555    1
  1352   472   474    1
  1353   472   473    1
  1354   939   937    1
  1355   645   644    1
  1356   644   642    1
  1357  1161  1143    2
  1358  1127  1132    1
  1359   966   964   ar
  1360   966   967   ar
  1361  1531  1530    1
  1362   609   608   ar
  1363  1092  1091    1
  1364  1336  1337    1
  1365  1336  1334    1
  1366   619   621    1
  1367   964   963   ar
  1368   941   942    2
  1369   935   936    1
  1370   935   937    1
  1371   523   517   ar
  1372   523   522   ar
  1373  1523  1524   ar
  1374  1131  1130    1
  1375   605   606   ar
  1376  1530  1528    1
  1377   474   475    1
  1378   602   604    1
  1379   602   603    1
  1380   517   518   ar
  1381  1479  1480   ar
  1382  1479  1476   ar
  1383  1372  1371   ar
  1384  1372  1366   ar
  1385  1342  1337    1
  1386  1342  1343    1
  1387  1458  1447    1
  1388  1458  1452   ar
  1389  1128  1130    1
  1390  1518  1519    2
  1391  1518  1517   ar
  1392   581   580    1
  1393   500   498   ar
  1394  1345  1344    2
  1395   985   984    2
  1396   625   627    1
  1397   625   626    1
  1398  1529  1528    1
  1399  1529  1527    1
  1400   969   950    2
  1401   580   582    1
  1402  1453  1452   ar
  1403  1453  1454   ar
  1404  1546  1527    2
  1405  1447  1445    1
  1406  1105  1103    1
  1407  1087  1089    1
  1408  1087  1085    1
  1409  1500  1494   ar
  1410  1500  1499   ar
  1411   621   622    1
  1412  1068  1067   ar
  1413  1068  1070   ar
  1414   506   487    2
  1415  1115  1114    2
  1416   627   622    1
  1417  1463  1462    1
  1418  1143  1162    1
  1419  1143  1145    1
  1420   936   950    1
  1421  1371  1370   ar
  1422  1477  1476   ar
  1423  1477  1471   ar
  1424  1334  1335    1
  1425  1455  1454    2
  1426  1086  1103    1
  1427  1086  1085    1
  1428  1121  1103    2
  1429  1067  1073   ar
  1430   504   497   ar
  1431  1093  1091   ar
  1432  1093  1094   ar
  1433   937   938    1
  1434   967   960   ar
  1435  1113  1114   ar
  1436  1113  1120   ar
  1437  1130  1132    1
  1438  1132  1133    1
  1439   571   550    2
  1440   577   582    1
  1441   608   606   ar
  1442  1480  1481   ar
  1443  1445  1446    1
  1444   473   487    1
  1445   606   607    1
  1446  1091  1090   ar
  1447  1476  1475   ar
  1448  1144  1145    1
  1449  1144  1146    1
  1450   963   961   ar
  1451  1506  1484    2
  1452  1524  1517   ar
  1453  1089  1084    1
  1454  1089  1100    1
  1455  1494  1495   ar
  1456   555   553    1
  1457   555   557    1
  1458  1452  1451   ar
  1459   522   525   ar
  1460   522   521   ar
  1461  1454  1448   ar
  1462  1517  1516    1
  1463  1365  1366   ar
  1464  1365  1364   ar
  1465  1502  1499   ar
  1466  1502  1503   ar
  1467  1366  1367   ar
  1468  1103  1122    1
  1469  1527  1545    1
  1470  1527  1513    1
  1471   518   519    1
  1472   518   520   ar
  1473  1114  1116   ar
  1474  1085  1083    1
  1475   498   497   ar
  1476   498   499    2
  1477   950   968    1
  1478   950   952    1
  1479  1344  1343   ar
  1480  1344  1346   ar
  1481   525   526   ar
  1482  1006  1005    1
  1483  1499  1498   ar
  1484   551   553    1
  1485   551   552    1
  1486  1343  1350   ar
  1487   582   592    1
  1488  1070  1071   ar
  1489   984   983   ar
  1490   984   986   ar
  1491  1083  1084    1
  1492  1083  1081    1
  1493   497   496    1
  1494   487   489    1
  1495   487   505    1
  1496   553   554    1
  1497   558   557    1
  1498  1120  1119   ar
  1499   591   592   ar
  1500   591   590   ar
  1501  1471  1472   ar
  1502  1000  1005   ar
  1503  1000  1001   ar
  1504   552   550    1
  1505  1462  1464    1
  1506  1319  1318    1
  1507  1335  1333    1
  1508  1370  1367   ar
  1509  1094  1100   ar
  1510  1094  1095   ar
  1511   960   961   ar
  1512   960   959    1
  1513  1514  1512    1
  1514  1514  1516    1
  1515  1514  1515    1
  1516   557   559    1
  1517  1146  1147    1
  1518  1146  1148    1
  1519  1073  1074    2
  1520  1073  1072   ar
  1521   961   962    2
  1522   983   981   ar
  1523  1526  1507    2
  1524  1100  1099   ar
  1525   550   572    1
  1526   550   536    1
  1527  1133  1140   ar
  1528  1133  1134   ar
  1529  1046  1045    1
  1530  1090  1096   ar
  1531  1481  1475   ar
  1532  1481  1470    1
  1533   521   520   ar
  1534   521   527   ar
  1535  1475  1474   ar
  1536   592   586   ar
  1537  1181  1163    2
  1538  1005  1004   ar
  1539  1140  1139   ar
  1540  1512  1513    1
  1541  1512  1510    1
  1542  1503  1504   ar
  1543  1495  1496    1
  1544  1495  1497   ar
  1545  1367  1368   ar
  1546   489   488    1
  1547   986   987   ar
  1548  1516  1511    1
  1549  1451  1449   ar
  1550  1364  1363   ar
  1551  1484  1505    1
  1552  1484  1467    1
  1553  1484  1486    1
  1554   952   951    1
  1555  1448  1449   ar
  1556  1346  1347   ar
  1557  1044  1045   ar
  1558  1044  1050   ar
  1559  1322  1323   ar
  1560  1322  1321   ar
  1561  1351  1333    2
  1562  1116  1117   ar
  1563   526   527   ar
  1564  1350  1349   ar
  1565  1498  1497   ar
  1566  1498  1504   ar
  1567   491   496    1
  1568   491   490    1
  1569  1149  1148    1
  1570  1149  1163    1
  1571   590   587   ar
  1572  1071  1072   ar
  1573  1071  1077   ar
  1574   954   959    1
  1575   954   953    1
  1576  1466  1464    1
  1577  1466  1467    1
  1578  1466  1468    1
  1579  1147  1152    1
  1580  1323  1324   ar
  1581  1081  1082    1
  1582  1051  1050    2
  1583   496   494    1
  1584  1001  1002   ar
  1585   951   953    1
  1586  1465  1464    1
  1587  1465  1470    1
  1588  1472  1474   ar
  1589  1472  1473    1
  1590  1119  1117   ar
  1591  1509  1507    1
  1592  1509  1508    1
  1593  1318  1320    1
  1594  1318  1316    1
  1595  1045  1047   ar
  1596  1072  1075   ar
  1597  1449  1450    1
  1598  1135  1134    2
  1599   554   559    1
  1600  1148  1150    1
  1601   959   957    1
  1602  1333  1317    1
  1603  1333  1352    1
  1604  1486  1485    1
  1605   527   516    1
  1606  1163  1182    1
  1607  1163  1165    1
  1608   536   535    1
  1609  1095  1096   ar
  1610  1095  1098   ar
  1611  1504  1493    1
  1612  1065  1064    1
  1613  1134  1136   ar
  1614  1317  1316    1
  1615  1470  1468    1
  1616  1050  1049   ar
  1617  1507  1525    1
  1618  1507  1490    1
  1619   559   570    1
  1620   488   490    1
  1621   981   982    2
  1622   981   980   ar
  1623  1511  1510    1
  1624  1096  1097    2
  1625  1321  1326   ar
  1626  1099  1098   ar
  1627  1139  1137   ar
  1628   586   587   ar
  1629   586   585   ar
  1630  1117  1118    2
  1631  1363  1368   ar
  1632  1368  1369    1
  1633  1468  1469    1
  1634   987   980   ar
  1635  1510  1508    1
  1636   953   955    1
  1637  1347  1349   ar
  1638  1347  1348    1
  1639  1004  1007   ar
  1640  1004  1003   ar
  1641  1064  1066    1
  1642  1064  1062    1
  1643   490   492    1
  1644   587   588   ar
  1645  1077  1066    1
  1646  1077  1076   ar
  1647  1320  1330    1
  1648  1320  1315    1
  1649  1316  1314    1
  1650  1082  1080    1
  1651  1066  1061    1
  1652  1324  1330   ar
  1653  1324  1325   ar
  1654  1151  1150    1
  1655   569   570   ar
  1656   569   568   ar
  1657  1152  1150    1
  1658  1152  1153    1
  1659  1002  1003   ar
  1660   494   492    1
  1661   494   495    1
  1662   980   979    1
  1663  1489  1490    1
  1664  1489  1491    1
  1665  1489  1487    1
  1666   570   564   ar
  1667   538   537    1
  1668   492   493    1
  1669   955   957    1
  1670   955   956    1
  1671  1047  1048   ar
  1672   957   958    1
  1673   585   584   ar
  1674  1007  1008   ar
  1675  1075  1076   ar
  1676  1136  1137   ar
  1677  1003  1009   ar
  1678   516   511    1
  1679   516   514    1
  1680  1160  1153   ar
  1681  1160  1159   ar
  1682  1491  1493    1
  1683  1491  1492    1
  1684   535   537    1
  1685   535   533    1
  1686  1485  1487    1
  1687  1493  1488    1
  1688  1137  1138    1
  1689  1165  1164    1
  1690   529   507    2
  1691  1330  1329   ar
  1692   989   970    2
  1693  1049  1048   ar
  1694  1049  1052   ar
  1695  1314  1315    1
  1696  1314  1312    1
  1697  1326  1325   ar
  1698  1326  1327    1
  1699  1164  1166    1
  1700   537   539    1
  1701  1488  1487    1
  1702  1153  1154   ar
  1703  1048  1054   ar
  1704  1300  1299    1
  1705   568   565   ar
  1706   588   589    1
  1707   588   583   ar
  1708  1325  1328   ar
  1709   511   510    1
  1710  1062  1063    1
  1711  1062  1060    1
  1712  1063  1080    1
  1713  1159  1157   ar
  1714  1061  1060    1
  1715   564   563   ar
  1716   564   565   ar
  1717   514   515    1
  1718   514   512    1
  1719  1080  1101    2
  1720  1080  1102    1
  1721   956   970    1
  1722   533   531    1
  1723   533   534    1
  1724   493   507    1
  1725   979   974    1
  1726   979   977    1
  1727   584   583   ar
  1728  1008  1009   ar
  1729  1009   999    1
  1730  1052  1053   ar
  1731   507   509    1
  1732   507   528    1
  1733   563   561   ar
  1734   509   508    1
  1735   565   566   ar
  1736   531   532    1
  1737   970   972    1
  1738   970   988    1
  1739  1329  1328   ar
  1740  1060  1058    1
  1741   974   973    1
  1742  1312  1313    1
  1743   512   510    1
  1744   512   513    1
  1745  1166  1167    1
  1746  1166  1168    1
  1747  1299  1298   ar
  1748  1299  1301   ar
  1749   972   971    1
  1750  1154  1155    2
  1751  1154  1156   ar
  1752  1054  1053   ar
  1753  1054  1043    1
  1754   539   534    1
  1755   539   540    1
  1756   510   508    1
  1757   532   530    1
  1758  1298  1304   ar
  1759  1218  1217    1
  1760   977   975    1
  1761   977   978    1
  1762  1157  1156   ar
  1763  1157  1158    2
  1764  1167  1172    1
  1765   994   999    1
  1766   994   993    1
  1767  1313  1311    1
  1768   999   997    1
  1769   561   560   ar
  1770   561   562    1
  1771  1180  1179   ar
  1772  1180  1173   ar
  1773   566   560   ar
  1774   566   567    2
  1775   542   541    2
  1776  1179  1177   ar
  1777  1043  1041    1
  1778  1043  1038    1
  1779  1301  1302   ar
  1780  1168  1169    1
  1781  1168  1170    1
  1782   549   530    2
  1783   973   975    1
  1784   973   971    1
  1785   975   976    1
  1786  1201  1183    2
  1787   540   541   ar
  1788   540   547   ar
  1789  1169  1183    1
  1790  1041  1042    1
  1791  1041  1039    1
  1792   513   530    1
  1793  1058  1059    1
  1794   541   543   ar
  1795   530   548    1
  1796  1304  1305    2
  1797  1304  1303   ar
  1798  1011   990    2
  1799  1059  1057    1
  1800  1217  1219   ar
  1801  1217  1216   ar
  1802   547   546   ar
  1803  1202  1183    1
  1804  1183  1185    1
  1805   991   993    1
  1806   991   992    1
  1807  1172  1173    1
  1808  1172  1170    1
  1809   993   995    1
  1810  1173  1174   ar
  1811  1331  1311    2
  1812   997   998    1
  1813   997   995    1
  1814  1311  1332    1
  1815  1311  1294    1
  1816  1296  1295    1
  1817  1302  1303   ar
  1818  1302  1308   ar
  1819  1177  1178    1
  1820  1177  1176   ar
  1821  1219  1220   ar
  1822  1038  1037    1
  1823   543   544   ar
  1824  1216  1214   ar
  1825  1170  1171    1
  1826   976   990    1
  1827  1295  1297    1
  1828  1295  1293    1
  1829   546   544   ar
  1830  1303  1306   ar
  1831  1039  1040    1
  1832  1039  1037    1
  1833   990   992    1
  1834   990  1010    1
  1835   544   545    1
  1836   995   996    1
  1837  1294  1293    1
  1838  1057  1079    2
  1839  1057  1040    1
  1840  1057  1078    1
  1841  1174  1176   ar
  1842  1174  1175    2
  1843  1308  1297    1
  1844  1308  1307   ar
  1845  1185  1184    1
  1846  1037  1035    1
  1847   996  1012    1
  1848  1297  1292    1
  1849  1293  1291    1
  1850  1055  1034    2
  1851  1276  1277   ar
  1852  1276  1281   ar
  1853  1220  1213   ar
  1854  1036  1035    1
  1855  1036  1034    1
  1856  1214  1213   ar
  1857  1214  1215    2
  1858  1184  1186    1
  1859  1306  1307   ar
  1860  1277  1278   ar
  1861  1282  1281    1
  1862  1195  1194    2
  1863  1213  1212    1
  1864  1034  1056    1
  1865  1034  1018    1
  1866  1281  1280   ar
  1867  1033  1012    2
  1868  1291  1292    1
  1869  1291  1289    1
  1870  1196  1194   ar
  1871  1196  1197   ar
  1872  1012  1014    1
  1873  1012  1032    1
  1874  1013  1014    1
  1875  1013  1015    1
  1876  1194  1193   ar
  1877  1260  1259    2
  1878  1278  1279   ar
  1879  1186  1187    1
  1880  1186  1188    1
  1881  1017  1018    1
  1882  1017  1015    1
  1883  1017  1019    1
  1884  1015  1016    1
  1885  1198  1197    1
  1886  1187  1192    1
  1887  1212  1207    1
  1888  1212  1210    1
  1889  1280  1279   ar
  1890  1280  1283   ar
  1891  1188  1190    1
  1892  1188  1189    1
  1893  1197  1199   ar
  1894  1253  1259   ar
  1895  1253  1254   ar
  1896  1207  1206    1
  1897  1190  1192    1
  1898  1190  1191    1
  1899  1222  1203    2
  1900  1279  1285   ar
  1901  1259  1258   ar
  1902  1289  1290    1
  1903  1193  1192    1
  1904  1193  1200   ar
  1905  1290  1288    1
  1906  1255  1254    1
  1907  1210  1211    1
  1908  1210  1208    1
  1909  1283  1284   ar
  1910  1019  1020    1
  1911  1019  1021    1
  1912  1254  1256   ar
  1913  1016  1021    1
  1914  1204  1206    1
  1915  1204  1205    1
  1916  1199  1200   ar
  1917  1189  1203    1
  1918  1206  1208    1
  1919  1258  1261   ar
  1920  1258  1257   ar
  1921  1203  1205    1
  1922  1203  1221    1
  1923  1285  1284   ar
  1924  1285  1275    1
  1925  1273  1275    1
  1926  1273  1274    1
  1927  1273  1271    1
  1928  1021  1031    1
  1929  1261  1262   ar
  1930  1208  1209    1
  1931  1288  1310    2
  1932  1288  1309    1
  1933  1288  1272    1
  1934  1256  1257   ar
  1935  1257  1263   ar
  1936  1275  1270    1
  1937  1271  1272    1
  1938  1271  1269    1
  1939  1209  1223    1
  1940  1238  1237    2
  1941  1031  1030   ar
  1942  1031  1025   ar
  1943  1030  1029   ar
  1944  1262  1263   ar
  1945  1263  1252    1
  1946  1237  1236   ar
  1947  1237  1239   ar
  1948  1270  1269    1
  1949  1236  1234   ar
  1950  1239  1240   ar
  1951  1269  1267    1
  1952  1029  1026   ar
  1953  1251  1250    1
  1954  1025  1024   ar
  1955  1025  1026   ar
  1956  1223  1242    2
  1957  1223  1225    1
  1958  1223  1241    1
  1959  1252  1250    1
  1960  1252  1247    1
  1961  1234  1235    2
  1962  1234  1233   ar
  1963  1240  1233   ar
  1964  1225  1224    1
  1965  1024  1023   ar
  1966  1224  1226    1
  1967  1267  1268    1
  1968  1227  1226    1
  1969  1227  1232    1
  1970  1233  1232    1
  1971  1026  1027   ar
  1972  1250  1248    1
  1973  1226  1228    1
  1974  1247  1246    1
  1975  1232  1230    1
  1976  1023  1022   ar
  1977  1268  1266    1
  1978  1249  1248    1
  1979  1249  1266    1
  1980  1027  1022   ar
  1981  1027  1028    1
  1982  1248  1246    1
  1983  1287  1266    2
  1984  1230  1228    1
  1985  1230  1231    1
  1986  1246  1244    1
  1987  1228  1229    1
  1988  1266  1286    1
  1989  1244  1245    1
  1990  1229  1243    1
  1991  1245  1243    1
  1992  1243  1264    2
  1993  1243  1265    1
