lig.pdb
 OpenBabel03051820513D

 69 71  0  0  1  0  0  0  0  0999 V2000
   -3.8880    6.1290    6.7480 O   0  0  0  0  0  0  0  0  0  0  0  0
   -2.8400    5.2960    6.2920 C   0  0  0  0  0  0  0  0  0  0  0  0
   -3.2950    3.8350    6.1750 C   0  0  1  0  0  0  0  0  0  0  0  0
   -3.0140    3.2960    4.8930 O   0  0  0  0  0  0  0  0  0  0  0  0
   -2.8720    1.8820    4.9890 C   0  0  1  0  0  0  0  0  0  0  0  0
   -1.6980    1.4670    4.3010 O   0  0  0  0  0  0  0  0  0  0  0  0
   -1.8490    1.0610    2.9500 C   0  0  2  0  0  0  0  0  0  0  0  0
   -1.9830   -0.4700    2.9340 C   0  0  1  0  0  0  0  0  0  0  0  0
   -3.2270   -0.8470    3.5030 O   0  0  0  0  0  0  0  0  0  0  0  0
   -1.9160   -1.0900    1.5300 C   0  0  2  0  0  0  0  0  0  0  0  0
   -1.9530   -2.5590    1.5990 N   0  0  0  0  0  0  0  0  0  0  0  0
   -0.6350   -0.6470    0.8330 C   0  0  0  0  0  0  0  0  0  0  0  0
   -0.5710    0.8750    0.7960 C   0  0  2  0  0  0  0  0  0  0  0  0
    0.6420    1.2720    0.0730 N   0  0  0  0  0  0  0  0  0  0  0  0
   -0.5980    1.4490    2.2290 C   0  0  1  0  0  0  0  0  0  0  0  0
   -0.5170    2.8740    2.0730 O   0  0  0  0  0  0  0  0  0  0  0  0
    0.1710    3.6000    3.0860 C   0  0  1  0  0  0  0  0  0  0  0  0
    1.5790    3.4130    2.9710 O   0  0  0  0  0  0  0  0  0  0  0  0
    2.2020    4.0010    1.8310 C   0  0  2  0  0  0  0  0  0  0  0  0
    3.7060    3.7000    1.8760 C   0  0  0  0  0  0  0  0  0  0  0  0
    3.9680    2.2680    1.8980 N   0  0  0  0  0  0  0  0  0  0  0  0
    1.9750    5.5240    1.8070 C   0  0  1  0  0  0  0  0  0  0  0  0
    2.5520    6.0760    0.6370 O   0  0  0  0  0  0  0  0  0  0  0  0
    0.4660    5.7980    1.8240 C   0  0  2  0  0  0  0  0  0  0  0  0
    0.2250    7.1910    1.8910 O   0  0  0  0  0  0  0  0  0  0  0  0
   -0.2010    5.0850    3.0080 C   0  0  1  0  0  0  0  0  0  0  0  0
   -1.6600    5.2500    2.9400 N   0  0  0  0  0  0  0  0  0  0  0  0
   -2.7370    1.5490    6.4820 C   0  0  2  0  0  0  0  0  0  0  0  0
   -3.9110    0.9030    6.9380 O   0  0  0  0  0  0  0  0  0  0  0  0
   -2.5190    2.9210    7.1180 C   0  0  2  0  0  0  0  0  0  0  0  0
   -2.9450    2.9980    8.4640 O   0  0  0  0  0  0  0  0  0  0  0  0
   -4.5760    6.1470    6.0790 H   0  0  0  0  0  0  0  0  0  0  0  0
   -2.5170    5.6410    5.3110 H   0  0  0  0  0  0  0  0  0  0  0  0
   -2.0030    5.3620    6.9890 H   0  0  0  0  0  0  0  0  0  0  0  0
   -4.3650    3.7450    6.3670 H   0  0  0  0  0  0  0  0  0  0  0  0
   -3.7630    1.3980    4.5830 H   0  0  0  0  0  0  0  0  0  0  0  0
   -2.7080    1.5330    2.4700 H   0  0  0  0  0  0  0  0  0  0  0  0
   -1.1800   -0.8960    3.5400 H   0  0  0  0  0  0  0  0  0  0  0  0
   -3.2680   -1.8040    3.5170 H   0  0  0  0  0  0  0  0  0  0  0  0
   -2.7690   -0.7530    0.9410 H   0  0  0  0  0  0  0  0  0  0  0  0
   -2.8080   -2.8560    2.0490 H   0  0  0  0  0  0  0  0  0  0  0  0
   -1.1630   -2.8920    2.1330 H   0  0  0  0  0  0  0  0  0  0  0  0
    0.2230   -1.0360    1.3770 H   0  0  0  0  0  0  0  0  0  0  0  0
   -0.6230   -1.0390   -0.1830 H   0  0  0  0  0  0  0  0  0  0  0  0
   -1.4310    1.2520    0.2390 H   0  0  0  0  0  0  0  0  0  0  0  0
    0.6270    0.8870   -0.8580 H   0  0  0  0  0  0  0  0  0  0  0  0
    1.4550    0.9310    0.5590 H   0  0  0  0  0  0  0  0  0  0  0  0
    0.2780    1.0670    2.7660 H   0  0  0  0  0  0  0  0  0  0  0  0
   -0.1520    3.2590    4.0690 H   0  0  0  0  0  0  0  0  0  0  0  0
    1.7900    3.5570    0.9260 H   0  0  0  0  0  0  0  0  0  0  0  0
    4.1350    4.1630    2.7670 H   0  0  0  0  0  0  0  0  0  0  0  0
    4.1740    4.1340    0.9900 H   0  0  0  0  0  0  0  0  0  0  0  0
    4.0330    1.9220    0.9510 H   0  0  0  0  0  0  0  0  0  0  0  0
    3.2160    1.7950    2.3790 H   0  0  0  0  0  0  0  0  0  0  0  0
    2.4410    5.9700    2.6880 H   0  0  0  0  0  0  0  0  0  0  0  0
    2.3850    7.0200    0.6420 H   0  0  0  0  0  0  0  0  0  0  0  0
    0.0380    5.4220    0.9010 H   0  0  0  0  0  0  0  0  0  0  0  0
   -0.1640    7.4650    1.0550 H   0  0  0  0  0  0  0  0  0  0  0  0
    0.1410    5.5460    3.9280 H   0  0  0  0  0  0  0  0  0  0  0  0
   -2.0860    4.8260    3.7500 H   0  0  0  0  0  0  0  0  0  0  0  0
   -1.8910    6.2320    2.9160 H   0  0  0  0  0  0  0  0  0  0  0  0
   -1.8770    0.9060    6.6530 H   0  0  0  0  0  0  0  0  0  0  0  0
   -4.6590    1.4800    6.7660 H   0  0  0  0  0  0  0  0  0  0  0  0
   -1.4600    3.1620    7.0680 H   0  0  0  0  0  0  0  0  0  0  0  0
   -2.4380    2.3720    8.9860 H   0  0  0  0  0  0  0  0  0  0  0  0
    4.8380    2.0930    2.3800 H   0  0  0  0  0  0  0  0  0  0  0  0
   -2.0110    4.8040    2.1070 H   0  0  0  0  0  0  0  0  0  0  0  0
   -1.9100   -2.9440    0.6650 H   0  0  0  0  0  0  0  0  0  0  0  0
    0.6890    2.2760    0.0180 H   0  0  0  0  0  0  0  0  0  0  0  0
  2  1  1  0  0  0  0
  2 34  1  0  0  0  0
  3  2  1  0  0  0  0
  3 35  1  1  0  0  0
  3 30  1  0  0  0  0
  4  5  1  0  0  0  0
  4  3  1  0  0  0  0
  5 36  1  6  0  0  0
  5 28  1  0  0  0  0
  6  5  1  0  0  0  0
  7 37  1  6  0  0  0
  7  6  1  0  0  0  0
  8  7  1  0  0  0  0
  8  9  1  0  0  0  0
  8 38  1  1  0  0  0
  9 39  1  0  0  0  0
 10 40  1  6  0  0  0
 10 11  1  0  0  0  0
 10  8  1  0  0  0  0
 11 41  1  0  0  0  0
 11 42  1  0  0  0  0
 12 43  1  0  0  0  0
 12 10  1  0  0  0  0
 13 45  1  6  0  0  0
 13 12  1  0  0  0  0
 13 15  1  0  0  0  0
 14 47  1  0  0  0  0
 14 13  1  0  0  0  0
 15 48  1  1  0  0  0
 15  7  1  0  0  0  0
 16 15  1  0  0  0  0
 16 17  1  0  0  0  0
 17 49  1  1  0  0  0
 18 17  1  0  0  0  0
 19 50  1  6  0  0  0
 19 20  1  0  0  0  0
 19 18  1  0  0  0  0
 20 21  1  0  0  0  0
 20 51  1  0  0  0  0
 21 54  1  0  0  0  0
 21 66  1  0  0  0  0
 22 24  1  0  0  0  0
 22 19  1  0  0  0  0
 22 55  1  1  0  0  0
 23 56  1  0  0  0  0
 23 22  1  0  0  0  0
 24 57  1  6  0  0  0
 24 25  1  0  0  0  0
 24 26  1  0  0  0  0
 26 17  1  0  0  0  0
 26 59  1  1  0  0  0
 27 26  1  0  0  0  0
 27 60  1  0  0  0  0
 28 62  1  1  0  0  0
 28 29  1  0  0  0  0
 28 30  1  0  0  0  0
 30 64  1  6  0  0  0
 30 31  1  0  0  0  0
 31 65  1  0  0  0  0
 32  1  1  0  0  0  0
 33  2  1  0  0  0  0
 44 12  1  0  0  0  0
 46 14  1  0  0  0  0
 52 20  1  0  0  0  0
 53 21  1  0  0  0  0
 58 25  1  0  0  0  0
 61 27  1  0  0  0  0
 63 29  1  0  0  0  0
 67 27  1  0  0  0  0
 68 11  1  0  0  0  0
 69 14  1  0  0  0  0
M  END
$$$$
