lig.pdb
 OpenBabel11021811453D
libRbt.so/2013.1/901 2013/11/27
 31 33  0  0  0  0  0  0  0  0999 V2000
   -3.0475    6.5212    6.6064 O   0  0  0  0  0  0  0  0  0  0  0  0
   -2.5678    5.7333    5.5344 C   0  0  0  0  0  0  0  0  0  0  0  0
   -3.0978    4.2952    5.6139 C   0  0  1  0  0  0  0  0  0  0  0  0
   -2.9073    3.5946    4.3950 O   0  0  0  0  0  0  0  0  0  0  0  0
   -2.8288    2.1962    4.6540 C   0  0  1  0  0  0  0  0  0  0  0  0
   -1.7118    1.6406    3.9702 O   0  0  0  0  0  0  0  0  0  0  0  0
   -1.9235    1.1953    2.6399 C   0  0  2  0  0  0  0  0  0  0  0  0
   -2.1549   -0.3234    2.6863 C   0  0  1  0  0  0  0  0  0  0  0  0
   -3.4051   -0.5980    3.2987 O   0  0  0  0  0  0  0  0  0  0  0  0
   -2.1640   -0.9981    1.3062 C   0  0  2  0  0  0  0  0  0  0  0  0
   -2.2925   -2.4581    1.4328 N   0  0  0  0  0  0  0  0  0  0  0  0
   -0.8761   -0.6648    0.5625 C   0  0  0  0  0  0  0  0  0  0  0  0
   -0.7164    0.8475    0.4651 C   0  0  2  0  0  0  0  0  0  0  0  0
    0.5001    1.1383   -0.3012 N   0  0  0  0  0  0  0  0  0  0  0  0
   -0.6696    1.4748    1.8750 C   0  0  1  0  0  0  0  0  0  0  0  0
   -0.5022    2.8848    1.6621 O   0  0  0  0  0  0  0  0  0  0  0  0
   -0.1017    3.6675    2.7818 C   0  0  1  0  0  0  0  0  0  0  0  0
    1.3066    3.5788    2.9799 O   0  0  0  0  0  0  0  0  0  0  0  0
    2.1231    4.1976    1.9879 C   0  0  2  0  0  0  0  0  0  0  0  0
    3.5975    4.0035    2.3659 C   0  0  0  0  0  0  0  0  0  0  0  0
    4.0411    2.6387    2.1201 N   0  0  0  0  0  0  0  0  0  0  0  0
    1.8062    5.7005    1.8770 C   0  0  1  0  0  0  0  0  0  0  0  0
    2.5868    6.2799    0.8466 O   0  0  0  0  0  0  0  0  0  0  0  0
    0.3151    5.8680    1.5591 C   0  0  2  0  0  0  0  0  0  0  0  0
   -0.0266    7.2412    1.5371 O   0  0  0  0  0  0  0  0  0  0  0  0
   -0.5455    5.1219    2.5876 C   0  0  1  0  0  0  0  0  0  0  0  0
   -1.9621    5.1833    2.2003 N   0  0  0  0  0  0  0  0  0  0  0  0
   -2.6357    2.0347    6.1689 C   0  0  2  0  0  0  0  0  0  0  0  0
   -3.8152    1.5109    6.7502 O   0  0  0  0  0  0  0  0  0  0  0  0
   -2.3206    3.4584    6.6251 C   0  0  2  0  0  0  0  0  0  0  0  0
   -2.6747    3.7163    7.9694 O   0  0  0  0  0  0  0  0  0  0  0  0
  2  1  1  0  0  0  0
  3  2  1  6  0  0  0
  3 30  1  0  0  0  0
  4  5  1  0  0  0  0
  4  3  1  0  0  0  0
  5 28  1  0  0  0  0
  5  6  1  6  0  0  0
  7  6  1  1  0  0  0
  8  7  1  0  0  0  0
  8  9  1  6  0  0  0
 10 11  1  1  0  0  0
 10  8  1  0  0  0  0
 12 10  1  0  0  0  0
 13 12  1  0  0  0  0
 13 15  1  0  0  0  0
 13 14  1  1  0  0  0
 15  7  1  0  0  0  0
 15 16  1  6  0  0  0
 17 16  1  6  0  0  0
 18 17  1  0  0  0  0
 19 20  1  1  0  0  0
 19 18  1  0  0  0  0
 20 21  1  0  0  0  0
 22 24  1  0  0  0  0
 22 19  1  0  0  0  0
 22 23  1  6  0  0  0
 24 25  1  1  0  0  0
 24 26  1  0  0  0  0
 26 17  1  0  0  0  0
 26 27  1  6  0  0  0
 28 29  1  1  0  0  0
 28 30  1  0  0  0  0
 30 31  1  1  0  0  0
M  END
>  <CHROM.1>
170.27170756,165.34891064,-88.26290987,-97.75474298,-165.19752764,-57.38060206
-55.59573252,74.18793480,81.17728013,74.51665316,72.46464036,63.28536126
151.49037099,67.05105924,-61.48480107,-172.96247818,-0.92760755,2.93798178
3.12947728,3.05490986,-0.75605118,-2.64652101

>  <Name>
lig.pdb

>  <RI>
2.67765e+07

>  <Rbt.Current_Directory>
/home/itssahil/PROJECTS/Mol_Feturizer/New_Systems/rnas/2n0j

>  <Rbt.Executable>
rbdock ($Id: //depot/dev/client3/rdock/2013.1/src/exe/rbdock.cxx#4 $)

>  <Rbt.Library>
libRbt.so (2013.1, Build901 2013/11/27)

>  <Rbt.Parameter_File>
/export/apps/rDock/src/rDock_2013.1_src/data/scripts/dock_solv.prm

>  <Rbt.Receptor>
prm/pocket_docking_2.prm

>  <SCORE>
-47.27

>  <SCORE.INTER>
-42.4027

>  <SCORE.INTER.CONST>
1

>  <SCORE.INTER.POLAR>
-5.23937

>  <SCORE.INTER.ROT>
6

>  <SCORE.INTER.SOLV>
14.2363

>  <SCORE.INTER.VDW>
-23.1493

>  <SCORE.INTER.norm>
-1.36783

>  <SCORE.INTRA>
-4.90554

>  <SCORE.INTRA.DIHEDRAL>
-9.3725

>  <SCORE.INTRA.DIHEDRAL.0>
28.0161

>  <SCORE.INTRA.POLAR>
0.0192733

>  <SCORE.INTRA.POLAR.0>
-1.05798

>  <SCORE.INTRA.REPUL>
0

>  <SCORE.INTRA.REPUL.0>
0

>  <SCORE.INTRA.SOLV>
-0.0932467

>  <SCORE.INTRA.SOLV.lig_0>
-42.5945

>  <SCORE.INTRA.VDW>
-0.238197

>  <SCORE.INTRA.VDW.0>
-5.13869

>  <SCORE.INTRA.norm>
-0.158243

>  <SCORE.RESTR>
0.0382688

>  <SCORE.RESTR.CAVITY>
0.0382688

>  <SCORE.RESTR.norm>
0.00123448

>  <SCORE.SYSTEM>
0

>  <SCORE.SYSTEM.CONST>
0

>  <SCORE.SYSTEM.DIHEDRAL>
0

>  <SCORE.SYSTEM.SOLV>
0

>  <SCORE.SYSTEM.norm>
0

>  <SCORE.heavy>
31

>  <SCORE.norm>
-1.52484

>  <RMSD>
0.532

$$$$
lig.pdb
 OpenBabel11021811453D
libRbt.so/2013.1/901 2013/11/27
 31 33  0  0  0  0  0  0  0  0999 V2000
   -3.4547    6.2400    6.5212 O   0  0  0  0  0  0  0  0  0  0  0  0
   -3.3434    5.4838    5.3312 C   0  0  0  0  0  0  0  0  0  0  0  0
   -3.4410    3.9782    5.6120 C   0  0  1  0  0  0  0  0  0  0  0  0
   -3.2372    3.2083    4.4378 O   0  0  0  0  0  0  0  0  0  0  0  0
   -2.7419    1.9202    4.7901 C   0  0  1  0  0  0  0  0  0  0  0  0
   -1.6220    1.5943    3.9756 O   0  0  0  0  0  0  0  0  0  0  0  0
   -1.8900    1.1410    2.6581 C   0  0  2  0  0  0  0  0  0  0  0  0
   -2.1152   -0.3779    2.7229 C   0  0  1  0  0  0  0  0  0  0  0  0
   -3.3369   -0.6521    3.3905 O   0  0  0  0  0  0  0  0  0  0  0  0
   -2.1824   -1.0604    1.3482 C   0  0  2  0  0  0  0  0  0  0  0  0
   -2.3014   -2.5199    1.4883 N   0  0  0  0  0  0  0  0  0  0  0  0
   -0.9288   -0.7282    0.5475 C   0  0  0  0  0  0  0  0  0  0  0  0
   -0.7775    0.7839    0.4350 C   0  0  2  0  0  0  0  0  0  0  0  0
    0.4039    1.0734   -0.3849 N   0  0  0  0  0  0  0  0  0  0  0  0
   -0.6712    1.4193    1.8381 C   0  0  1  0  0  0  0  0  0  0  0  0
   -0.5170    2.8285    1.6104 O   0  0  0  0  0  0  0  0  0  0  0  0
   -0.0375    3.6131    2.6971 C   0  0  1  0  0  0  0  0  0  0  0  0
    1.3630    3.4209    2.8772 O   0  0  0  0  0  0  0  0  0  0  0  0
    2.2076    3.9417    1.8531 C   0  0  2  0  0  0  0  0  0  0  0  0
    3.6689    3.6451    2.2155 C   0  0  0  0  0  0  0  0  0  0  0  0
    3.9284    2.2138    2.2774 N   0  0  0  0  0  0  0  0  0  0  0  0
    2.0066    5.4605    1.6965 C   0  0  1  0  0  0  0  0  0  0  0  0
    2.8118    5.9435    0.6359 O   0  0  0  0  0  0  0  0  0  0  0  0
    0.5277    5.7337    1.3953 C   0  0  2  0  0  0  0  0  0  0  0  0
    0.2934    7.1280    1.3324 O   0  0  0  0  0  0  0  0  0  0  0  0
   -0.3702    5.0907    2.4609 C   0  0  1  0  0  0  0  0  0  0  0  0
   -1.7843    5.2502    2.0928 N   0  0  0  0  0  0  0  0  0  0  0  0
   -2.3025    1.9993    6.2594 C   0  0  2  0  0  0  0  0  0  0  0  0
   -3.1994    1.2623    7.0692 O   0  0  0  0  0  0  0  0  0  0  0  0
   -2.3305    3.5005    6.5423 C   0  0  2  0  0  0  0  0  0  0  0  0
   -2.5508    3.8189    7.9021 O   0  0  0  0  0  0  0  0  0  0  0  0
  2  1  1  0  0  0  0
  3  2  1  6  0  0  0
  3 30  1  0  0  0  0
  4  5  1  0  0  0  0
  4  3  1  0  0  0  0
  5 28  1  0  0  0  0
  5  6  1  6  0  0  0
  7  6  1  1  0  0  0
  8  7  1  0  0  0  0
  8  9  1  6  0  0  0
 10 11  1  1  0  0  0
 10  8  1  0  0  0  0
 12 10  1  0  0  0  0
 13 12  1  0  0  0  0
 13 15  1  0  0  0  0
 13 14  1  6  0  0  0
 15  7  1  0  0  0  0
 15 16  1  6  0  0  0
 17 16  1  6  0  0  0
 18 17  1  0  0  0  0
 19 20  1  1  0  0  0
 19 18  1  0  0  0  0
 20 21  1  0  0  0  0
 22 24  1  0  0  0  0
 22 19  1  0  0  0  0
 22 23  1  6  0  0  0
 24 25  1  1  0  0  0
 24 26  1  0  0  0  0
 26 17  1  0  0  0  0
 26 27  1  6  0  0  0
 28 29  1  1  0  0  0
 28 30  1  0  0  0  0
 30 31  1  1  0  0  0
M  END
>  <CHROM.1>
-71.02865005,-175.89650790,-78.89504203,-86.49349604,-170.41524009,-55.37952278
63.96169183,75.76185986,75.53410823,62.66123680,-58.56275699,79.34163544
156.77391936,-166.25068770,-58.51382555,-53.49520663,-0.90746108,2.79827239
3.09487067,-3.07954959,-0.76001355,-2.67754146

>  <Name>
lig.pdb

>  <RI>
2.67765e+07

>  <Rbt.Current_Directory>
/home/itssahil/PROJECTS/Mol_Feturizer/New_Systems/rnas/2n0j

>  <Rbt.Executable>
rbdock ($Id: //depot/dev/client3/rdock/2013.1/src/exe/rbdock.cxx#4 $)

>  <Rbt.Library>
libRbt.so (2013.1, Build901 2013/11/27)

>  <Rbt.Parameter_File>
/export/apps/rDock/src/rDock_2013.1_src/data/scripts/dock_solv.prm

>  <Rbt.Receptor>
prm/pocket_docking_2.prm

>  <SCORE>
-40.9639

>  <SCORE.INTER>
-36.8271

>  <SCORE.INTER.CONST>
1

>  <SCORE.INTER.POLAR>
-4.35038

>  <SCORE.INTER.ROT>
6

>  <SCORE.INTER.SOLV>
13.7859

>  <SCORE.INTER.VDW>
-22.2454

>  <SCORE.INTER.norm>
-1.18797

>  <SCORE.INTRA>
-4.19446

>  <SCORE.INTRA.DIHEDRAL>
-14.8789

>  <SCORE.INTRA.DIHEDRAL.0>
28.0161

>  <SCORE.INTRA.POLAR>
0.678294

>  <SCORE.INTRA.POLAR.0>
-1.05798

>  <SCORE.INTRA.REPUL>
0

>  <SCORE.INTRA.REPUL.0>
0

>  <SCORE.INTRA.SOLV>
-0.0804118

>  <SCORE.INTRA.SOLV.lig_0>
-42.5945

>  <SCORE.INTRA.VDW>
0.978992

>  <SCORE.INTRA.VDW.0>
-5.13869

>  <SCORE.INTRA.norm>
-0.135305

>  <SCORE.RESTR>
0.0575791

>  <SCORE.RESTR.CAVITY>
0.0575791

>  <SCORE.RESTR.norm>
0.00185739

>  <SCORE.SYSTEM>
0

>  <SCORE.SYSTEM.CONST>
0

>  <SCORE.SYSTEM.DIHEDRAL>
0

>  <SCORE.SYSTEM.SOLV>
0

>  <SCORE.SYSTEM.norm>
0

>  <SCORE.heavy>
31

>  <SCORE.norm>
-1.32142

>  <RMSD>
0.536

$$$$
lig.pdb
 OpenBabel11021811453D
libRbt.so/2013.1/901 2013/11/27
 31 33  0  0  0  0  0  0  0  0999 V2000
   -3.1839    6.0884    5.0025 O   0  0  0  0  0  0  0  0  0  0  0  0
   -2.6233    5.2704    6.0108 C   0  0  0  0  0  0  0  0  0  0  0  0
   -3.1311    3.8258    5.9082 C   0  0  1  0  0  0  0  0  0  0  0  0
   -2.9611    3.2984    4.6021 O   0  0  0  0  0  0  0  0  0  0  0  0
   -2.8568    1.8794    4.6688 C   0  0  1  0  0  0  0  0  0  0  0  0
   -1.7494    1.4397    3.8914 O   0  0  0  0  0  0  0  0  0  0  0  0
   -1.9860    1.1805    2.5167 C   0  0  2  0  0  0  0  0  0  0  0  0
   -2.4475   -0.2799    2.3889 C   0  0  1  0  0  0  0  0  0  0  0  0
   -3.7430   -0.4228    2.9500 O   0  0  0  0  0  0  0  0  0  0  0  0
   -2.5175   -0.7904    0.9417 C   0  0  2  0  0  0  0  0  0  0  0  0
   -2.8709   -2.2178    0.9015 N   0  0  0  0  0  0  0  0  0  0  0  0
   -1.1718   -0.5815    0.2572 C   0  0  0  0  0  0  0  0  0  0  0  0
   -0.7807    0.8893    0.3327 C   0  0  2  0  0  0  0  0  0  0  0  0
    0.4887    1.0701   -0.3799 N   0  0  0  0  0  0  0  0  0  0  0  0
   -0.6815    1.3442    1.8048 C   0  0  1  0  0  0  0  0  0  0  0  0
   -0.2948    2.7260    1.7541 O   0  0  0  0  0  0  0  0  0  0  0  0
    0.2809    3.2827    2.9310 C   0  0  1  0  0  0  0  0  0  0  0  0
    1.6988    3.1419    2.9128 O   0  0  0  0  0  0  0  0  0  0  0  0
    2.3976    3.9240    1.9467 C   0  0  2  0  0  0  0  0  0  0  0  0
    3.9011    3.6455    2.0752 C   0  0  0  0  0  0  0  0  0  0  0  0
    4.1919    2.2203    2.0128 N   0  0  0  0  0  0  0  0  0  0  0  0
    2.1251    5.4252    2.1560 C   0  0  1  0  0  0  0  0  0  0  0  0
    2.7818    6.1761    1.1504 O   0  0  0  0  0  0  0  0  0  0  0  0
    0.6122    5.6666    2.0835 C   0  0  2  0  0  0  0  0  0  0  0  0
    0.3221    7.0241    2.3593 O   0  0  0  0  0  0  0  0  0  0  0  0
   -0.1302    4.7530    3.0681 C   0  0  1  0  0  0  0  0  0  0  0  0
   -1.5826    4.9021    2.8984 N   0  0  0  0  0  0  0  0  0  0  0  0
   -2.6241    1.5195    6.1434 C   0  0  2  0  0  0  0  0  0  0  0  0
   -3.7815    0.9023    6.6755 O   0  0  0  0  0  0  0  0  0  0  0  0
   -2.3176    2.8743    6.7798 C   0  0  2  0  0  0  0  0  0  0  0  0
   -2.6420    2.9434    8.1542 O   0  0  0  0  0  0  0  0  0  0  0  0
  2  1  1  0  0  0  0
  3  2  1  6  0  0  0
  3 30  1  0  0  0  0
  4  5  1  0  0  0  0
  4  3  1  0  0  0  0
  5 28  1  0  0  0  0
  5  6  1  6  0  0  0
  7  6  1  1  0  0  0
  8  7  1  0  0  0  0
  8  9  1  6  0  0  0
 10 11  1  1  0  0  0
 10  8  1  0  0  0  0
 12 10  1  0  0  0  0
 13 12  1  0  0  0  0
 13 15  1  0  0  0  0
 13 14  1  1  0  0  0
 15  7  1  0  0  0  0
 15 16  1  6  0  0  0
 17 16  1  6  0  0  0
 18 17  1  0  0  0  0
 19 20  1  1  0  0  0
 19 18  1  0  0  0  0
 20 21  1  0  0  0  0
 22 24  1  0  0  0  0
 22 19  1  0  0  0  0
 22 23  1  6  0  0  0
 24 25  1  1  0  0  0
 24 26  1  0  0  0  0
 26 17  1  0  0  0  0
 26 27  1  6  0  0  0
 28 29  1  1  0  0  0
 28 30  1  0  0  0  0
 30 31  1  1  0  0  0
M  END
>  <CHROM.1>
63.07025141,52.18346130,-87.92319020,-87.74052019,-64.71942153,34.92879396
175.31047503,78.83780897,90.84228137,52.93639333,68.97832089,67.04670334
-63.28401267,-85.98096888,179.90633398,60.63348127,-0.88718505,2.69283860
3.13472416,3.07034528,-0.68638185,-2.51415599

>  <Name>
lig.pdb

>  <RI>
2.67765e+07

>  <Rbt.Current_Directory>
/home/itssahil/PROJECTS/Mol_Feturizer/New_Systems/rnas/2n0j

>  <Rbt.Executable>
rbdock ($Id: //depot/dev/client3/rdock/2013.1/src/exe/rbdock.cxx#4 $)

>  <Rbt.Library>
libRbt.so (2013.1, Build901 2013/11/27)

>  <Rbt.Parameter_File>
/export/apps/rDock/src/rDock_2013.1_src/data/scripts/dock_solv.prm

>  <Rbt.Receptor>
prm/pocket_docking_2.prm

>  <SCORE>
-45.932

>  <SCORE.INTER>
-39.0174

>  <SCORE.INTER.CONST>
1

>  <SCORE.INTER.POLAR>
-4.44036

>  <SCORE.INTER.ROT>
6

>  <SCORE.INTER.SOLV>
11.6739

>  <SCORE.INTER.VDW>
-22.7017

>  <SCORE.INTER.norm>
-1.25863

>  <SCORE.INTRA>
-7.02968

>  <SCORE.INTRA.DIHEDRAL>
-12.1181

>  <SCORE.INTRA.DIHEDRAL.0>
28.0161

>  <SCORE.INTRA.POLAR>
-0.685849

>  <SCORE.INTRA.POLAR.0>
-1.05798

>  <SCORE.INTRA.REPUL>
0

>  <SCORE.INTRA.REPUL.0>
0

>  <SCORE.INTRA.SOLV>
1.0428

>  <SCORE.INTRA.SOLV.lig_0>
-42.5945

>  <SCORE.INTRA.VDW>
0.839871

>  <SCORE.INTRA.VDW.0>
-5.13869

>  <SCORE.INTRA.norm>
-0.226764

>  <SCORE.RESTR>
0.115087

>  <SCORE.RESTR.CAVITY>
0.115087

>  <SCORE.RESTR.norm>
0.0037125

>  <SCORE.SYSTEM>
0

>  <SCORE.SYSTEM.CONST>
0

>  <SCORE.SYSTEM.DIHEDRAL>
0

>  <SCORE.SYSTEM.SOLV>
0

>  <SCORE.SYSTEM.norm>
0

>  <SCORE.heavy>
31

>  <SCORE.norm>
-1.48168

>  <RMSD>
0.609

$$$$
lig.pdb
 OpenBabel11021811453D
libRbt.so/2013.1/901 2013/11/27
 31 33  0  0  0  0  0  0  0  0999 V2000
   -3.5184    5.8708    6.8318 O   0  0  0  0  0  0  0  0  0  0  0  0
   -3.3642    5.1972    5.5978 C   0  0  0  0  0  0  0  0  0  0  0  0
   -3.4925    3.6775    5.7683 C   0  0  1  0  0  0  0  0  0  0  0  0
   -3.2609    2.9885    4.5499 O   0  0  0  0  0  0  0  0  0  0  0  0
   -2.7960    1.6708    4.8261 C   0  0  1  0  0  0  0  0  0  0  0  0
   -1.6544    1.3843    4.0269 O   0  0  0  0  0  0  0  0  0  0  0  0
   -1.8884    0.9369    2.7011 C   0  0  2  0  0  0  0  0  0  0  0  0
   -2.0089   -0.5948    2.7388 C   0  0  1  0  0  0  0  0  0  0  0  0
   -3.2100   -0.9638    3.3980 O   0  0  0  0  0  0  0  0  0  0  0  0
   -2.0267   -1.2561    1.3523 C   0  0  2  0  0  0  0  0  0  0  0  0
   -2.0455   -2.7226    1.4667 N   0  0  0  0  0  0  0  0  0  0  0  0
   -0.7975   -0.8247    0.5611 C   0  0  0  0  0  0  0  0  0  0  0  0
   -0.7502    0.6959    0.4753 C   0  0  2  0  0  0  0  0  0  0  0  0
    0.4099    1.0801   -0.3361 N   0  0  0  0  0  0  0  0  0  0  0  0
   -0.6902    1.3124    1.8895 C   0  0  1  0  0  0  0  0  0  0  0  0
   -0.6327    2.7326    1.6867 O   0  0  0  0  0  0  0  0  0  0  0  0
   -0.3836    3.5423    2.8309 C   0  0  1  0  0  0  0  0  0  0  0  0
    1.0170    3.6855    3.0508 O   0  0  0  0  0  0  0  0  0  0  0  0
    1.7307    4.4576    2.0875 C   0  0  2  0  0  0  0  0  0  0  0  0
    3.2119    4.5034    2.4859 C   0  0  0  0  0  0  0  0  0  0  0  0
    3.9038    3.2732    2.1285 N   0  0  0  0  0  0  0  0  0  0  0  0
    1.1676    5.8886    2.0060 C   0  0  1  0  0  0  0  0  0  0  0  0
    1.8531    6.6168    1.0028 O   0  0  0  0  0  0  0  0  0  0  0  0
   -0.3262    5.8122    1.6667 C   0  0  2  0  0  0  0  0  0  0  0  0
   -0.8932    7.1089    1.6708 O   0  0  0  0  0  0  0  0  0  0  0  0
   -1.0625    4.9063    2.6629 C   0  0  1  0  0  0  0  0  0  0  0  0
   -2.4643    4.7396    2.2531 N   0  0  0  0  0  0  0  0  0  0  0  0
   -2.4044    1.6395    6.3106 C   0  0  2  0  0  0  0  0  0  0  0  0
   -3.3381    0.8625    7.0373 O   0  0  0  0  0  0  0  0  0  0  0  0
   -2.4204    3.1175    6.6977 C   0  0  2  0  0  0  0  0  0  0  0  0
   -2.6811    3.3434    8.0689 O   0  0  0  0  0  0  0  0  0  0  0  0
  2  1  1  0  0  0  0
  3  2  1  6  0  0  0
  3 30  1  0  0  0  0
  4  5  1  0  0  0  0
  4  3  1  0  0  0  0
  5 28  1  0  0  0  0
  5  6  1  6  0  0  0
  7  6  1  1  0  0  0
  8  7  1  0  0  0  0
  8  9  1  6  0  0  0
 10 11  1  1  0  0  0
 10  8  1  0  0  0  0
 12 10  1  0  0  0  0
 13 12  1  0  0  0  0
 13 15  1  0  0  0  0
 13 14  1  6  0  0  0
 15  7  1  0  0  0  0
 15 16  1  6  0  0  0
 17 16  1  6  0  0  0
 18 17  1  0  0  0  0
 19 20  1  1  0  0  0
 19 18  1  0  0  0  0
 20 21  1  0  0  0  0
 22 24  1  0  0  0  0
 22 19  1  0  0  0  0
 22 23  1  6  0  0  0
 24 25  1  1  0  0  0
 24 26  1  0  0  0  0
 26 17  1  0  0  0  0
 26 27  1  6  0  0  0
 28 29  1  1  0  0  0
 28 30  1  0  0  0  0
 30 31  1  1  0  0  0
M  END
>  <CHROM.1>
-65.60766134,-176.52984556,-83.27044014,-89.00102789,58.56501930,174.64742092
-176.36766231,67.65008933,86.96214459,78.61373705,174.52417830,-179.79968041
170.74376549,-179.42630202,63.47688486,-173.15196859,-1.12828303,2.74453433
3.21947025,2.83869997,-0.83557291,-2.69901014

>  <Name>
lig.pdb

>  <RI>
2.67765e+07

>  <Rbt.Current_Directory>
/home/itssahil/PROJECTS/Mol_Feturizer/New_Systems/rnas/2n0j

>  <Rbt.Executable>
rbdock ($Id: //depot/dev/client3/rdock/2013.1/src/exe/rbdock.cxx#4 $)

>  <Rbt.Library>
libRbt.so (2013.1, Build901 2013/11/27)

>  <Rbt.Parameter_File>
/export/apps/rDock/src/rDock_2013.1_src/data/scripts/dock_solv.prm

>  <Rbt.Receptor>
prm/pocket_docking_2.prm

>  <SCORE>
-44.7926

>  <SCORE.INTER>
-37.5093

>  <SCORE.INTER.CONST>
1

>  <SCORE.INTER.POLAR>
-4.87939

>  <SCORE.INTER.ROT>
6

>  <SCORE.INTER.SOLV>
12.8948

>  <SCORE.INTER.VDW>
-20.6398

>  <SCORE.INTER.norm>
-1.20998

>  <SCORE.INTRA>
-7.53518

>  <SCORE.INTRA.DIHEDRAL>
-16.3377

>  <SCORE.INTRA.DIHEDRAL.0>
28.0161

>  <SCORE.INTRA.POLAR>
0.0484709

>  <SCORE.INTRA.POLAR.0>
-1.05798

>  <SCORE.INTRA.REPUL>
0

>  <SCORE.INTRA.REPUL.0>
0

>  <SCORE.INTRA.SOLV>
0.0918581

>  <SCORE.INTRA.SOLV.lig_0>
-42.5945

>  <SCORE.INTRA.VDW>
0.422932

>  <SCORE.INTRA.VDW.0>
-5.13869

>  <SCORE.INTRA.norm>
-0.24307

>  <SCORE.RESTR>
0.251841

>  <SCORE.RESTR.CAVITY>
0.251841

>  <SCORE.RESTR.norm>
0.00812392

>  <SCORE.SYSTEM>
0

>  <SCORE.SYSTEM.CONST>
0

>  <SCORE.SYSTEM.DIHEDRAL>
0

>  <SCORE.SYSTEM.SOLV>
0

>  <SCORE.SYSTEM.norm>
0

>  <SCORE.heavy>
31

>  <SCORE.norm>
-1.44492

>  <RMSD>
0.658

$$$$
lig.pdb
 OpenBabel11021811453D
libRbt.so/2013.1/901 2013/11/27
 31 33  0  0  0  0  0  0  0  0999 V2000
   -2.9889    6.6140    6.1133 O   0  0  0  0  0  0  0  0  0  0  0  0
   -2.2710    5.4782    6.5547 C   0  0  0  0  0  0  0  0  0  0  0  0
   -2.9616    4.1764    6.1260 C   0  0  1  0  0  0  0  0  0  0  0  0
   -2.7161    3.8735    4.7618 O   0  0  0  0  0  0  0  0  0  0  0  0
   -2.8211    2.4678    4.5574 C   0  0  1  0  0  0  0  0  0  0  0  0
   -1.7035    2.0041    3.8092 O   0  0  0  0  0  0  0  0  0  0  0  0
   -1.9413    1.6119    2.4666 C   0  0  2  0  0  0  0  0  0  0  0  0
   -2.4507    0.1620    2.4862 C   0  0  1  0  0  0  0  0  0  0  0  0
   -3.7532    0.1204    3.0476 O   0  0  0  0  0  0  0  0  0  0  0  0
   -2.5300   -0.4929    1.0987 C   0  0  2  0  0  0  0  0  0  0  0  0
   -2.9306   -1.9045    1.2030 N   0  0  0  0  0  0  0  0  0  0  0  0
   -1.1744   -0.4000    0.4082 C   0  0  0  0  0  0  0  0  0  0  0  0
   -0.7346    1.0571    0.3350 C   0  0  2  0  0  0  0  0  0  0  0  0
    0.5438    1.1216   -0.3813 N   0  0  0  0  0  0  0  0  0  0  0  0
   -0.6282    1.6583    1.7530 C   0  0  1  0  0  0  0  0  0  0  0  0
   -0.1953    3.0141    1.5634 O   0  0  0  0  0  0  0  0  0  0  0  0
    0.3022    3.7026    2.7058 C   0  0  1  0  0  0  0  0  0  0  0  0
    1.7115    3.5284    2.8243 O   0  0  0  0  0  0  0  0  0  0  0  0
    2.5112    4.1654    1.8301 C   0  0  2  0  0  0  0  0  0  0  0  0
    3.9895    3.8714    2.1180 C   0  0  0  0  0  0  0  0  0  0  0  0
    4.2764    2.4453    2.0579 N   0  0  0  0  0  0  0  0  0  0  0  0
    2.2726    5.6868    1.8269 C   0  0  1  0  0  0  0  0  0  0  0  0
    3.0325    6.2888    0.7941 O   0  0  0  0  0  0  0  0  0  0  0  0
    0.7792    5.9513    1.5982 C   0  0  2  0  0  0  0  0  0  0  0  0
    0.5130    7.3391    1.6772 O   0  0  0  0  0  0  0  0  0  0  0  0
   -0.0697    5.1874    2.6234 C   0  0  1  0  0  0  0  0  0  0  0  0
   -1.4981    5.3467    2.3152 N   0  0  0  0  0  0  0  0  0  0  0  0
   -2.8153    1.8147    5.9472 C   0  0  2  0  0  0  0  0  0  0  0  0
   -4.1022    1.3053    6.2438 O   0  0  0  0  0  0  0  0  0  0  0  0
   -2.3976    2.9651    6.8618 C   0  0  2  0  0  0  0  0  0  0  0  0
   -2.8674    2.8357    8.1890 O   0  0  0  0  0  0  0  0  0  0  0  0
  2  1  1  0  0  0  0
  3  2  1  1  0  0  0
  3 30  1  0  0  0  0
  4  5  1  0  0  0  0
  4  3  1  0  0  0  0
  5 28  1  0  0  0  0
  5  6  1  6  0  0  0
  7  6  1  1  0  0  0
  8  7  1  0  0  0  0
  8  9  1  6  0  0  0
 10 11  1  1  0  0  0
 10  8  1  0  0  0  0
 12 10  1  0  0  0  0
 13 12  1  0  0  0  0
 13 15  1  0  0  0  0
 13 14  1  1  0  0  0
 15  7  1  0  0  0  0
 15 16  1  6  0  0  0
 17 16  1  6  0  0  0
 18 17  1  0  0  0  0
 19 20  1  1  0  0  0
 19 18  1  0  0  0  0
 20 21  1  0  0  0  0
 22 24  1  0  0  0  0
 22 19  1  0  0  0  0
 22 23  1  6  0  0  0
 24 25  1  1  0  0  0
 24 26  1  0  0  0  0
 26 17  1  0  0  0  0
 26 27  1  6  0  0  0
 28 29  1  1  0  0  0
 28 30  1  0  0  0  0
 30 31  1  1  0  0  0
M  END
>  <CHROM.1>
178.68034937,78.19813140,-108.54269950,-83.33759584,62.68116346,61.86098878
-60.99607211,74.36691033,90.74093895,61.60860372,64.72484834,63.59704498
66.06266242,-178.91812475,-176.91080769,-176.72291447,-0.82950593,3.01204644
3.08579572,-3.10706914,-0.70720965,-2.50881589

>  <Name>
lig.pdb

>  <RI>
2.67765e+07

>  <Rbt.Current_Directory>
/home/itssahil/PROJECTS/Mol_Feturizer/New_Systems/rnas/2n0j

>  <Rbt.Executable>
rbdock ($Id: //depot/dev/client3/rdock/2013.1/src/exe/rbdock.cxx#4 $)

>  <Rbt.Library>
libRbt.so (2013.1, Build901 2013/11/27)

>  <Rbt.Parameter_File>
/export/apps/rDock/src/rDock_2013.1_src/data/scripts/dock_solv.prm

>  <Rbt.Receptor>
prm/pocket_docking_2.prm

>  <SCORE>
-40.298

>  <SCORE.INTER>
-34.4829

>  <SCORE.INTER.CONST>
1

>  <SCORE.INTER.POLAR>
-3.60843

>  <SCORE.INTER.ROT>
6

>  <SCORE.INTER.SOLV>
13.7961

>  <SCORE.INTER.VDW>
-23.1592

>  <SCORE.INTER.norm>
-1.11235

>  <SCORE.INTRA>
-5.81747

>  <SCORE.INTRA.DIHEDRAL>
-12.4601

>  <SCORE.INTRA.DIHEDRAL.0>
28.0161

>  <SCORE.INTRA.POLAR>
0.0578521

>  <SCORE.INTRA.POLAR.0>
-1.05798

>  <SCORE.INTRA.REPUL>
0

>  <SCORE.INTRA.REPUL.0>
0

>  <SCORE.INTRA.SOLV>
-0.196754

>  <SCORE.INTRA.SOLV.lig_0>
-42.5945

>  <SCORE.INTRA.VDW>
0.314283

>  <SCORE.INTRA.VDW.0>
-5.13869

>  <SCORE.INTRA.norm>
-0.18766

>  <SCORE.RESTR>
0.00236712

>  <SCORE.RESTR.CAVITY>
0.00236712

>  <SCORE.RESTR.norm>
7.63586e-05

>  <SCORE.SYSTEM>
0

>  <SCORE.SYSTEM.CONST>
0

>  <SCORE.SYSTEM.DIHEDRAL>
0

>  <SCORE.SYSTEM.SOLV>
0

>  <SCORE.SYSTEM.norm>
0

>  <SCORE.heavy>
31

>  <SCORE.norm>
-1.29994

>  <RMSD>
0.667

$$$$
lig.pdb
 OpenBabel11021811453D
libRbt.so/2013.1/901 2013/11/27
 31 33  0  0  0  0  0  0  0  0999 V2000
   -1.9525    5.7414    5.3837 O   0  0  0  0  0  0  0  0  0  0  0  0
   -3.2807    5.3962    5.7255 C   0  0  0  0  0  0  0  0  0  0  0  0
   -3.4720    3.8740    5.7665 C   0  0  1  0  0  0  0  0  0  0  0  0
   -3.2582    3.2810    4.4955 O   0  0  0  0  0  0  0  0  0  0  0  0
   -2.8494    1.9267    4.6619 C   0  0  1  0  0  0  0  0  0  0  0  0
   -1.7137    1.6618    3.8471 O   0  0  0  0  0  0  0  0  0  0  0  0
   -1.9512    1.3855    2.4760 C   0  0  2  0  0  0  0  0  0  0  0  0
   -2.4812   -0.0535    2.3738 C   0  0  1  0  0  0  0  0  0  0  0  0
   -3.7865   -0.1225    2.9258 O   0  0  0  0  0  0  0  0  0  0  0  0
   -2.5637   -0.5901    0.9367 C   0  0  2  0  0  0  0  0  0  0  0  0
   -2.9848   -1.9996    0.9225 N   0  0  0  0  0  0  0  0  0  0  0  0
   -1.2040   -0.4601    0.2605 C   0  0  0  0  0  0  0  0  0  0  0  0
   -0.7433    0.9916    0.3095 C   0  0  2  0  0  0  0  0  0  0  0  0
    0.5390    1.0966   -0.3950 N   0  0  0  0  0  0  0  0  0  0  0  0
   -0.6345    1.4718    1.7728 C   0  0  1  0  0  0  0  0  0  0  0  0
   -0.1816    2.8322    1.6974 O   0  0  0  0  0  0  0  0  0  0  0  0
    0.3989    3.3892    2.8719 C   0  0  1  0  0  0  0  0  0  0  0  0
    1.8184    3.2694    2.8371 O   0  0  0  0  0  0  0  0  0  0  0  0
    2.4950    4.0683    1.8689 C   0  0  2  0  0  0  0  0  0  0  0  0
    4.0038    3.8110    1.9791 C   0  0  0  0  0  0  0  0  0  0  0  0
    4.3026    2.3886    2.0635 N   0  0  0  0  0  0  0  0  0  0  0  0
    2.2029    5.5638    2.0917 C   0  0  1  0  0  0  0  0  0  0  0  0
    2.8375    6.3312    1.0842 O   0  0  0  0  0  0  0  0  0  0  0  0
    0.6859    5.7834    2.0374 C   0  0  2  0  0  0  0  0  0  0  0  0
    0.3791    7.1346    2.3258 O   0  0  0  0  0  0  0  0  0  0  0  0
   -0.0321    4.8524    3.0236 C   0  0  1  0  0  0  0  0  0  0  0  0
   -1.4883    4.9813    2.8709 N   0  0  0  0  0  0  0  0  0  0  0  0
   -2.4720    1.7547    6.1405 C   0  0  2  0  0  0  0  0  0  0  0  0
   -3.4425    0.9584    6.7943 O   0  0  0  0  0  0  0  0  0  0  0  0
   -2.4313    3.1943    6.6507 C   0  0  2  0  0  0  0  0  0  0  0  0
   -2.6942    3.3147    8.0347 O   0  0  0  0  0  0  0  0  0  0  0  0
  2  1  1  0  0  0  0
  3  2  1  6  0  0  0
  3 30  1  0  0  0  0
  4  5  1  0  0  0  0
  4  3  1  0  0  0  0
  5 28  1  0  0  0  0
  5  6  1  6  0  0  0
  7  6  1  1  0  0  0
  8  7  1  0  0  0  0
  8  9  1  6  0  0  0
 10 11  1  1  0  0  0
 10  8  1  0  0  0  0
 12 10  1  0  0  0  0
 13 12  1  0  0  0  0
 13 15  1  0  0  0  0
 13 14  1  1  0  0  0
 15  7  1  0  0  0  0
 15 16  1  6  0  0  0
 17 16  1  6  0  0  0
 18 17  1  0  0  0  0
 19 20  1  1  0  0  0
 19 18  1  0  0  0  0
 20 21  1  0  0  0  0
 22 24  1  0  0  0  0
 22 19  1  0  0  0  0
 22 23  1  6  0  0  0
 24 25  1  1  0  0  0
 24 26  1  0  0  0  0
 26 17  1  0  0  0  0
 26 27  1  6  0  0  0
 28 29  1  1  0  0  0
 28 30  1  0  0  0  0
 30 31  1  1  0  0  0
M  END
>  <CHROM.1>
-176.05415694,-63.02264367,-81.02355434,-76.23925126,-77.05276763,171.10821929
-63.62268531,78.25239099,95.15189445,46.14196130,79.83351345,-59.49737061
-65.43701215,-47.93201776,178.62167941,-58.52371594,-0.82872841,2.82751223
3.10669436,3.08196417,-0.67047150,-2.47855508

>  <Name>
lig.pdb

>  <RI>
2.67765e+07

>  <Rbt.Current_Directory>
/home/itssahil/PROJECTS/Mol_Feturizer/New_Systems/rnas/2n0j

>  <Rbt.Executable>
rbdock ($Id: //depot/dev/client3/rdock/2013.1/src/exe/rbdock.cxx#4 $)

>  <Rbt.Library>
libRbt.so (2013.1, Build901 2013/11/27)

>  <Rbt.Parameter_File>
/export/apps/rDock/src/rDock_2013.1_src/data/scripts/dock_solv.prm

>  <Rbt.Receptor>
prm/pocket_docking_2.prm

>  <SCORE>
-40.5789

>  <SCORE.INTER>
-34.1396

>  <SCORE.INTER.CONST>
1

>  <SCORE.INTER.POLAR>
-3.67827

>  <SCORE.INTER.ROT>
6

>  <SCORE.INTER.SOLV>
11.7277

>  <SCORE.INTER.VDW>
-22.008

>  <SCORE.INTER.norm>
-1.10128

>  <SCORE.INTRA>
-6.43991

>  <SCORE.INTRA.DIHEDRAL>
-14.6731

>  <SCORE.INTRA.DIHEDRAL.0>
28.0161

>  <SCORE.INTRA.POLAR>
-0.430478

>  <SCORE.INTRA.POLAR.0>
-1.05798

>  <SCORE.INTRA.REPUL>
0

>  <SCORE.INTRA.REPUL.0>
0

>  <SCORE.INTRA.SOLV>
1.77683

>  <SCORE.INTRA.SOLV.lig_0>
-42.5945

>  <SCORE.INTRA.VDW>
1.47183

>  <SCORE.INTRA.VDW.0>
-5.13869

>  <SCORE.INTRA.norm>
-0.207739

>  <SCORE.RESTR>
0.000538761

>  <SCORE.RESTR.CAVITY>
0.000538761

>  <SCORE.RESTR.norm>
1.73794e-05

>  <SCORE.SYSTEM>
0

>  <SCORE.SYSTEM.CONST>
0

>  <SCORE.SYSTEM.DIHEDRAL>
0

>  <SCORE.SYSTEM.SOLV>
0

>  <SCORE.SYSTEM.norm>
0

>  <SCORE.heavy>
31

>  <SCORE.norm>
-1.309

>  <RMSD>
0.731

$$$$
lig.pdb
 OpenBabel11021811453D
libRbt.so/2013.1/901 2013/11/27
 31 33  0  0  0  0  0  0  0  0999 V2000
   -3.3364    6.5392    5.9240 O   0  0  0  0  0  0  0  0  0  0  0  0
   -2.9026    5.6769    4.8903 C   0  0  0  0  0  0  0  0  0  0  0  0
   -3.2224    4.2107    5.2115 C   0  0  1  0  0  0  0  0  0  0  0  0
   -3.0511    3.3731    4.0792 O   0  0  0  0  0  0  0  0  0  0  0  0
   -2.7596    2.0457    4.5056 C   0  0  1  0  0  0  0  0  0  0  0  0
   -1.6451    1.5397    3.7807 O   0  0  0  0  0  0  0  0  0  0  0  0
   -1.8829    1.0971    2.4539 C   0  0  2  0  0  0  0  0  0  0  0  0
   -2.1193   -0.4208    2.5027 C   0  0  1  0  0  0  0  0  0  0  0  0
   -3.3591   -0.6913    3.1376 O   0  0  0  0  0  0  0  0  0  0  0  0
   -2.1565   -1.0936    1.1221 C   0  0  2  0  0  0  0  0  0  0  0  0
   -2.2883   -2.5532    1.2492 N   0  0  0  0  0  0  0  0  0  0  0  0
   -0.8811   -0.7643    0.3552 C   0  0  0  0  0  0  0  0  0  0  0  0
   -0.7174    0.7475    0.2569 C   0  0  2  0  0  0  0  0  0  0  0  0
    0.4860    1.0346   -0.5313 N   0  0  0  0  0  0  0  0  0  0  0  0
   -0.6421    1.3727    1.6665 C   0  0  1  0  0  0  0  0  0  0  0  0
   -0.4733    2.7824    1.4524 O   0  0  0  0  0  0  0  0  0  0  0  0
   -0.1382    3.5758    2.5860 C   0  0  1  0  0  0  0  0  0  0  0  0
    1.2516    3.4689    2.8821 O   0  0  0  0  0  0  0  0  0  0  0  0
    2.1441    4.0603    1.9403 C   0  0  2  0  0  0  0  0  0  0  0  0
    3.5858    3.8498    2.4218 C   0  0  0  0  0  0  0  0  0  0  0  0
    4.1815    2.6589    1.8331 N   0  0  0  0  0  0  0  0  0  0  0  0
    1.8597    5.5660    1.7867 C   0  0  1  0  0  0  0  0  0  0  0  0
    2.7185    6.1180    0.8047 O   0  0  0  0  0  0  0  0  0  0  0  0
    0.3969    5.7511    1.3643 C   0  0  2  0  0  0  0  0  0  0  0  0
    0.0796    7.1288    1.2996 O   0  0  0  0  0  0  0  0  0  0  0  0
   -0.5442    5.0335    2.3413 C   0  0  1  0  0  0  0  0  0  0  0  0
   -1.9296    5.1103    1.8563 N   0  0  0  0  0  0  0  0  0  0  0  0
   -2.4081    2.1253    5.9984 C   0  0  2  0  0  0  0  0  0  0  0  0
   -3.4469    1.5488    6.7678 O   0  0  0  0  0  0  0  0  0  0  0  0
   -2.2491    3.6270    6.2306 C   0  0  2  0  0  0  0  0  0  0  0  0
   -2.5101    4.0274    7.5613 O   0  0  0  0  0  0  0  0  0  0  0  0
  2  1  1  0  0  0  0
  3  2  1  6  0  0  0
  3 30  1  0  0  0  0
  4  5  1  0  0  0  0
  4  3  1  0  0  0  0
  5 28  1  0  0  0  0
  5  6  1  6  0  0  0
  7  6  1  1  0  0  0
  8  7  1  0  0  0  0
  8  9  1  6  0  0  0
 10 11  1  1  0  0  0
 10  8  1  0  0  0  0
 12 10  1  0  0  0  0
 13 12  1  0  0  0  0
 13 15  1  0  0  0  0
 13 14  1  6  0  0  0
 15  7  1  0  0  0  0
 15 16  1  6  0  0  0
 17 16  1  6  0  0  0
 18 17  1  0  0  0  0
 19 20  1  1  0  0  0
 19 18  1  0  0  0  0
 20 21  1  0  0  0  0
 22 24  1  0  0  0  0
 22 19  1  0  0  0  0
 22 23  1  6  0  0  0
 24 25  1  1  0  0  0
 24 26  1  0  0  0  0
 26 17  1  0  0  0  0
 26 27  1  6  0  0  0
 28 29  1  1  0  0  0
 28 30  1  0  0  0  0
 30 31  1  1  0  0  0
M  END
>  <CHROM.1>
-71.91446630,167.73818010,-77.70448036,-95.12954496,-166.82061889,-90.96358294
-54.62850149,70.00648241,79.55059178,94.18563785,-52.51961234,69.88881351
169.72094828,-61.27575862,69.86539093,-55.34832454,-0.90582463,2.86936134
2.89896654,2.93212453,-0.72581978,-2.67796740

>  <Name>
lig.pdb

>  <RI>
2.67765e+07

>  <Rbt.Current_Directory>
/home/itssahil/PROJECTS/Mol_Feturizer/New_Systems/rnas/2n0j

>  <Rbt.Executable>
rbdock ($Id: //depot/dev/client3/rdock/2013.1/src/exe/rbdock.cxx#4 $)

>  <Rbt.Library>
libRbt.so (2013.1, Build901 2013/11/27)

>  <Rbt.Parameter_File>
/export/apps/rDock/src/rDock_2013.1_src/data/scripts/dock_solv.prm

>  <Rbt.Receptor>
prm/pocket_docking_2.prm

>  <SCORE>
-47.05

>  <SCORE.INTER>
-43.1624

>  <SCORE.INTER.CONST>
1

>  <SCORE.INTER.POLAR>
-5.56166

>  <SCORE.INTER.ROT>
6

>  <SCORE.INTER.SOLV>
14.6998

>  <SCORE.INTER.VDW>
-22.736

>  <SCORE.INTER.norm>
-1.39234

>  <SCORE.INTRA>
-3.97483

>  <SCORE.INTRA.DIHEDRAL>
-10.6316

>  <SCORE.INTRA.DIHEDRAL.0>
28.0161

>  <SCORE.INTRA.POLAR>
-0.0321232

>  <SCORE.INTRA.POLAR.0>
-1.05798

>  <SCORE.INTRA.REPUL>
0

>  <SCORE.INTRA.REPUL.0>
0

>  <SCORE.INTRA.SOLV>
-0.175771

>  <SCORE.INTRA.SOLV.lig_0>
-42.5945

>  <SCORE.INTRA.VDW>
1.53807

>  <SCORE.INTRA.VDW.0>
-5.13869

>  <SCORE.INTRA.norm>
-0.12822

>  <SCORE.RESTR>
0.0872134

>  <SCORE.RESTR.CAVITY>
0.0872134

>  <SCORE.RESTR.norm>
0.00281334

>  <SCORE.SYSTEM>
0

>  <SCORE.SYSTEM.CONST>
0

>  <SCORE.SYSTEM.DIHEDRAL>
0

>  <SCORE.SYSTEM.SOLV>
0

>  <SCORE.SYSTEM.norm>
0

>  <SCORE.heavy>
31

>  <SCORE.norm>
-1.51774

>  <RMSD>
0.734

$$$$
lig.pdb
 OpenBabel11021811453D
libRbt.so/2013.1/901 2013/11/27
 31 33  0  0  0  0  0  0  0  0999 V2000
   -2.9738    6.5730    6.6310 O   0  0  0  0  0  0  0  0  0  0  0  0
   -2.7336    5.8764    5.4238 C   0  0  0  0  0  0  0  0  0  0  0  0
   -3.1334    4.3992    5.5393 C   0  0  1  0  0  0  0  0  0  0  0  0
   -2.9222    3.6989    4.3236 O   0  0  0  0  0  0  0  0  0  0  0  0
   -2.7139    2.3167    4.5976 C   0  0  1  0  0  0  0  0  0  0  0  0
   -1.5756    1.8494    3.8837 O   0  0  0  0  0  0  0  0  0  0  0  0
   -1.7916    1.3607    2.5694 C   0  0  2  0  0  0  0  0  0  0  0  0
   -2.0635   -0.1486    2.6705 C   0  0  1  0  0  0  0  0  0  0  0  0
   -3.3239   -0.3672    3.2845 O   0  0  0  0  0  0  0  0  0  0  0  0
   -2.0829   -0.8737    1.3163 C   0  0  2  0  0  0  0  0  0  0  0  0
   -2.2509   -2.3241    1.4961 N   0  0  0  0  0  0  0  0  0  0  0  0
   -0.7825   -0.6023    0.5692 C   0  0  0  0  0  0  0  0  0  0  0  0
   -0.5822    0.9006    0.4169 C   0  0  2  0  0  0  0  0  0  0  0  0
    0.6458    1.1306   -0.3517 N   0  0  0  0  0  0  0  0  0  0  0  0
   -0.5265    1.5784    1.8029 C   0  0  1  0  0  0  0  0  0  0  0  0
   -0.3206    2.9747    1.5391 O   0  0  0  0  0  0  0  0  0  0  0  0
    0.2634    3.7527    2.5784 C   0  0  1  0  0  0  0  0  0  0  0  0
    1.6042    3.3378    2.8248 O   0  0  0  0  0  0  0  0  0  0  0  0
    2.5502    3.6183    1.7953 C   0  0  2  0  0  0  0  0  0  0  0  0
    3.9285    3.1058    2.2338 C   0  0  0  0  0  0  0  0  0  0  0  0
    4.3989    2.0264    1.3773 N   0  0  0  0  0  0  0  0  0  0  0  0
    2.6212    5.1307    1.5136 C   0  0  1  0  0  0  0  0  0  0  0  0
    3.5226    5.3779    0.4492 O   0  0  0  0  0  0  0  0  0  0  0  0
    1.2201    5.6285    1.1373 C   0  0  2  0  0  0  0  0  0  0  0  0
    1.2344    7.0322    0.9573 O   0  0  0  0  0  0  0  0  0  0  0  0
    0.1994    5.2406    2.2156 C   0  0  1  0  0  0  0  0  0  0  0  0
   -1.1563    5.6101    1.7840 N   0  0  0  0  0  0  0  0  0  0  0  0
   -2.4586    2.1961    6.1070 C   0  0  2  0  0  0  0  0  0  0  0  0
   -3.5685    1.5812    6.7342 O   0  0  0  0  0  0  0  0  0  0  0  0
   -2.2540    3.6487    6.5343 C   0  0  2  0  0  0  0  0  0  0  0  0
   -2.5856    3.8957    7.8864 O   0  0  0  0  0  0  0  0  0  0  0  0
  2  1  1  0  0  0  0
  3  2  1  6  0  0  0
  3 30  1  0  0  0  0
  4  5  1  0  0  0  0
  4  3  1  0  0  0  0
  5 28  1  0  0  0  0
  5  6  1  6  0  0  0
  7  6  1  1  0  0  0
  8  7  1  0  0  0  0
  8  9  1  6  0  0  0
 10 11  1  1  0  0  0
 10  8  1  0  0  0  0
 12 10  1  0  0  0  0
 13 12  1  0  0  0  0
 13 15  1  0  0  0  0
 13 14  1  1  0  0  0
 15  7  1  0  0  0  0
 15 16  1  6  0  0  0
 17 16  1  6  0  0  0
 18 17  1  0  0  0  0
 19 20  1  1  0  0  0
 19 18  1  0  0  0  0
 20 21  1  0  0  0  0
 22 24  1  0  0  0  0
 22 19  1  0  0  0  0
 22 23  1  6  0  0  0
 24 25  1  1  0  0  0
 24 26  1  0  0  0  0
 26 17  1  0  0  0  0
 26 27  1  6  0  0  0
 28 29  1  1  0  0  0
 28 30  1  0  0  0  0
 30 31  1  1  0  0  0
M  END
>  <CHROM.1>
168.09492282,178.75685269,-88.56769495,-90.62309495,-63.89435441,176.90338183
-174.11044906,82.36357316,65.81859388,115.14046948,63.08249104,-71.10298293
-175.68649508,97.43896752,-61.96957248,-53.23716835,-0.62986308,2.90672522
2.97025073,-2.92725160,-0.70544656,-2.65490317

>  <Name>
lig.pdb

>  <RI>
2.67765e+07

>  <Rbt.Current_Directory>
/home/itssahil/PROJECTS/Mol_Feturizer/New_Systems/rnas/2n0j

>  <Rbt.Executable>
rbdock ($Id: //depot/dev/client3/rdock/2013.1/src/exe/rbdock.cxx#4 $)

>  <Rbt.Library>
libRbt.so (2013.1, Build901 2013/11/27)

>  <Rbt.Parameter_File>
/export/apps/rDock/src/rDock_2013.1_src/data/scripts/dock_solv.prm

>  <Rbt.Receptor>
prm/pocket_docking_2.prm

>  <SCORE>
-45.8108

>  <SCORE.INTER>
-45.0591

>  <SCORE.INTER.CONST>
1

>  <SCORE.INTER.POLAR>
-5.88075

>  <SCORE.INTER.ROT>
6

>  <SCORE.INTER.SOLV>
14.9288

>  <SCORE.INTER.VDW>
-23.0132

>  <SCORE.INTER.norm>
-1.45352

>  <SCORE.INTRA>
-0.817738

>  <SCORE.INTRA.DIHEDRAL>
-8.80476

>  <SCORE.INTRA.DIHEDRAL.0>
28.0161

>  <SCORE.INTRA.POLAR>
0.451642

>  <SCORE.INTRA.POLAR.0>
-1.05798

>  <SCORE.INTRA.REPUL>
0.00777925

>  <SCORE.INTRA.REPUL.0>
0

>  <SCORE.INTRA.SOLV>
-0.0687058

>  <SCORE.INTRA.SOLV.lig_0>
-42.5945

>  <SCORE.INTRA.VDW>
2.04452

>  <SCORE.INTRA.VDW.0>
-5.13869

>  <SCORE.INTRA.norm>
-0.0263786

>  <SCORE.RESTR>
0.0660069

>  <SCORE.RESTR.CAVITY>
0.0660069

>  <SCORE.RESTR.norm>
0.00212925

>  <SCORE.SYSTEM>
0

>  <SCORE.SYSTEM.CONST>
0

>  <SCORE.SYSTEM.DIHEDRAL>
0

>  <SCORE.SYSTEM.SOLV>
0

>  <SCORE.SYSTEM.norm>
0

>  <SCORE.heavy>
31

>  <SCORE.norm>
-1.47777

>  <RMSD>
0.778

$$$$
lig.pdb
 OpenBabel11021811453D
libRbt.so/2013.1/901 2013/11/27
 31 33  0  0  0  0  0  0  0  0999 V2000
   -3.3105    6.0590    4.9806 O   0  0  0  0  0  0  0  0  0  0  0  0
   -2.7348    5.2244    5.9666 C   0  0  0  0  0  0  0  0  0  0  0  0
   -3.2105    3.7727    5.8202 C   0  0  1  0  0  0  0  0  0  0  0  0
   -2.9888    3.2744    4.5104 O   0  0  0  0  0  0  0  0  0  0  0  0
   -2.8587    1.8566    4.5534 C   0  0  1  0  0  0  0  0  0  0  0  0
   -1.7188    1.4536    3.8037 O   0  0  0  0  0  0  0  0  0  0  0  0
   -1.9406    1.0217    2.4706 C   0  0  2  0  0  0  0  0  0  0  0  0
   -2.1709   -0.4976    2.5034 C   0  0  1  0  0  0  0  0  0  0  0  0
   -3.4161   -0.7791    3.1227 O   0  0  0  0  0  0  0  0  0  0  0  0
   -2.1905   -1.1583    1.1166 C   0  0  2  0  0  0  0  0  0  0  0  0
   -2.3172   -2.6195    1.2295 N   0  0  0  0  0  0  0  0  0  0  0  0
   -0.9085   -0.8168    0.3664 C   0  0  0  0  0  0  0  0  0  0  0  0
   -0.7504    0.6965    0.2831 C   0  0  2  0  0  0  0  0  0  0  0  0
    0.4600    0.9958   -0.4897 N   0  0  0  0  0  0  0  0  0  0  0  0
   -0.6928    1.3096    1.6989 C   0  0  1  0  0  0  0  0  0  0  0  0
   -0.5279    2.7218    1.4990 O   0  0  0  0  0  0  0  0  0  0  0  0
    0.0410    3.4671    2.5702 C   0  0  1  0  0  0  0  0  0  0  0  0
    1.3575    3.0057    2.8609 O   0  0  0  0  0  0  0  0  0  0  0  0
    2.3504    3.2682    1.8716 C   0  0  2  0  0  0  0  0  0  0  0  0
    3.6939    2.7054    2.3542 C   0  0  0  0  0  0  0  0  0  0  0  0
    4.7223    2.8137    1.3293 N   0  0  0  0  0  0  0  0  0  0  0  0
    2.4805    4.7809    1.6137 C   0  0  1  0  0  0  0  0  0  0  0  0
    3.4291    5.0120    0.5874 O   0  0  0  0  0  0  0  0  0  0  0  0
    1.1114    5.3288    1.1921 C   0  0  2  0  0  0  0  0  0  0  0  0
    1.1776    6.7335    1.0323 O   0  0  0  0  0  0  0  0  0  0  0  0
    0.0386    4.9608    2.2259 C   0  0  1  0  0  0  0  0  0  0  0  0
   -1.2871    5.3797    1.7489 N   0  0  0  0  0  0  0  0  0  0  0  0
   -2.6658    1.4723    6.0276 C   0  0  2  0  0  0  0  0  0  0  0  0
   -3.8271    0.8228    6.5104 O   0  0  0  0  0  0  0  0  0  0  0  0
   -2.4065    2.8199    6.6991 C   0  0  2  0  0  0  0  0  0  0  0  0
   -2.7756    2.8558    8.0635 O   0  0  0  0  0  0  0  0  0  0  0  0
  2  1  1  0  0  0  0
  3  2  1  6  0  0  0
  3 30  1  0  0  0  0
  4  5  1  0  0  0  0
  4  3  1  0  0  0  0
  5 28  1  0  0  0  0
  5  6  1  6  0  0  0
  7  6  1  1  0  0  0
  8  7  1  0  0  0  0
  8  9  1  6  0  0  0
 10 11  1  1  0  0  0
 10  8  1  0  0  0  0
 12 10  1  0  0  0  0
 13 12  1  0  0  0  0
 13 15  1  0  0  0  0
 13 14  1  1  0  0  0
 15  7  1  0  0  0  0
 15 16  1  6  0  0  0
 17 16  1  6  0  0  0
 18 17  1  0  0  0  0
 19 20  1  1  0  0  0
 19 18  1  0  0  0  0
 20 21  1  0  0  0  0
 22 24  1  0  0  0  0
 22 19  1  0  0  0  0
 22 23  1  6  0  0  0
 24 25  1  1  0  0  0
 24 26  1  0  0  0  0
 26 17  1  0  0  0  0
 26 27  1  6  0  0  0
 28 29  1  1  0  0  0
 28 30  1  0  0  0  0
 30 31  1  1  0  0  0
M  END
>  <CHROM.1>
67.75843794,53.93694304,-97.24763951,-90.67209378,65.76393577,44.06086164
63.62170318,81.91161255,61.14179604,173.93183146,-52.53817635,-173.30268131
-176.38941612,-26.93407614,64.17076950,72.74848116,-0.77010408,2.53423054
2.89958685,-3.12437144,-0.71390033,-2.61847021

>  <Name>
lig.pdb

>  <RI>
2.67765e+07

>  <Rbt.Current_Directory>
/home/itssahil/PROJECTS/Mol_Feturizer/New_Systems/rnas/2n0j

>  <Rbt.Executable>
rbdock ($Id: //depot/dev/client3/rdock/2013.1/src/exe/rbdock.cxx#4 $)

>  <Rbt.Library>
libRbt.so (2013.1, Build901 2013/11/27)

>  <Rbt.Parameter_File>
/export/apps/rDock/src/rDock_2013.1_src/data/scripts/dock_solv.prm

>  <Rbt.Receptor>
prm/pocket_docking_2.prm

>  <SCORE>
-45.4741

>  <SCORE.INTER>
-43.6535

>  <SCORE.INTER.CONST>
1

>  <SCORE.INTER.POLAR>
-5.92736

>  <SCORE.INTER.ROT>
6

>  <SCORE.INTER.SOLV>
13.1713

>  <SCORE.INTER.VDW>
-21.3349

>  <SCORE.INTER.norm>
-1.40818

>  <SCORE.INTRA>
-1.8706

>  <SCORE.INTRA.DIHEDRAL>
-12.2308

>  <SCORE.INTRA.DIHEDRAL.0>
28.0161

>  <SCORE.INTRA.POLAR>
0.440862

>  <SCORE.INTRA.POLAR.0>
-1.05798

>  <SCORE.INTRA.REPUL>
0.0199847

>  <SCORE.INTRA.REPUL.0>
0

>  <SCORE.INTRA.SOLV>
0.378654

>  <SCORE.INTRA.SOLV.lig_0>
-42.5945

>  <SCORE.INTRA.VDW>
2.4566

>  <SCORE.INTRA.VDW.0>
-5.13869

>  <SCORE.INTRA.norm>
-0.0603418

>  <SCORE.RESTR>
0.0499919

>  <SCORE.RESTR.CAVITY>
0.0499919

>  <SCORE.RESTR.norm>
0.00161264

>  <SCORE.SYSTEM>
0

>  <SCORE.SYSTEM.CONST>
0

>  <SCORE.SYSTEM.DIHEDRAL>
0

>  <SCORE.SYSTEM.SOLV>
0

>  <SCORE.SYSTEM.norm>
0

>  <SCORE.heavy>
31

>  <SCORE.norm>
-1.46691

>  <RMSD>
0.792

$$$$
lig.pdb
 OpenBabel11021811453D
libRbt.so/2013.1/901 2013/11/27
 31 33  0  0  0  0  0  0  0  0999 V2000
   -3.3023    6.5835    6.0718 O   0  0  0  0  0  0  0  0  0  0  0  0
   -3.0332    5.7484    4.9627 C   0  0  0  0  0  0  0  0  0  0  0  0
   -3.3152    4.2753    5.2880 C   0  0  1  0  0  0  0  0  0  0  0  0
   -3.1377    3.4413    4.1541 O   0  0  0  0  0  0  0  0  0  0  0  0
   -2.8106    2.1212    4.5774 C   0  0  1  0  0  0  0  0  0  0  0  0
   -1.6931    1.6408    3.8397 O   0  0  0  0  0  0  0  0  0  0  0  0
   -1.9377    1.1833    2.5192 C   0  0  2  0  0  0  0  0  0  0  0  0
   -2.2119   -0.3273    2.5909 C   0  0  1  0  0  0  0  0  0  0  0  0
   -3.4601   -0.5570    3.2256 O   0  0  0  0  0  0  0  0  0  0  0  0
   -2.2615   -1.0207    1.2209 C   0  0  2  0  0  0  0  0  0  0  0  0
   -2.4300   -2.4744    1.3705 N   0  0  0  0  0  0  0  0  0  0  0  0
   -0.9759   -0.7353    0.4536 C   0  0  0  0  0  0  0  0  0  0  0  0
   -0.7743    0.7702    0.3320 C   0  0  2  0  0  0  0  0  0  0  0  0
    0.4383    1.0149   -0.4562 N   0  0  0  0  0  0  0  0  0  0  0  0
   -0.6880    1.4156    1.7320 C   0  0  1  0  0  0  0  0  0  0  0  0
   -0.4834    2.8170    1.4963 O   0  0  0  0  0  0  0  0  0  0  0  0
   -0.1329    3.6198    2.6185 C   0  0  1  0  0  0  0  0  0  0  0  0
    1.2585    3.5054    2.9042 O   0  0  0  0  0  0  0  0  0  0  0  0
    2.1475    4.0801    1.9487 C   0  0  2  0  0  0  0  0  0  0  0  0
    3.5916    3.8636    2.4204 C   0  0  0  0  0  0  0  0  0  0  0  0
    4.5475    4.0773    1.3432 N   0  0  0  0  0  0  0  0  0  0  0  0
    1.8732    5.5862    1.7815 C   0  0  1  0  0  0  0  0  0  0  0  0
    2.7278    6.1212    0.7866 O   0  0  0  0  0  0  0  0  0  0  0  0
    0.4083    5.7779    1.3694 C   0  0  2  0  0  0  0  0  0  0  0  0
    0.1008    7.1573    1.2927 O   0  0  0  0  0  0  0  0  0  0  0  0
   -0.5299    5.0779    2.3618 C   0  0  1  0  0  0  0  0  0  0  0  0
   -1.9188    5.1602    1.8876 N   0  0  0  0  0  0  0  0  0  0  0  0
   -2.4435    2.2098    6.0659 C   0  0  2  0  0  0  0  0  0  0  0  0
   -3.4597    1.6098    6.8476 O   0  0  0  0  0  0  0  0  0  0  0  0
   -2.3167    3.7149    6.2959 C   0  0  2  0  0  0  0  0  0  0  0  0
   -2.5713    4.1099    7.6294 O   0  0  0  0  0  0  0  0  0  0  0  0
  2  1  1  0  0  0  0
  3  2  1  6  0  0  0
  3 30  1  0  0  0  0
  4  5  1  0  0  0  0
  4  3  1  0  0  0  0
  5 28  1  0  0  0  0
  5  6  1  6  0  0  0
  7  6  1  1  0  0  0
  8  7  1  0  0  0  0
  8  9  1  6  0  0  0
 10 11  1  1  0  0  0
 10  8  1  0  0  0  0
 12 10  1  0  0  0  0
 13 12  1  0  0  0  0
 13 15  1  0  0  0  0
 13 14  1  1  0  0  0
 15  7  1  0  0  0  0
 15 16  1  6  0  0  0
 17 16  1  6  0  0  0
 18 17  1  0  0  0  0
 19 20  1  1  0  0  0
 19 18  1  0  0  0  0
 20 21  1  0  0  0  0
 22 24  1  0  0  0  0
 22 19  1  0  0  0  0
 22 23  1  6  0  0  0
 24 25  1  1  0  0  0
 24 26  1  0  0  0  0
 26 17  1  0  0  0  0
 26 27  1  6  0  0  0
 28 29  1  1  0  0  0
 28 30  1  0  0  0  0
 30 31  1  1  0  0  0
M  END
>  <CHROM.1>
39.60655385,175.89392183,-78.13239693,-91.94420436,-66.20483309,61.79010214
-177.18073418,69.98165435,80.79338356,163.86476100,56.22438743,69.13529759
168.71084507,57.38927154,179.70691885,-178.97993541,-0.92463473,2.97633726
2.94178503,2.96246293,-0.72905074,-2.63871141

>  <Name>
lig.pdb

>  <RI>
2.67765e+07

>  <Rbt.Current_Directory>
/home/itssahil/PROJECTS/Mol_Feturizer/New_Systems/rnas/2n0j

>  <Rbt.Executable>
rbdock ($Id: //depot/dev/client3/rdock/2013.1/src/exe/rbdock.cxx#4 $)

>  <Rbt.Library>
libRbt.so (2013.1, Build901 2013/11/27)

>  <Rbt.Parameter_File>
/export/apps/rDock/src/rDock_2013.1_src/data/scripts/dock_solv.prm

>  <Rbt.Receptor>
prm/pocket_docking_2.prm

>  <SCORE>
-41.9159

>  <SCORE.INTER>
-31.8022

>  <SCORE.INTER.CONST>
1

>  <SCORE.INTER.POLAR>
-3.73559

>  <SCORE.INTER.ROT>
6

>  <SCORE.INTER.SOLV>
13.1552

>  <SCORE.INTER.VDW>
-20.7346

>  <SCORE.INTER.norm>
-1.02588

>  <SCORE.INTRA>
-10.1183

>  <SCORE.INTRA.DIHEDRAL>
-15.6625

>  <SCORE.INTRA.DIHEDRAL.0>
28.0161

>  <SCORE.INTRA.POLAR>
-0.966442

>  <SCORE.INTRA.POLAR.0>
-1.05798

>  <SCORE.INTRA.REPUL>
0

>  <SCORE.INTRA.REPUL.0>
0

>  <SCORE.INTRA.SOLV>
0.758486

>  <SCORE.INTRA.SOLV.lig_0>
-42.5945

>  <SCORE.INTRA.VDW>
0.61962

>  <SCORE.INTRA.VDW.0>
-5.13869

>  <SCORE.INTRA.norm>
-0.326396

>  <SCORE.RESTR>
0.00453985

>  <SCORE.RESTR.CAVITY>
0.00453985

>  <SCORE.RESTR.norm>
0.000146447

>  <SCORE.SYSTEM>
0

>  <SCORE.SYSTEM.CONST>
0

>  <SCORE.SYSTEM.DIHEDRAL>
0

>  <SCORE.SYSTEM.SOLV>
0

>  <SCORE.SYSTEM.norm>
0

>  <SCORE.heavy>
31

>  <SCORE.norm>
-1.35213

>  <RMSD>
0.795

$$$$
lig.pdb
 OpenBabel11021811453D
libRbt.so/2013.1/901 2013/11/27
 31 33  0  0  0  0  0  0  0  0999 V2000
   -3.2356    6.4488    5.9192 O   0  0  0  0  0  0  0  0  0  0  0  0
   -2.8152    5.5935    4.8743 C   0  0  0  0  0  0  0  0  0  0  0  0
   -3.3142    4.1582    5.0890 C   0  0  1  0  0  0  0  0  0  0  0  0
   -3.1172    3.3533    3.9373 O   0  0  0  0  0  0  0  0  0  0  0  0
   -3.0076    1.9863    4.3218 C   0  0  1  0  0  0  0  0  0  0  0  0
   -1.8838    1.3935    3.6819 O   0  0  0  0  0  0  0  0  0  0  0  0
   -2.0635    0.9367    2.3508 C   0  0  2  0  0  0  0  0  0  0  0  0
   -2.3214   -0.5774    2.4068 C   0  0  1  0  0  0  0  0  0  0  0  0
   -3.5936   -0.8246    2.9847 O   0  0  0  0  0  0  0  0  0  0  0  0
   -2.3011   -1.2675    1.0344 C   0  0  2  0  0  0  0  0  0  0  0  0
   -2.4576   -2.7237    1.1730 N   0  0  0  0  0  0  0  0  0  0  0  0
   -0.9863   -0.9638    0.3257 C   0  0  0  0  0  0  0  0  0  0  0  0
   -0.7987    0.5445    0.2167 C   0  0  2  0  0  0  0  0  0  0  0  0
    0.4446    0.8067   -0.5162 N   0  0  0  0  0  0  0  0  0  0  0  0
   -0.7830    1.1869    1.6205 C   0  0  1  0  0  0  0  0  0  0  0  0
   -0.5860    2.5915    1.3974 O   0  0  0  0  0  0  0  0  0  0  0  0
   -0.1314    3.3668    2.5014 C   0  0  1  0  0  0  0  0  0  0  0  0
    1.2402    3.0953    2.7762 O   0  0  0  0  0  0  0  0  0  0  0  0
    2.1794    3.5455    1.8022 C   0  0  2  0  0  0  0  0  0  0  0  0
    3.5935    3.1697    2.2645 C   0  0  0  0  0  0  0  0  0  0  0  0
    4.0944    1.9954    1.5645 N   0  0  0  0  0  0  0  0  0  0  0  0
    2.0812    5.0703    1.6099 C   0  0  1  0  0  0  0  0  0  0  0  0
    2.9811    5.4844    0.5974 O   0  0  0  0  0  0  0  0  0  0  0  0
    0.6442    5.4250    1.2079 C   0  0  2  0  0  0  0  0  0  0  0  0
    0.4991    6.8294    1.1087 O   0  0  0  0  0  0  0  0  0  0  0  0
   -0.3582    4.8568    2.2215 C   0  0  1  0  0  0  0  0  0  0  0  0
   -1.7332    5.0929    1.7588 N   0  0  0  0  0  0  0  0  0  0  0  0
   -2.8010    1.9675    5.8434 C   0  0  2  0  0  0  0  0  0  0  0  0
   -3.9653    1.4750    6.4800 O   0  0  0  0  0  0  0  0  0  0  0  0
   -2.5129    3.4330    6.1654 C   0  0  2  0  0  0  0  0  0  0  0  0
   -2.8634    3.8051    7.4837 O   0  0  0  0  0  0  0  0  0  0  0  0
  2  1  1  0  0  0  0
  3  2  1  6  0  0  0
  3 30  1  0  0  0  0
  4  5  1  0  0  0  0
  4  3  1  0  0  0  0
  5 28  1  0  0  0  0
  5  6  1  6  0  0  0
  7  6  1  1  0  0  0
  8  7  1  0  0  0  0
  8  9  1  6  0  0  0
 10 11  1  1  0  0  0
 10  8  1  0  0  0  0
 12 10  1  0  0  0  0
 13 12  1  0  0  0  0
 13 15  1  0  0  0  0
 13 14  1  1  0  0  0
 15  7  1  0  0  0  0
 15 16  1  6  0  0  0
 17 16  1  6  0  0  0
 18 17  1  0  0  0  0
 19 20  1  1  0  0  0
 19 18  1  0  0  0  0
 20 21  1  0  0  0  0
 22 24  1  0  0  0  0
 22 19  1  0  0  0  0
 22 23  1  6  0  0  0
 24 25  1  1  0  0  0
 24 26  1  0  0  0  0
 26 17  1  0  0  0  0
 26 27  1  6  0  0  0
 28 29  1  1  0  0  0
 28 30  1  0  0  0  0
 30 31  1  1  0  0  0
M  END
>  <CHROM.1>
-67.23727478,168.99634588,-82.53243617,-98.32495847,57.23365281,36.45941741
-54.99446527,77.70373502,72.85872291,101.85688260,-49.60249697,-177.52207328
169.36705828,175.68108423,-62.75533947,-54.06608588,-0.96903190,2.64324938
2.78405247,-3.05708354,-0.67758877,-2.67466809

>  <Name>
lig.pdb

>  <RI>
2.67765e+07

>  <Rbt.Current_Directory>
/home/itssahil/PROJECTS/Mol_Feturizer/New_Systems/rnas/2n0j

>  <Rbt.Executable>
rbdock ($Id: //depot/dev/client3/rdock/2013.1/src/exe/rbdock.cxx#4 $)

>  <Rbt.Library>
libRbt.so (2013.1, Build901 2013/11/27)

>  <Rbt.Parameter_File>
/export/apps/rDock/src/rDock_2013.1_src/data/scripts/dock_solv.prm

>  <Rbt.Receptor>
prm/pocket_docking_2.prm

>  <SCORE>
-49.6966

>  <SCORE.INTER>
-44.4703

>  <SCORE.INTER.CONST>
1

>  <SCORE.INTER.POLAR>
-5.98968

>  <SCORE.INTER.ROT>
6

>  <SCORE.INTER.SOLV>
14.2447

>  <SCORE.INTER.VDW>
-22.0295

>  <SCORE.INTER.norm>
-1.43453

>  <SCORE.INTRA>
-5.34991

>  <SCORE.INTRA.DIHEDRAL>
-10.888

>  <SCORE.INTRA.DIHEDRAL.0>
28.0161

>  <SCORE.INTRA.POLAR>
-0.0215825

>  <SCORE.INTRA.POLAR.0>
-1.05798

>  <SCORE.INTRA.REPUL>
0

>  <SCORE.INTRA.REPUL.0>
0

>  <SCORE.INTRA.SOLV>
0.0179701

>  <SCORE.INTRA.SOLV.lig_0>
-42.5945

>  <SCORE.INTRA.VDW>
0.158481

>  <SCORE.INTRA.VDW.0>
-5.13869

>  <SCORE.INTRA.norm>
-0.172578

>  <SCORE.RESTR>
0.123667

>  <SCORE.RESTR.CAVITY>
0.123667

>  <SCORE.RESTR.norm>
0.00398926

>  <SCORE.SYSTEM>
0

>  <SCORE.SYSTEM.CONST>
0

>  <SCORE.SYSTEM.DIHEDRAL>
0

>  <SCORE.SYSTEM.SOLV>
0

>  <SCORE.SYSTEM.norm>
0

>  <SCORE.heavy>
31

>  <SCORE.norm>
-1.60311

>  <RMSD>
0.822

$$$$
lig.pdb
 OpenBabel11021811453D
libRbt.so/2013.1/901 2013/11/27
 31 33  0  0  0  0  0  0  0  0999 V2000
   -4.0104    4.9497    5.4675 O   0  0  0  0  0  0  0  0  0  0  0  0
   -2.8507    4.5631    6.1787 C   0  0  0  0  0  0  0  0  0  0  0  0
   -2.7897    3.0413    6.3679 C   0  0  1  0  0  0  0  0  0  0  0  0
   -2.7056    2.3584    5.1271 O   0  0  0  0  0  0  0  0  0  0  0  0
   -2.0661    1.0998    5.3159 C   0  0  1  0  0  0  0  0  0  0  0  0
   -1.0590    0.9171    4.3278 O   0  0  0  0  0  0  0  0  0  0  0  0
   -1.4925    0.6415    3.0053 C   0  0  2  0  0  0  0  0  0  0  0  0
   -1.7838   -0.8648    2.9130 C   0  0  1  0  0  0  0  0  0  0  0  0
   -2.9366   -1.1766    3.6793 O   0  0  0  0  0  0  0  0  0  0  0  0
   -2.0355   -1.3676    1.4834 C   0  0  2  0  0  0  0  0  0  0  0  0
   -2.2102   -2.8281    1.4602 N   0  0  0  0  0  0  0  0  0  0  0  0
   -0.8628   -0.9828    0.5891 C   0  0  0  0  0  0  0  0  0  0  0  0
   -0.6505    0.5252    0.6420 C   0  0  2  0  0  0  0  0  0  0  0  0
    0.4462    0.8726   -0.2680 N   0  0  0  0  0  0  0  0  0  0  0  0
   -0.3591    0.9764    2.0895 C   0  0  1  0  0  0  0  0  0  0  0  0
   -0.1616    2.3967    2.0161 O   0  0  0  0  0  0  0  0  0  0  0  0
    0.4212    3.0305    3.1498 C   0  0  1  0  0  0  0  0  0  0  0  0
    1.8431    3.0214    3.0558 O   0  0  0  0  0  0  0  0  0  0  0  0
    2.4130    3.8432    2.0392 C   0  0  2  0  0  0  0  0  0  0  0  0
    3.9407    3.7082    2.0894 C   0  0  0  0  0  0  0  0  0  0  0  0
    4.3644    2.3244    1.9306 N   0  0  0  0  0  0  0  0  0  0  0  0
    2.0124    5.3169    2.2373 C   0  0  1  0  0  0  0  0  0  0  0  0
    2.5413    6.1028    1.1841 O   0  0  0  0  0  0  0  0  0  0  0  0
    0.4818    5.4153    2.2441 C   0  0  2  0  0  0  0  0  0  0  0  0
    0.0808    6.7459    2.5120 O   0  0  0  0  0  0  0  0  0  0  0  0
   -0.1181    4.4591    3.2838 C   0  0  1  0  0  0  0  0  0  0  0  0
   -1.5850    4.4691    3.1919 N   0  0  0  0  0  0  0  0  0  0  0  0
   -1.4191    1.1343    6.7082 C   0  0  2  0  0  0  0  0  0  0  0  0
   -2.1256    0.2791    7.5873 O   0  0  0  0  0  0  0  0  0  0  0  0
   -1.5193    2.6094    7.0933 C   0  0  2  0  0  0  0  0  0  0  0  0
   -1.5573    2.8315    8.4891 O   0  0  0  0  0  0  0  0  0  0  0  0
  2  1  1  0  0  0  0
  3  2  1  6  0  0  0
  3 30  1  0  0  0  0
  4  5  1  0  0  0  0
  4  3  1  0  0  0  0
  5 28  1  0  0  0  0
  5  6  1  6  0  0  0
  7  6  1  1  0  0  0
  8  7  1  0  0  0  0
  8  9  1  1  0  0  0
 10 11  1  1  0  0  0
 10  8  1  0  0  0  0
 12 10  1  0  0  0  0
 13 12  1  0  0  0  0
 13 15  1  0  0  0  0
 13 14  1  6  0  0  0
 15  7  1  0  0  0  0
 15 16  1  6  0  0  0
 17 16  1  6  0  0  0
 18 17  1  0  0  0  0
 19 20  1  1  0  0  0
 19 18  1  0  0  0  0
 20 21  1  0  0  0  0
 22 24  1  0  0  0  0
 22 19  1  0  0  0  0
 22 23  1  6  0  0  0
 24 25  1  1  0  0  0
 24 26  1  0  0  0  0
 26 17  1  0  0  0  0
 26 27  1  6  0  0  0
 28 29  1  1  0  0  0
 28 30  1  0  0  0  0
 30 31  1  1  0  0  0
M  END
>  <CHROM.1>
-62.19766330,62.75722851,-73.06160106,-82.86268879,-66.38167472,171.65753486
171.89730789,73.17863018,88.15493135,57.41441015,81.17956549,-179.70139554
-58.71653316,54.56017848,-60.06797911,-65.11743720,-0.57940377,2.28680232
3.46527399,3.01375185,-0.82514242,-2.55826285

>  <Name>
lig.pdb

>  <RI>
0

>  <Rbt.Current_Directory>
/home/itssahil/PROJECTS/Mol_Feturizer/New_Systems/rnas/2n0j

>  <Rbt.Executable>
rbdock ($Id: //depot/dev/client3/rdock/2013.1/src/exe/rbdock.cxx#4 $)

>  <Rbt.Library>
libRbt.so (2013.1, Build901 2013/11/27)

>  <Rbt.Parameter_File>
/export/apps/rDock/src/rDock_2013.1_src/data/scripts/dock_solv.prm

>  <Rbt.Receptor>
prm/pocket_docking_5.prm

>  <SCORE>
-44.0342

>  <SCORE.INTER>
-36.0088

>  <SCORE.INTER.CONST>
1

>  <SCORE.INTER.POLAR>
-4.19172

>  <SCORE.INTER.ROT>
6

>  <SCORE.INTER.SOLV>
12.1549

>  <SCORE.INTER.VDW>
-21.6851

>  <SCORE.INTER.norm>
-1.16157

>  <SCORE.INTRA>
-8.02539

>  <SCORE.INTRA.DIHEDRAL>
-18.6675

>  <SCORE.INTRA.DIHEDRAL.0>
28.0161

>  <SCORE.INTRA.POLAR>
0.000902003

>  <SCORE.INTRA.POLAR.0>
-1.05798

>  <SCORE.INTRA.REPUL>
0

>  <SCORE.INTRA.REPUL.0>
0

>  <SCORE.INTRA.SOLV>
0.16668

>  <SCORE.INTRA.SOLV.lig_0>
-42.5945

>  <SCORE.INTRA.VDW>
1.22194

>  <SCORE.INTRA.VDW.0>
-5.13869

>  <SCORE.INTRA.norm>
-0.258884

>  <SCORE.RESTR>
0

>  <SCORE.RESTR.CAVITY>
0

>  <SCORE.RESTR.norm>
0

>  <SCORE.SYSTEM>
0

>  <SCORE.SYSTEM.CONST>
0

>  <SCORE.SYSTEM.DIHEDRAL>
0

>  <SCORE.SYSTEM.SOLV>
0

>  <SCORE.SYSTEM.norm>
0

>  <SCORE.heavy>
31

>  <SCORE.norm>
-1.42046

>  <RMSD>
0.853

$$$$
lig.pdb
 OpenBabel11021811453D
libRbt.so/2013.1/901 2013/11/27
 31 33  0  0  0  0  0  0  0  0999 V2000
   -3.2111    6.5829    5.9276 O   0  0  0  0  0  0  0  0  0  0  0  0
   -2.6710    5.6780    4.9845 C   0  0  0  0  0  0  0  0  0  0  0  0
   -3.2070    4.2563    5.2002 C   0  0  1  0  0  0  0  0  0  0  0  0
   -3.0577    3.4544    4.0393 O   0  0  0  0  0  0  0  0  0  0  0  0
   -2.9799    2.0820    4.4124 C   0  0  1  0  0  0  0  0  0  0  0  0
   -1.8875    1.4615    3.7449 O   0  0  0  0  0  0  0  0  0  0  0  0
   -2.0956    1.0571    2.4010 C   0  0  2  0  0  0  0  0  0  0  0  0
   -2.4609   -0.4357    2.4131 C   0  0  1  0  0  0  0  0  0  0  0  0
   -3.7490   -0.6081    2.9827 O   0  0  0  0  0  0  0  0  0  0  0  0
   -2.4859   -1.0857    1.0213 C   0  0  2  0  0  0  0  0  0  0  0  0
   -2.7461   -2.5304    1.1177 N   0  0  0  0  0  0  0  0  0  0  0  0
   -1.1509   -0.8562    0.3227 C   0  0  0  0  0  0  0  0  0  0  0  0
   -0.8560    0.6374    0.2574 C   0  0  2  0  0  0  0  0  0  0  0  0
    0.4048    0.8312   -0.4667 N   0  0  0  0  0  0  0  0  0  0  0  0
   -0.7985    1.2364    1.6792 C   0  0  1  0  0  0  0  0  0  0  0  0
   -0.5014    2.6292    1.4969 O   0  0  0  0  0  0  0  0  0  0  0  0
    0.0714    3.3209    2.6015 C   0  0  1  0  0  0  0  0  0  0  0  0
    1.4267    2.9253    2.7950 O   0  0  0  0  0  0  0  0  0  0  0  0
    2.3520    3.3324    1.7893 C   0  0  2  0  0  0  0  0  0  0  0  0
    3.7498    2.8222    2.1641 C   0  0  0  0  0  0  0  0  0  0  0  0
    3.7384    1.3997    2.4745 N   0  0  0  0  0  0  0  0  0  0  0  0
    2.3751    4.8663    1.6544 C   0  0  1  0  0  0  0  0  0  0  0  0
    3.2564    5.2423    0.6111 O   0  0  0  0  0  0  0  0  0  0  0  0
    0.9557    5.3551    1.3401 C   0  0  2  0  0  0  0  0  0  0  0  0
    0.9265    6.7694    1.2965 O   0  0  0  0  0  0  0  0  0  0  0  0
   -0.0406    4.8342    2.3847 C   0  0  1  0  0  0  0  0  0  0  0  0
   -1.4115    5.2021    2.0026 N   0  0  0  0  0  0  0  0  0  0  0  0
   -2.7421    2.0463    5.9291 C   0  0  2  0  0  0  0  0  0  0  0  0
   -3.9066    1.5832    6.5870 O   0  0  0  0  0  0  0  0  0  0  0  0
   -2.4046    3.5005    6.2546 C   0  0  2  0  0  0  0  0  0  0  0  0
   -2.7165    3.8731    7.5824 O   0  0  0  0  0  0  0  0  0  0  0  0
  2  1  1  0  0  0  0
  3  2  1  6  0  0  0
  3 30  1  0  0  0  0
  4  5  1  0  0  0  0
  4  3  1  0  0  0  0
  5 28  1  0  0  0  0
  5  6  1  6  0  0  0
  7  6  1  1  0  0  0
  8  7  1  0  0  0  0
  8  9  1  6  0  0  0
 10 11  1  1  0  0  0
 10  8  1  0  0  0  0
 12 10  1  0  0  0  0
 13 12  1  0  0  0  0
 13 15  1  0  0  0  0
 13 14  1  1  0  0  0
 15  7  1  0  0  0  0
 15 16  1  6  0  0  0
 17 16  1  6  0  0  0
 18 17  1  0  0  0  0
 19 20  1  1  0  0  0
 19 18  1  0  0  0  0
 20 21  1  0  0  0  0
 22 24  1  0  0  0  0
 22 19  1  0  0  0  0
 22 23  1  6  0  0  0
 24 25  1  1  0  0  0
 24 26  1  0  0  0  0
 26 17  1  0  0  0  0
 26 27  1  6  0  0  0
 28 29  1  1  0  0  0
 28 30  1  0  0  0  0
 30 31  1  1  0  0  0
M  END
>  <CHROM.1>
-61.01406334,159.92657545,-80.63040564,-96.68338002,59.62943116,43.78338432
179.86239090,80.99146991,72.46864903,50.92601301,-60.86552521,-69.98914056
174.26282283,-73.20353173,63.87495270,-179.47682335,-0.90134808,2.63945175
2.88249894,-2.98914612,-0.64261521,-2.62210509

>  <Name>
lig.pdb

>  <RI>
2.67765e+07

>  <Rbt.Current_Directory>
/home/itssahil/PROJECTS/Mol_Feturizer/New_Systems/rnas/2n0j

>  <Rbt.Executable>
rbdock ($Id: //depot/dev/client3/rdock/2013.1/src/exe/rbdock.cxx#4 $)

>  <Rbt.Library>
libRbt.so (2013.1, Build901 2013/11/27)

>  <Rbt.Parameter_File>
/export/apps/rDock/src/rDock_2013.1_src/data/scripts/dock_solv.prm

>  <Rbt.Receptor>
prm/pocket_docking_2.prm

>  <SCORE>
-51.5348

>  <SCORE.INTER>
-44.2401

>  <SCORE.INTER.CONST>
1

>  <SCORE.INTER.POLAR>
-5.80785

>  <SCORE.INTER.ROT>
6

>  <SCORE.INTER.SOLV>
13.915

>  <SCORE.INTER.VDW>
-22.3722

>  <SCORE.INTER.norm>
-1.4271

>  <SCORE.INTRA>
-7.31088

>  <SCORE.INTRA.DIHEDRAL>
-14.8998

>  <SCORE.INTRA.DIHEDRAL.0>
28.0161

>  <SCORE.INTRA.POLAR>
0.0832975

>  <SCORE.INTRA.POLAR.0>
-1.05798

>  <SCORE.INTRA.REPUL>
0

>  <SCORE.INTRA.REPUL.0>
0

>  <SCORE.INTRA.SOLV>
-0.425366

>  <SCORE.INTRA.SOLV.lig_0>
-42.5945

>  <SCORE.INTRA.VDW>
0.0684742

>  <SCORE.INTRA.VDW.0>
-5.13869

>  <SCORE.INTRA.norm>
-0.235835

>  <SCORE.RESTR>
0.0162067

>  <SCORE.RESTR.CAVITY>
0.0162067

>  <SCORE.RESTR.norm>
0.000522797

>  <SCORE.SYSTEM>
0

>  <SCORE.SYSTEM.CONST>
0

>  <SCORE.SYSTEM.DIHEDRAL>
0

>  <SCORE.SYSTEM.SOLV>
0

>  <SCORE.SYSTEM.norm>
0

>  <SCORE.heavy>
31

>  <SCORE.norm>
-1.66241

>  <RMSD>
0.859

$$$$
lig.pdb
 OpenBabel11021811453D
libRbt.so/2013.1/901 2013/11/27
 31 33  0  0  0  0  0  0  0  0999 V2000
   -3.1045    6.0921    4.1945 O   0  0  0  0  0  0  0  0  0  0  0  0
   -2.3083    5.4727    5.1857 C   0  0  0  0  0  0  0  0  0  0  0  0
   -2.7854    4.0433    5.4762 C   0  0  1  0  0  0  0  0  0  0  0  0
   -2.6736    3.2077    4.3350 O   0  0  0  0  0  0  0  0  0  0  0  0
   -2.5311    1.8516    4.7469 C   0  0  1  0  0  0  0  0  0  0  0  0
   -1.4572    1.2428    4.0399 O   0  0  0  0  0  0  0  0  0  0  0  0
   -1.7235    0.7921    2.7212 C   0  0  2  0  0  0  0  0  0  0  0  0
   -1.9072   -0.7328    2.7764 C   0  0  1  0  0  0  0  0  0  0  0  0
   -3.1156   -1.0447    3.4515 O   0  0  0  0  0  0  0  0  0  0  0  0
   -1.9671   -1.4068    1.3972 C   0  0  2  0  0  0  0  0  0  0  0  0
   -2.0456   -2.8700    1.5273 N   0  0  0  0  0  0  0  0  0  0  0  0
   -0.7294   -1.0350    0.5891 C   0  0  0  0  0  0  0  0  0  0  0  0
   -0.6199    0.4814    0.4868 C   0  0  2  0  0  0  0  0  0  0  0  0
    0.5466    0.8086   -0.3403 N   0  0  0  0  0  0  0  0  0  0  0  0
   -0.5193    1.1091    1.8937 C   0  0  1  0  0  0  0  0  0  0  0  0
   -0.4050    2.5236    1.6754 O   0  0  0  0  0  0  0  0  0  0  0  0
    0.2027    3.2928    2.7076 C   0  0  1  0  0  0  0  0  0  0  0  0
    1.5792    2.9513    2.8459 O   0  0  0  0  0  0  0  0  0  0  0  0
    2.4341    3.3310    1.7696 C   0  0  2  0  0  0  0  0  0  0  0  0
    3.8669    2.8865    2.0924 C   0  0  0  0  0  0  0  0  0  0  0  0
    3.9398    1.4571    2.3594 N   0  0  0  0  0  0  0  0  0  0  0  0
    2.3971    4.8551    1.5519 C   0  0  1  0  0  0  0  0  0  0  0  0
    3.2072    5.2004    0.4423 O   0  0  0  0  0  0  0  0  0  0  0  0
    0.9468    5.2810    1.2919 C   0  0  2  0  0  0  0  0  0  0  0  0
    0.8666    6.6892    1.1745 O   0  0  0  0  0  0  0  0  0  0  0  0
    0.0271    4.7876    2.4170 C   0  0  1  0  0  0  0  0  0  0  0  0
   -1.3743    5.0906    2.0931 N   0  0  0  0  0  0  0  0  0  0  0  0
   -2.2099    1.8744    6.2484 C   0  0  2  0  0  0  0  0  0  0  0  0
   -3.3212    1.3982    6.9845 O   0  0  0  0  0  0  0  0  0  0  0  0
   -1.9026    3.3484    6.5080 C   0  0  2  0  0  0  0  0  0  0  0  0
   -2.1535    3.7557    7.8385 O   0  0  0  0  0  0  0  0  0  0  0  0
  2  1  1  0  0  0  0
  3  2  1  6  0  0  0
  3 30  1  0  0  0  0
  4  5  1  0  0  0  0
  4  3  1  0  0  0  0
  5 28  1  0  0  0  0
  5  6  1  6  0  0  0
  7  6  1  1  0  0  0
  8  7  1  0  0  0  0
  8  9  1  6  0  0  0
 10 11  1  1  0  0  0
 10  8  1  0  0  0  0
 12 10  1  0  0  0  0
 13 12  1  0  0  0  0
 13 15  1  0  0  0  0
 13 14  1  6  0  0  0
 15  7  1  0  0  0  0
 15 16  1  6  0  0  0
 17 16  1  6  0  0  0
 18 17  1  0  0  0  0
 19 20  1  1  0  0  0
 19 18  1  0  0  0  0
 20 21  1  0  0  0  0
 22 24  1  0  0  0  0
 22 19  1  0  0  0  0
 22 23  1  6  0  0  0
 24 25  1  1  0  0  0
 24 26  1  0  0  0  0
 26 17  1  0  0  0  0
 26 27  1  6  0  0  0
 28 29  1  1  0  0  0
 28 30  1  0  0  0  0
 30 31  1  1  0  0  0
M  END
>  <CHROM.1>
70.45816882,62.61677648,-80.37937694,-102.10907247,62.37232012,-177.31757107
-53.31970082,82.68331555,66.27037986,56.15016394,-173.43576292,-66.95945320
172.53828978,56.91893417,66.09334266,71.02394004,-0.61527707,2.48588738,2.98451006
3.02758945,-0.74312624,-2.72962296

>  <Name>
lig.pdb

>  <RI>
2.74555e+07

>  <Rbt.Current_Directory>
/home/itssahil/PROJECTS/Mol_Feturizer/New_Systems/rnas/2n0j

>  <Rbt.Executable>
rbdock ($Id: //depot/dev/client3/rdock/2013.1/src/exe/rbdock.cxx#4 $)

>  <Rbt.Library>
libRbt.so (2013.1, Build901 2013/11/27)

>  <Rbt.Parameter_File>
/export/apps/rDock/src/rDock_2013.1_src/data/scripts/dock_solv.prm

>  <Rbt.Receptor>
prm/pocket_docking_6.prm

>  <SCORE>
-53.1576

>  <SCORE.INTER>
-45.5269

>  <SCORE.INTER.CONST>
1

>  <SCORE.INTER.POLAR>
-5.98626

>  <SCORE.INTER.ROT>
6

>  <SCORE.INTER.SOLV>
14.5469

>  <SCORE.INTER.VDW>
-22.8461

>  <SCORE.INTER.norm>
-1.46861

>  <SCORE.INTRA>
-7.63072

>  <SCORE.INTRA.DIHEDRAL>
-15.4443

>  <SCORE.INTRA.DIHEDRAL.0>
28.0161

>  <SCORE.INTRA.POLAR>
-0.0766179

>  <SCORE.INTRA.POLAR.0>
-1.05798

>  <SCORE.INTRA.REPUL>
0

>  <SCORE.INTRA.REPUL.0>
0

>  <SCORE.INTRA.SOLV>
0.328494

>  <SCORE.INTRA.SOLV.lig_0>
-42.5945

>  <SCORE.INTRA.VDW>
0.187711

>  <SCORE.INTRA.VDW.0>
-5.13869

>  <SCORE.INTRA.norm>
-0.246152

>  <SCORE.RESTR>
0

>  <SCORE.RESTR.CAVITY>
0

>  <SCORE.RESTR.norm>
0

>  <SCORE.SYSTEM>
0

>  <SCORE.SYSTEM.CONST>
0

>  <SCORE.SYSTEM.DIHEDRAL>
0

>  <SCORE.SYSTEM.SOLV>
0

>  <SCORE.SYSTEM.norm>
0

>  <SCORE.heavy>
31

>  <SCORE.norm>
-1.71476

>  <RMSD>
0.871

$$$$
lig.pdb
 OpenBabel11021811453D
libRbt.so/2013.1/901 2013/11/27
 31 33  0  0  0  0  0  0  0  0999 V2000
   -3.2482    6.6153    6.0448 O   0  0  0  0  0  0  0  0  0  0  0  0
   -3.1212    5.7786    4.9117 C   0  0  0  0  0  0  0  0  0  0  0  0
   -3.3195    4.3019    5.2797 C   0  0  1  0  0  0  0  0  0  0  0  0
   -3.1499    3.4511    4.1570 O   0  0  0  0  0  0  0  0  0  0  0  0
   -2.7436    2.1577    4.5938 C   0  0  1  0  0  0  0  0  0  0  0  0
   -1.6361    1.7127    3.8196 O   0  0  0  0  0  0  0  0  0  0  0  0
   -1.9050    1.2760    2.4968 C   0  0  2  0  0  0  0  0  0  0  0  0
   -2.2525   -0.2199    2.5597 C   0  0  1  0  0  0  0  0  0  0  0  0
   -3.5092   -0.3924    3.1955 O   0  0  0  0  0  0  0  0  0  0  0  0
   -2.3381   -0.9014    1.1855 C   0  0  2  0  0  0  0  0  0  0  0  0
   -2.5771   -2.3461    1.3265 N   0  0  0  0  0  0  0  0  0  0  0  0
   -1.0415   -0.6742    0.4173 C   0  0  0  0  0  0  0  0  0  0  0  0
   -0.7670    0.8204    0.3047 C   0  0  2  0  0  0  0  0  0  0  0  0
    0.4547    1.0107   -0.4845 N   0  0  0  0  0  0  0  0  0  0  0  0
   -0.6469    1.4520    1.7084 C   0  0  1  0  0  0  0  0  0  0  0  0
   -0.3746    2.8433    1.4810 O   0  0  0  0  0  0  0  0  0  0  0  0
    0.2553    3.5625    2.5358 C   0  0  1  0  0  0  0  0  0  0  0  0
    1.5921    3.1073    2.7271 O   0  0  0  0  0  0  0  0  0  0  0  0
    2.5165    3.4105    1.6845 C   0  0  2  0  0  0  0  0  0  0  0  0
    3.8935    2.8486    2.0623 C   0  0  0  0  0  0  0  0  0  0  0  0
    3.8205    1.4386    2.4180 N   0  0  0  0  0  0  0  0  0  0  0  0
    2.6157    4.9316    1.4653 C   0  0  1  0  0  0  0  0  0  0  0  0
    3.4939    5.2040    0.3877 O   0  0  0  0  0  0  0  0  0  0  0  0
    1.2172    5.4766    1.1495 C   0  0  2  0  0  0  0  0  0  0  0  0
    1.2600    6.8861    1.0289 O   0  0  0  0  0  0  0  0  0  0  0  0
    0.2169    5.0657    2.2384 C   0  0  1  0  0  0  0  0  0  0  0  0
   -1.1407    5.4838    1.8606 N   0  0  0  0  0  0  0  0  0  0  0  0
   -2.3199    2.2974    6.0632 C   0  0  2  0  0  0  0  0  0  0  0  0
   -3.2733    1.6691    6.8997 O   0  0  0  0  0  0  0  0  0  0  0  0
   -2.2548    3.8116    6.2558 C   0  0  2  0  0  0  0  0  0  0  0  0
   -2.4725    4.2250    7.5903 O   0  0  0  0  0  0  0  0  0  0  0  0
  2  1  1  0  0  0  0
  3  2  1  6  0  0  0
  3 30  1  0  0  0  0
  4  5  1  0  0  0  0
  4  3  1  0  0  0  0
  5 28  1  0  0  0  0
  5  6  1  6  0  0  0
  7  6  1  1  0  0  0
  8  7  1  0  0  0  0
  8  9  1  6  0  0  0
 10 11  1  1  0  0  0
 10  8  1  0  0  0  0
 12 10  1  0  0  0  0
 13 12  1  0  0  0  0
 13 15  1  0  0  0  0
 13 14  1  6  0  0  0
 15  7  1  0  0  0  0
 15 16  1  6  0  0  0
 17 16  1  6  0  0  0
 18 17  1  0  0  0  0
 19 20  1  1  0  0  0
 19 18  1  0  0  0  0
 20 21  1  0  0  0  0
 22 24  1  0  0  0  0
 22 19  1  0  0  0  0
 22 23  1  6  0  0  0
 24 25  1  1  0  0  0
 24 26  1  0  0  0  0
 26 17  1  0  0  0  0
 26 27  1  6  0  0  0
 28 29  1  1  0  0  0
 28 30  1  0  0  0  0
 30 31  1  1  0  0  0
M  END
>  <CHROM.1>
60.22361205,-178.05176424,-75.10279171,-87.79446773,64.56403980,-66.78736938
-177.04999099,81.58011124,67.84499144,52.36460046,-57.32339532,-171.80797272
-179.09725667,-139.89393709,-174.91606416,-175.78189807,-0.73258731,2.79912909
2.89830037,-2.92272409,-0.67536671,-2.64497427

>  <Name>
lig.pdb

>  <RI>
2.67765e+07

>  <Rbt.Current_Directory>
/home/itssahil/PROJECTS/Mol_Feturizer/New_Systems/rnas/2n0j

>  <Rbt.Executable>
rbdock ($Id: //depot/dev/client3/rdock/2013.1/src/exe/rbdock.cxx#4 $)

>  <Rbt.Library>
libRbt.so (2013.1, Build901 2013/11/27)

>  <Rbt.Parameter_File>
/export/apps/rDock/src/rDock_2013.1_src/data/scripts/dock_solv.prm

>  <Rbt.Receptor>
prm/pocket_docking_2.prm

>  <SCORE>
-48.822

>  <SCORE.INTER>
-44.4013

>  <SCORE.INTER.CONST>
1

>  <SCORE.INTER.POLAR>
-5.6466

>  <SCORE.INTER.ROT>
6

>  <SCORE.INTER.SOLV>
14.6821

>  <SCORE.INTER.VDW>
-23.2729

>  <SCORE.INTER.norm>
-1.4323

>  <SCORE.INTRA>
-4.43702

>  <SCORE.INTRA.DIHEDRAL>
-17.3318

>  <SCORE.INTRA.DIHEDRAL.0>
28.0161

>  <SCORE.INTRA.POLAR>
0.758942

>  <SCORE.INTRA.POLAR.0>
-1.05798

>  <SCORE.INTRA.REPUL>
0.00474642

>  <SCORE.INTRA.REPUL.0>
0

>  <SCORE.INTRA.SOLV>
-0.121389

>  <SCORE.INTRA.SOLV.lig_0>
-42.5945

>  <SCORE.INTRA.VDW>
1.68544

>  <SCORE.INTRA.VDW.0>
-5.13869

>  <SCORE.INTRA.norm>
-0.14313

>  <SCORE.RESTR>
0.0163468

>  <SCORE.RESTR.CAVITY>
0.0163468

>  <SCORE.RESTR.norm>
0.000527316

>  <SCORE.SYSTEM>
0

>  <SCORE.SYSTEM.CONST>
0

>  <SCORE.SYSTEM.DIHEDRAL>
0

>  <SCORE.SYSTEM.SOLV>
0

>  <SCORE.SYSTEM.norm>
0

>  <SCORE.heavy>
31

>  <SCORE.norm>
-1.5749

>  <RMSD>
0.907

$$$$
lig.pdb
 OpenBabel11021811453D
libRbt.so/2013.1/901 2013/11/27
 31 33  0  0  0  0  0  0  0  0999 V2000
   -2.7096    6.2589    4.9864 O   0  0  0  0  0  0  0  0  0  0  0  0
   -2.1612    5.1501    5.6719 C   0  0  0  0  0  0  0  0  0  0  0  0
   -3.0071    3.8868    5.4628 C   0  0  1  0  0  0  0  0  0  0  0  0
   -2.7577    3.2879    4.2010 O   0  0  0  0  0  0  0  0  0  0  0  0
   -3.0458    1.8945    4.2673 C   0  0  1  0  0  0  0  0  0  0  0  0
   -1.9764    1.1527    3.6931 O   0  0  0  0  0  0  0  0  0  0  0  0
   -2.1442    0.7030    2.3580 C   0  0  2  0  0  0  0  0  0  0  0  0
   -2.3817   -0.8148    2.4021 C   0  0  1  0  0  0  0  0  0  0  0  0
   -3.6527   -1.0835    2.9729 O   0  0  0  0  0  0  0  0  0  0  0  0
   -2.3462   -1.4947    1.0249 C   0  0  2  0  0  0  0  0  0  0  0  0
   -2.4833   -2.9538    1.1525 N   0  0  0  0  0  0  0  0  0  0  0  0
   -1.0328   -1.1679    0.3240 C   0  0  0  0  0  0  0  0  0  0  0  0
   -0.8654    0.3435    0.2266 C   0  0  2  0  0  0  0  0  0  0  0  0
    0.3773    0.6279   -0.4991 N   0  0  0  0  0  0  0  0  0  0  0  0
   -0.8643    0.9760    1.6350 C   0  0  1  0  0  0  0  0  0  0  0  0
   -0.6856    2.3847    1.4228 O   0  0  0  0  0  0  0  0  0  0  0  0
   -0.2150    3.1529    2.5250 C   0  0  1  0  0  0  0  0  0  0  0  0
    1.1533    2.8601    2.7948 O   0  0  0  0  0  0  0  0  0  0  0  0
    2.0958    3.2957    1.8173 C   0  0  2  0  0  0  0  0  0  0  0  0
    3.5056    2.8979    2.2744 C   0  0  0  0  0  0  0  0  0  0  0  0
    3.6067    1.4673    2.5248 N   0  0  0  0  0  0  0  0  0  0  0  0
    2.0205    4.8218    1.6253 C   0  0  1  0  0  0  0  0  0  0  0  0
    2.9230    5.2220    0.6095 O   0  0  0  0  0  0  0  0  0  0  0  0
    0.5877    5.1988    1.2286 C   0  0  2  0  0  0  0  0  0  0  0  0
    0.4641    6.6052    1.1299 O   0  0  0  0  0  0  0  0  0  0  0  0
   -0.4196    4.6462    2.2460 C   0  0  1  0  0  0  0  0  0  0  0  0
   -1.7925    4.9036    1.7883 N   0  0  0  0  0  0  0  0  0  0  0  0
   -3.1773    1.5380    5.7552 C   0  0  2  0  0  0  0  0  0  0  0  0
   -4.5310    1.2653    6.0659 O   0  0  0  0  0  0  0  0  0  0  0  0
   -2.6391    2.7862    6.4528 C   0  0  2  0  0  0  0  0  0  0  0  0
   -3.1680    2.9861    7.7487 O   0  0  0  0  0  0  0  0  0  0  0  0
  2  1  1  0  0  0  0
  3  2  1  1  0  0  0
  3 30  1  0  0  0  0
  4  5  1  0  0  0  0
  4  3  1  0  0  0  0
  5 28  1  0  0  0  0
  5  6  1  1  0  0  0
  7  6  1  1  0  0  0
  8  7  1  0  0  0  0
  8  9  1  6  0  0  0
 10 11  1  1  0  0  0
 10  8  1  0  0  0  0
 12 10  1  0  0  0  0
 13 12  1  0  0  0  0
 13 15  1  0  0  0  0
 13 14  1  1  0  0  0
 15  7  1  0  0  0  0
 15 16  1  6  0  0  0
 17 16  1  6  0  0  0
 18 17  1  0  0  0  0
 19 20  1  1  0  0  0
 19 18  1  0  0  0  0
 20 21  1  0  0  0  0
 22 24  1  0  0  0  0
 22 19  1  0  0  0  0
 22 23  1  6  0  0  0
 24 25  1  1  0  0  0
 24 26  1  0  0  0  0
 26 17  1  0  0  0  0
 26 27  1  6  0  0  0
 28 29  1  1  0  0  0
 28 30  1  0  0  0  0
 30 31  1  1  0  0  0
M  END
>  <CHROM.1>
-56.20501896,78.79490224,-99.30564362,-107.04317883,61.36674691,-82.98970222
-176.60316146,79.19774410,70.99453781,55.97248585,-62.16630463,-64.00179896
168.32069531,-61.04210415,-160.77970810,-175.65224232,-1.01314345,2.36085500
2.83899655,2.98001776,-0.70406912,-2.64319608

>  <Name>
lig.pdb

>  <RI>
2.67765e+07

>  <Rbt.Current_Directory>
/home/itssahil/PROJECTS/Mol_Feturizer/New_Systems/rnas/2n0j

>  <Rbt.Executable>
rbdock ($Id: //depot/dev/client3/rdock/2013.1/src/exe/rbdock.cxx#4 $)

>  <Rbt.Library>
libRbt.so (2013.1, Build901 2013/11/27)

>  <Rbt.Parameter_File>
/export/apps/rDock/src/rDock_2013.1_src/data/scripts/dock_solv.prm

>  <Rbt.Receptor>
prm/pocket_docking_2.prm

>  <SCORE>
-46.7541

>  <SCORE.INTER>
-43.492

>  <SCORE.INTER.CONST>
1

>  <SCORE.INTER.POLAR>
-6.19151

>  <SCORE.INTER.ROT>
6

>  <SCORE.INTER.SOLV>
13.8215

>  <SCORE.INTER.VDW>
-20.5634

>  <SCORE.INTER.norm>
-1.40297

>  <SCORE.INTRA>
-3.78428

>  <SCORE.INTRA.DIHEDRAL>
-8.78816

>  <SCORE.INTRA.DIHEDRAL.0>
28.0161

>  <SCORE.INTRA.POLAR>
0.205381

>  <SCORE.INTRA.POLAR.0>
-1.05798

>  <SCORE.INTRA.REPUL>
0

>  <SCORE.INTRA.REPUL.0>
0

>  <SCORE.INTRA.SOLV>
-0.132234

>  <SCORE.INTRA.SOLV.lig_0>
-42.5945

>  <SCORE.INTRA.VDW>
-0.0223747

>  <SCORE.INTRA.VDW.0>
-5.13869

>  <SCORE.INTRA.norm>
-0.122073

>  <SCORE.RESTR>
0.522162

>  <SCORE.RESTR.CAVITY>
0.522162

>  <SCORE.RESTR.norm>
0.0168439

>  <SCORE.SYSTEM>
0

>  <SCORE.SYSTEM.CONST>
0

>  <SCORE.SYSTEM.DIHEDRAL>
0

>  <SCORE.SYSTEM.SOLV>
0

>  <SCORE.SYSTEM.norm>
0

>  <SCORE.heavy>
31

>  <SCORE.norm>
-1.5082

>  <RMSD>
0.918

$$$$
lig.pdb
 OpenBabel11021811453D
libRbt.so/2013.1/901 2013/11/27
 31 33  0  0  0  0  0  0  0  0999 V2000
   -3.1310    5.4125    7.0106 O   0  0  0  0  0  0  0  0  0  0  0  0
   -2.4324    4.2241    7.3263 C   0  0  0  0  0  0  0  0  0  0  0  0
   -3.0279    3.0124    6.5967 C   0  0  1  0  0  0  0  0  0  0  0  0
   -2.7403    3.0394    5.2076 O   0  0  0  0  0  0  0  0  0  0  0  0
   -2.7485    1.7120    4.6913 C   0  0  1  0  0  0  0  0  0  0  0  0
   -1.5904    1.4973    3.8934 O   0  0  0  0  0  0  0  0  0  0  0  0
   -1.7936    1.0187    2.5734 C   0  0  2  0  0  0  0  0  0  0  0  0
   -2.0118   -0.5005    2.6552 C   0  0  1  0  0  0  0  0  0  0  0  0
   -3.2616   -0.7715    3.2699 O   0  0  0  0  0  0  0  0  0  0  0  0
   -2.0103   -1.2078    1.2914 C   0  0  2  0  0  0  0  0  0  0  0  0
   -2.1264   -2.6655    1.4523 N   0  0  0  0  0  0  0  0  0  0  0  0
   -0.7228   -0.8809    0.5442 C   0  0  0  0  0  0  0  0  0  0  0  0
   -0.5761    0.6300    0.4114 C   0  0  2  0  0  0  0  0  0  0  0  0
    0.6404    0.9133   -0.3577 N   0  0  0  0  0  0  0  0  0  0  0  0
   -0.5396    1.2910    1.8062 C   0  0  1  0  0  0  0  0  0  0  0  0
   -0.3839    2.6970    1.5603 O   0  0  0  0  0  0  0  0  0  0  0  0
    0.2572    3.4660    2.5723 C   0  0  1  0  0  0  0  0  0  0  0  0
    1.5875    3.0034    2.7891 O   0  0  0  0  0  0  0  0  0  0  0  0
    2.5152    3.2334    1.7308 C   0  0  2  0  0  0  0  0  0  0  0  0
    3.8844    2.6742    2.1399 C   0  0  0  0  0  0  0  0  0  0  0  0
    3.8062    1.2639    2.4931 N   0  0  0  0  0  0  0  0  0  0  0  0
    2.6360    4.7379    1.4253 C   0  0  1  0  0  0  0  0  0  0  0  0
    3.5169    4.9359    0.3338 O   0  0  0  0  0  0  0  0  0  0  0  0
    1.2452    5.2840    1.0791 C   0  0  2  0  0  0  0  0  0  0  0  0
    1.3079    6.6836    0.8784 O   0  0  0  0  0  0  0  0  0  0  0  0
    0.2400    4.9503    2.1897 C   0  0  1  0  0  0  0  0  0  0  0  0
   -1.1118    5.3656    1.7889 N   0  0  0  0  0  0  0  0  0  0  0  0
   -2.7224    0.7647    5.8997 C   0  0  2  0  0  0  0  0  0  0  0  0
   -3.9774    0.1243    6.0351 O   0  0  0  0  0  0  0  0  0  0  0  0
   -2.3971    1.7034    7.0605 C   0  0  2  0  0  0  0  0  0  0  0  0
   -2.8791    1.2506    8.3102 O   0  0  0  0  0  0  0  0  0  0  0  0
  2  1  1  0  0  0  0
  3  2  1  1  0  0  0
  3 30  1  0  0  0  0
  4  5  1  0  0  0  0
  4  3  1  0  0  0  0
  5 28  1  0  0  0  0
  5  6  1  6  0  0  0
  7  6  1  1  0  0  0
  8  7  1  0  0  0  0
  8  9  1  6  0  0  0
 10 11  1  1  0  0  0
 10  8  1  0  0  0  0
 12 10  1  0  0  0  0
 13 12  1  0  0  0  0
 13 15  1  0  0  0  0
 13 14  1  1  0  0  0
 15  7  1  0  0  0  0
 15 16  1  6  0  0  0
 17 16  1  6  0  0  0
 18 17  1  0  0  0  0
 19 20  1  1  0  0  0
 19 18  1  0  0  0  0
 20 21  1  0  0  0  0
 22 24  1  0  0  0  0
 22 19  1  0  0  0  0
 22 23  1  6  0  0  0
 24 25  1  1  0  0  0
 24 26  1  0  0  0  0
 26 17  1  0  0  0  0
 26 27  1  6  0  0  0
 28 29  1  1  0  0  0
 28 30  1  0  0  0  0
 30 31  1  1  0  0  0
M  END
>  <CHROM.1>
-179.53744050,71.76408281,-126.47890570,-80.83337240,63.07681351,168.70830855
-52.38482746,86.44498169,60.98331044,56.04820387,64.12977932,-178.96017650
-60.41199714,-36.63597061,171.14310272,-177.37336696,-0.66391464,2.22994370
3.12801721,-3.06503554,-0.80885835,-2.56674978

>  <Name>
lig.pdb

>  <RI>
2.67765e+07

>  <Rbt.Current_Directory>
/home/itssahil/PROJECTS/Mol_Feturizer/New_Systems/rnas/2n0j

>  <Rbt.Executable>
rbdock ($Id: //depot/dev/client3/rdock/2013.1/src/exe/rbdock.cxx#4 $)

>  <Rbt.Library>
libRbt.so (2013.1, Build901 2013/11/27)

>  <Rbt.Parameter_File>
/export/apps/rDock/src/rDock_2013.1_src/data/scripts/dock_solv.prm

>  <Rbt.Receptor>
prm/pocket_docking_2.prm

>  <SCORE>
-48.6196

>  <SCORE.INTER>
-46.1926

>  <SCORE.INTER.CONST>
1

>  <SCORE.INTER.POLAR>
-6.35403

>  <SCORE.INTER.ROT>
6

>  <SCORE.INTER.SOLV>
13.8017

>  <SCORE.INTER.VDW>
-21.8156

>  <SCORE.INTER.norm>
-1.49009

>  <SCORE.INTRA>
-2.67888

>  <SCORE.INTRA.DIHEDRAL>
-13.1281

>  <SCORE.INTRA.DIHEDRAL.0>
28.0161

>  <SCORE.INTRA.POLAR>
0.901114

>  <SCORE.INTRA.POLAR.0>
-1.05798

>  <SCORE.INTRA.REPUL>
0.00885448

>  <SCORE.INTRA.REPUL.0>
0

>  <SCORE.INTRA.SOLV>
-0.217464

>  <SCORE.INTRA.SOLV.lig_0>
-42.5945

>  <SCORE.INTRA.VDW>
0.885829

>  <SCORE.INTRA.VDW.0>
-5.13869

>  <SCORE.INTRA.norm>
-0.0864154

>  <SCORE.RESTR>
0.251903

>  <SCORE.RESTR.CAVITY>
0.251903

>  <SCORE.RESTR.norm>
0.00812591

>  <SCORE.SYSTEM>
0

>  <SCORE.SYSTEM.CONST>
0

>  <SCORE.SYSTEM.DIHEDRAL>
0

>  <SCORE.SYSTEM.SOLV>
0

>  <SCORE.SYSTEM.norm>
0

>  <SCORE.heavy>
31

>  <SCORE.norm>
-1.56837

>  <RMSD>
0.938

$$$$
lig.pdb
 OpenBabel11021811453D
libRbt.so/2013.1/901 2013/11/27
 31 33  0  0  0  0  0  0  0  0999 V2000
   -5.1310    4.1357    4.8246 O   0  0  0  0  0  0  0  0  0  0  0  0
   -4.0296    4.0934    5.7108 C   0  0  0  0  0  0  0  0  0  0  0  0
   -3.6409    2.6490    6.0543 C   0  0  1  0  0  0  0  0  0  0  0  0
   -3.3626    1.8866    4.8906 O   0  0  0  0  0  0  0  0  0  0  0  0
   -2.4682    0.8267    5.2154 C   0  0  1  0  0  0  0  0  0  0  0  0
   -1.4102    0.7798    4.2656 O   0  0  0  0  0  0  0  0  0  0  0  0
   -1.7510    0.4281    2.9340 C   0  0  2  0  0  0  0  0  0  0  0  0
   -1.9088   -1.0998    2.8798 C   0  0  1  0  0  0  0  0  0  0  0  0
   -3.0686   -1.4864    3.6001 O   0  0  0  0  0  0  0  0  0  0  0  0
   -2.0442   -1.6655    1.4579 C   0  0  2  0  0  0  0  0  0  0  0  0
   -2.0934   -3.1356    1.4768 N   0  0  0  0  0  0  0  0  0  0  0  0
   -0.8643   -1.2083    0.6083 C   0  0  0  0  0  0  0  0  0  0  0  0
   -0.7831    0.3133    0.6194 C   0  0  2  0  0  0  0  0  0  0  0  0
    0.3252    0.7262   -0.2483 N   0  0  0  0  0  0  0  0  0  0  0  0
   -0.6049    0.8315    2.0628 C   0  0  1  0  0  0  0  0  0  0  0  0
   -0.5247    2.2606    1.9501 O   0  0  0  0  0  0  0  0  0  0  0  0
    0.1127    2.9610    3.0131 C   0  0  1  0  0  0  0  0  0  0  0  0
    1.5242    2.7711    2.9658 O   0  0  0  0  0  0  0  0  0  0  0  0
    2.2063    3.3821    1.8727 C   0  0  2  0  0  0  0  0  0  0  0  0
    3.7052    3.0743    1.9876 C   0  0  0  0  0  0  0  0  0  0  0  0
    3.9470    1.6596    2.2324 N   0  0  0  0  0  0  0  0  0  0  0  0
    1.9850    4.9062    1.8716 C   0  0  1  0  0  0  0  0  0  0  0  0
    2.6226    5.4820    0.7454 O   0  0  0  0  0  0  0  0  0  0  0  0
    0.4779    5.1856    1.8178 C   0  0  2  0  0  0  0  0  0  0  0  0
    0.2376    6.5777    1.9040 O   0  0  0  0  0  0  0  0  0  0  0  0
   -0.2507    4.4488    2.9498 C   0  0  1  0  0  0  0  0  0  0  0  0
   -1.7039    4.6210    2.8112 N   0  0  0  0  0  0  0  0  0  0  0  0
   -1.8963    1.1380    6.6062 C   0  0  2  0  0  0  0  0  0  0  0  0
   -2.4282    0.2348    7.5573 O   0  0  0  0  0  0  0  0  0  0  0  0
   -2.3339    2.5834    6.8380 C   0  0  2  0  0  0  0  0  0  0  0  0
   -2.4712    2.9240    8.2034 O   0  0  0  0  0  0  0  0  0  0  0  0
  2  1  1  0  0  0  0
  3  2  1  6  0  0  0
  3 30  1  0  0  0  0
  4  5  1  0  0  0  0
  4  3  1  0  0  0  0
  5 28  1  0  0  0  0
  5  6  1  6  0  0  0
  7  6  1  1  0  0  0
  8  7  1  0  0  0  0
  8  9  1  1  0  0  0
 10 11  1  1  0  0  0
 10  8  1  0  0  0  0
 12 10  1  0  0  0  0
 13 12  1  0  0  0  0
 13 15  1  0  0  0  0
 13 14  1  6  0  0  0
 15  7  1  0  0  0  0
 15 16  1  6  0  0  0
 17 16  1  6  0  0  0
 18 17  1  0  0  0  0
 19 20  1  1  0  0  0
 19 18  1  0  0  0  0
 20 21  1  0  0  0  0
 22 24  1  0  0  0  0
 22 19  1  0  0  0  0
 22 23  1  6  0  0  0
 24 25  1  1  0  0  0
 24 26  1  0  0  0  0
 26 17  1  0  0  0  0
 26 27  1  6  0  0  0
 28 29  1  1  0  0  0
 28 30  1  0  0  0  0
 30 31  1  1  0  0  0
M  END
>  <CHROM.1>
-177.97930195,56.16865803,-66.39988691,-79.19868716,-74.54324524,51.90970080
-67.59963817,81.55501452,73.55024027,48.23256208,61.82107678,-63.60369678
100.54166293,68.60428926,61.02533419,178.24956194,-0.89252377,2.01789329
3.28418546,3.04769645,-0.76798121,-2.71298917

>  <Name>
lig.pdb

>  <RI>
3.50357e+07

>  <Rbt.Current_Directory>
/home/itssahil/PROJECTS/Mol_Feturizer/New_Systems/rnas/2n0j

>  <Rbt.Executable>
rbdock ($Id: //depot/dev/client3/rdock/2013.1/src/exe/rbdock.cxx#4 $)

>  <Rbt.Library>
libRbt.so (2013.1, Build901 2013/11/27)

>  <Rbt.Parameter_File>
/export/apps/rDock/src/rDock_2013.1_src/data/scripts/dock_solv.prm

>  <Rbt.Receptor>
prm/pocket_docking_3.prm

>  <SCORE>
-45.3291

>  <SCORE.INTER>
-42.0227

>  <SCORE.INTER.CONST>
1

>  <SCORE.INTER.POLAR>
-5.66331

>  <SCORE.INTER.ROT>
6

>  <SCORE.INTER.SOLV>
12.7857

>  <SCORE.INTER.VDW>
-20.9994

>  <SCORE.INTER.norm>
-1.35557

>  <SCORE.INTRA>
-3.31148

>  <SCORE.INTRA.DIHEDRAL>
-15.2503

>  <SCORE.INTRA.DIHEDRAL.0>
28.0161

>  <SCORE.INTRA.POLAR>
1.01616

>  <SCORE.INTRA.POLAR.0>
-1.05798

>  <SCORE.INTRA.REPUL>
0

>  <SCORE.INTRA.REPUL.0>
0

>  <SCORE.INTRA.SOLV>
-0.621695

>  <SCORE.INTRA.SOLV.lig_0>
-42.5945

>  <SCORE.INTRA.VDW>
1.16957

>  <SCORE.INTRA.VDW.0>
-5.13869

>  <SCORE.INTRA.norm>
-0.106822

>  <SCORE.RESTR>
0.00515327

>  <SCORE.RESTR.CAVITY>
0.00515327

>  <SCORE.RESTR.norm>
0.000166235

>  <SCORE.SYSTEM>
0

>  <SCORE.SYSTEM.CONST>
0

>  <SCORE.SYSTEM.DIHEDRAL>
0

>  <SCORE.SYSTEM.SOLV>
0

>  <SCORE.SYSTEM.norm>
0

>  <SCORE.heavy>
31

>  <SCORE.norm>
-1.46223

>  <RMSD>
0.999

$$$$
lig.pdb
 OpenBabel11021811453D
libRbt.so/2013.1/901 2013/11/27
 31 33  0  0  0  0  0  0  0  0999 V2000
   -1.7260    5.7063    4.4953 O   0  0  0  0  0  0  0  0  0  0  0  0
   -2.8665    5.4912    5.3034 C   0  0  0  0  0  0  0  0  0  0  0  0
   -3.1410    3.9940    5.4994 C   0  0  1  0  0  0  0  0  0  0  0  0
   -2.9510    3.2613    4.2994 O   0  0  0  0  0  0  0  0  0  0  0  0
   -2.6180    1.9117    4.6104 C   0  0  1  0  0  0  0  0  0  0  0  0
   -1.4928    1.5029    3.8419 O   0  0  0  0  0  0  0  0  0  0  0  0
   -1.7420    1.0458    2.5222 C   0  0  2  0  0  0  0  0  0  0  0  0
   -1.9813   -0.4709    2.5900 C   0  0  1  0  0  0  0  0  0  0  0  0
   -3.2167   -0.7315    3.2376 O   0  0  0  0  0  0  0  0  0  0  0  0
   -2.0308   -1.1592    1.2174 C   0  0  2  0  0  0  0  0  0  0  0  0
   -2.1648   -2.6170    1.3621 N   0  0  0  0  0  0  0  0  0  0  0  0
   -0.7608   -0.8415    0.4370 C   0  0  0  0  0  0  0  0  0  0  0  0
   -0.5946    0.6686    0.3202 C   0  0  2  0  0  0  0  0  0  0  0  0
    0.6032    0.9441   -0.4806 N   0  0  0  0  0  0  0  0  0  0  0  0
   -0.5069    1.3096    1.7220 C   0  0  1  0  0  0  0  0  0  0  0  0
   -0.3366    2.7164    1.4906 O   0  0  0  0  0  0  0  0  0  0  0  0
    0.2977    3.4713    2.5174 C   0  0  1  0  0  0  0  0  0  0  0  0
    1.6305    3.0133    2.7285 O   0  0  0  0  0  0  0  0  0  0  0  0
    2.5587    3.2680    1.6764 C   0  0  2  0  0  0  0  0  0  0  0  0
    3.9306    2.7103    2.0781 C   0  0  0  0  0  0  0  0  0  0  0  0
    3.8470    1.3138    2.4813 N   0  0  0  0  0  0  0  0  0  0  0  0
    2.6704    4.7785    1.3980 C   0  0  1  0  0  0  0  0  0  0  0  0
    3.5522    5.0016    0.3120 O   0  0  0  0  0  0  0  0  0  0  0  0
    1.2768    5.3219    1.0589 C   0  0  2  0  0  0  0  0  0  0  0  0
    1.3310    6.7252    0.8833 O   0  0  0  0  0  0  0  0  0  0  0  0
    0.2717    4.9620    2.1613 C   0  0  1  0  0  0  0  0  0  0  0  0
   -1.0819    5.3758    1.7653 N   0  0  0  0  0  0  0  0  0  0  0  0
   -2.2611    1.8745    6.1035 C   0  0  2  0  0  0  0  0  0  0  0  0
   -3.2783    1.2038    6.8239 O   0  0  0  0  0  0  0  0  0  0  0  0
   -2.1454    3.3551    6.4624 C   0  0  2  0  0  0  0  0  0  0  0  0
   -2.4111    3.6329    7.8231 O   0  0  0  0  0  0  0  0  0  0  0  0
  2  1  1  0  0  0  0
  3  2  1  6  0  0  0
  3 30  1  0  0  0  0
  4  5  1  0  0  0  0
  4  3  1  0  0  0  0
  5 28  1  0  0  0  0
  5  6  1  6  0  0  0
  7  6  1  1  0  0  0
  8  7  1  0  0  0  0
  8  9  1  6  0  0  0
 10 11  1  1  0  0  0
 10  8  1  0  0  0  0
 12 10  1  0  0  0  0
 13 12  1  0  0  0  0
 13 15  1  0  0  0  0
 13 14  1  6  0  0  0
 15  7  1  0  0  0  0
 15 16  1  6  0  0  0
 17 16  1  6  0  0  0
 18 17  1  0  0  0  0
 19 20  1  1  0  0  0
 19 18  1  0  0  0  0
 20 21  1  0  0  0  0
 22 24  1  0  0  0  0
 22 19  1  0  0  0  0
 22 23  1  6  0  0  0
 24 25  1  1  0  0  0
 24 26  1  0  0  0  0
 26 17  1  0  0  0  0
 26 27  1  6  0  0  0
 28 29  1  1  0  0  0
 28 30  1  0  0  0  0
 30 31  1  1  0  0  0
M  END
>  <CHROM.1>
-162.67452844,-41.34219456,-83.57721074,-89.85272956,-168.87495754,-65.91474146
-176.43945369,83.97393945,62.14969637,52.69279395,65.35056646,-67.87667939
166.30754657,81.99478747,176.65660882,-175.12731111,-0.54929178,2.54714572
2.86979366,3.13605077,-0.73811591,-2.65587048

>  <Name>
lig.pdb

>  <RI>
2.67765e+07

>  <Rbt.Current_Directory>
/home/itssahil/PROJECTS/Mol_Feturizer/New_Systems/rnas/2n0j

>  <Rbt.Executable>
rbdock ($Id: //depot/dev/client3/rdock/2013.1/src/exe/rbdock.cxx#4 $)

>  <Rbt.Library>
libRbt.so (2013.1, Build901 2013/11/27)

>  <Rbt.Parameter_File>
/export/apps/rDock/src/rDock_2013.1_src/data/scripts/dock_solv.prm

>  <Rbt.Receptor>
prm/pocket_docking_2.prm

>  <SCORE>
-52.9813

>  <SCORE.INTER>
-47.6006

>  <SCORE.INTER.CONST>
1

>  <SCORE.INTER.POLAR>
-6.41219

>  <SCORE.INTER.ROT>
6

>  <SCORE.INTER.SOLV>
14.319

>  <SCORE.INTER.VDW>
-22.7328

>  <SCORE.INTER.norm>
-1.5355

>  <SCORE.INTRA>
-5.84264

>  <SCORE.INTRA.DIHEDRAL>
-13.2301

>  <SCORE.INTRA.DIHEDRAL.0>
28.0161

>  <SCORE.INTRA.POLAR>
-0.0577653

>  <SCORE.INTRA.POLAR.0>
-1.05798

>  <SCORE.INTRA.REPUL>
0

>  <SCORE.INTRA.REPUL.0>
0

>  <SCORE.INTRA.SOLV>
0.929359

>  <SCORE.INTRA.SOLV.lig_0>
-42.5945

>  <SCORE.INTRA.VDW>
0.504156

>  <SCORE.INTRA.VDW.0>
-5.13869

>  <SCORE.INTRA.norm>
-0.188472

>  <SCORE.RESTR>
0.461962

>  <SCORE.RESTR.CAVITY>
0.461962

>  <SCORE.RESTR.norm>
0.014902

>  <SCORE.SYSTEM>
0

>  <SCORE.SYSTEM.CONST>
0

>  <SCORE.SYSTEM.DIHEDRAL>
0

>  <SCORE.SYSTEM.SOLV>
0

>  <SCORE.SYSTEM.norm>
0

>  <SCORE.heavy>
31

>  <SCORE.norm>
-1.70907

>  <RMSD>
1.000

$$$$
lig.pdb
 OpenBabel11021811453D
libRbt.so/2013.1/901 2013/11/27
 31 33  0  0  0  0  0  0  0  0999 V2000
   -2.0144    6.0960    6.1796 O   0  0  0  0  0  0  0  0  0  0  0  0
   -3.3464    5.6434    6.3242 C   0  0  0  0  0  0  0  0  0  0  0  0
   -3.4416    4.1199    6.1664 C   0  0  1  0  0  0  0  0  0  0  0  0
   -3.2420    3.7153    4.8212 O   0  0  0  0  0  0  0  0  0  0  0  0
   -2.7441    2.3811    4.7916 C   0  0  1  0  0  0  0  0  0  0  0  0
   -1.6273    2.3021    3.9139 O   0  0  0  0  0  0  0  0  0  0  0  0
   -1.8754    1.8584    2.5893 C   0  0  2  0  0  0  0  0  0  0  0  0
   -2.3848    0.4106    2.6688 C   0  0  1  0  0  0  0  0  0  0  0  0
   -3.6829    0.3912    3.2413 O   0  0  0  0  0  0  0  0  0  0  0  0
   -2.4747   -0.2974    1.3083 C   0  0  2  0  0  0  0  0  0  0  0  0
   -2.8747   -1.7038    1.4702 N   0  0  0  0  0  0  0  0  0  0  0  0
   -1.1244   -0.2318    0.6044 C   0  0  0  0  0  0  0  0  0  0  0  0
   -0.6851    1.2213    0.4715 C   0  0  2  0  0  0  0  0  0  0  0  0
    0.5878    1.2575   -0.2565 N   0  0  0  0  0  0  0  0  0  0  0  0
   -0.5678    1.8767    1.8645 C   0  0  1  0  0  0  0  0  0  0  0  0
   -0.1362    3.2240    1.6193 O   0  0  0  0  0  0  0  0  0  0  0  0
    0.6199    3.8602    2.6440 C   0  0  1  0  0  0  0  0  0  0  0  0
    1.9098    3.2657    2.7604 O   0  0  0  0  0  0  0  0  0  0  0  0
    2.8051    3.4840    1.6722 C   0  0  2  0  0  0  0  0  0  0  0  0
    4.1335    2.7769    1.9720 C   0  0  0  0  0  0  0  0  0  0  0  0
    3.9239    1.4182    2.4512 N   0  0  0  0  0  0  0  0  0  0  0  0
    3.0515    4.9891    1.4588 C   0  0  1  0  0  0  0  0  0  0  0  0
    3.8958    5.1821    0.3378 O   0  0  0  0  0  0  0  0  0  0  0  0
    1.7033    5.6809    1.2220 C   0  0  2  0  0  0  0  0  0  0  0  0
    1.8871    7.0797    1.1093 O   0  0  0  0  0  0  0  0  0  0  0  0
    0.7237    5.3629    2.3597 C   0  0  1  0  0  0  0  0  0  0  0  0
   -0.6005    5.9250    2.0580 N   0  0  0  0  0  0  0  0  0  0  0  0
   -2.2986    2.0409    6.2213 C   0  0  2  0  0  0  0  0  0  0  0  0
   -3.1915    1.1025    6.7920 O   0  0  0  0  0  0  0  0  0  0  0  0
   -2.3268    3.4000    6.9187 C   0  0  2  0  0  0  0  0  0  0  0  0
   -2.5417    3.3189    8.3138 O   0  0  0  0  0  0  0  0  0  0  0  0
  2  1  1  0  0  0  0
  3  2  1  6  0  0  0
  3 30  1  0  0  0  0
  4  5  1  0  0  0  0
  4  3  1  0  0  0  0
  5 28  1  0  0  0  0
  5  6  1  6  0  0  0
  7  6  1  1  0  0  0
  8  7  1  0  0  0  0
  8  9  1  6  0  0  0
 10 11  1  1  0  0  0
 10  8  1  0  0  0  0
 12 10  1  0  0  0  0
 13 12  1  0  0  0  0
 13 15  1  0  0  0  0
 13 14  1  1  0  0  0
 15  7  1  0  0  0  0
 15 16  1  6  0  0  0
 17 16  1  6  0  0  0
 18 17  1  0  0  0  0
 19 20  1  1  0  0  0
 19 18  1  0  0  0  0
 20 21  1  0  0  0  0
 22 24  1  0  0  0  0
 22 19  1  0  0  0  0
 22 23  1  6  0  0  0
 24 25  1  1  0  0  0
 24 26  1  0  0  0  0
 26 17  1  0  0  0  0
 26 27  1  6  0  0  0
 28 29  1  1  0  0  0
 28 30  1  0  0  0  0
 30 31  1  1  0  0  0
M  END
>  <CHROM.1>
-170.06365881,-71.50030877,-96.61705110,-63.47852772,62.49223309,-58.48231829
-176.04114946,87.11314648,69.29481154,46.57960455,-50.46706759,-178.54646114
-58.87772478,133.88494097,67.24570335,-58.19597194,-0.57125855,2.95204925
3.10861730,-2.94340382,-0.68420255,-2.50990741

>  <Name>
lig.pdb

>  <RI>
2.67765e+07

>  <Rbt.Current_Directory>
/home/itssahil/PROJECTS/Mol_Feturizer/New_Systems/rnas/2n0j

>  <Rbt.Executable>
rbdock ($Id: //depot/dev/client3/rdock/2013.1/src/exe/rbdock.cxx#4 $)

>  <Rbt.Library>
libRbt.so (2013.1, Build901 2013/11/27)

>  <Rbt.Parameter_File>
/export/apps/rDock/src/rDock_2013.1_src/data/scripts/dock_solv.prm

>  <Rbt.Receptor>
prm/pocket_docking_2.prm

>  <SCORE>
-44.0076

>  <SCORE.INTER>
-42.8757

>  <SCORE.INTER.CONST>
1

>  <SCORE.INTER.POLAR>
-5.86655

>  <SCORE.INTER.ROT>
6

>  <SCORE.INTER.SOLV>
13.675

>  <SCORE.INTER.VDW>
-21.187

>  <SCORE.INTER.norm>
-1.38309

>  <SCORE.INTRA>
-1.13196

>  <SCORE.INTRA.DIHEDRAL>
-14.0776

>  <SCORE.INTRA.DIHEDRAL.0>
28.0161

>  <SCORE.INTRA.POLAR>
1.00517

>  <SCORE.INTRA.POLAR.0>
-1.05798

>  <SCORE.INTRA.REPUL>
0

>  <SCORE.INTRA.REPUL.0>
0

>  <SCORE.INTRA.SOLV>
0.125527

>  <SCORE.INTRA.SOLV.lig_0>
-42.5945

>  <SCORE.INTRA.VDW>
2.42653

>  <SCORE.INTRA.VDW.0>
-5.13869

>  <SCORE.INTRA.norm>
-0.0365148

>  <SCORE.RESTR>
0

>  <SCORE.RESTR.CAVITY>
0

>  <SCORE.RESTR.norm>
0

>  <SCORE.SYSTEM>
0

>  <SCORE.SYSTEM.CONST>
0

>  <SCORE.SYSTEM.DIHEDRAL>
0

>  <SCORE.SYSTEM.SOLV>
0

>  <SCORE.SYSTEM.norm>
0

>  <SCORE.heavy>
31

>  <SCORE.norm>
-1.4196

>  <RMSD>
1.013

$$$$
lig.pdb
 OpenBabel11021811453D
libRbt.so/2013.1/901 2013/11/27
 31 33  0  0  0  0  0  0  0  0999 V2000
   -3.7005    5.6491    5.6703 O   0  0  0  0  0  0  0  0  0  0  0  0
   -3.2461    4.6481    6.5601 C   0  0  0  0  0  0  0  0  0  0  0  0
   -3.7203    3.2545    6.1264 C   0  0  1  0  0  0  0  0  0  0  0  0
   -3.3667    2.9717    4.7818 O   0  0  0  0  0  0  0  0  0  0  0  0
   -3.2583    1.5630    4.6016 C   0  0  1  0  0  0  0  0  0  0  0  0
   -2.0500    1.2555    3.9164 O   0  0  0  0  0  0  0  0  0  0  0  0
   -2.1620    0.8203    2.5707 C   0  0  2  0  0  0  0  0  0  0  0  0
   -2.2762   -0.7124    2.5830 C   0  0  1  0  0  0  0  0  0  0  0  0
   -3.5293   -1.0940    3.1285 O   0  0  0  0  0  0  0  0  0  0  0  0
   -2.1662   -1.3598    1.1941 C   0  0  2  0  0  0  0  0  0  0  0  0
   -2.1864   -2.8275    1.2925 N   0  0  0  0  0  0  0  0  0  0  0  0
   -0.8738   -0.9144    0.5202 C   0  0  0  0  0  0  0  0  0  0  0  0
   -0.8280    0.6073    0.4534 C   0  0  2  0  0  0  0  0  0  0  0  0
    0.3976    1.0054   -0.2473 N   0  0  0  0  0  0  0  0  0  0  0  0
   -0.8982    1.2099    1.8731 C   0  0  1  0  0  0  0  0  0  0  0  0
   -0.8313    2.6324    1.6898 O   0  0  0  0  0  0  0  0  0  0  0  0
   -0.6221    3.4276    2.8519 C   0  0  1  0  0  0  0  0  0  0  0  0
    0.7705    3.5922    3.1051 O   0  0  0  0  0  0  0  0  0  0  0  0
    1.4910    4.3924    2.1703 C   0  0  2  0  0  0  0  0  0  0  0  0
    2.9620    4.4581    2.6021 C   0  0  0  0  0  0  0  0  0  0  0  0
    3.7934    5.0891    1.5871 N   0  0  0  0  0  0  0  0  0  0  0  0
    0.9039    5.8143    2.0990 C   0  0  1  0  0  0  0  0  0  0  0  0
    1.5979    6.5708    1.1229 O   0  0  0  0  0  0  0  0  0  0  0  0
   -0.5805    5.7168    1.7255 C   0  0  2  0  0  0  0  0  0  0  0  0
   -1.1709    7.0030    1.7375 O   0  0  0  0  0  0  0  0  0  0  0  0
   -1.3219    4.7819    2.6906 C   0  0  1  0  0  0  0  0  0  0  0  0
   -2.7110    4.5969    2.2472 N   0  0  0  0  0  0  0  0  0  0  0  0
   -3.2273    0.9365    6.0033 C   0  0  2  0  0  0  0  0  0  0  0  0
   -4.4407    0.2505    6.2496 O   0  0  0  0  0  0  0  0  0  0  0  0
   -3.0251    2.1476    6.9126 C   0  0  2  0  0  0  0  0  0  0  0  0
   -3.5364    1.9697    8.2187 O   0  0  0  0  0  0  0  0  0  0  0  0
  2  1  1  0  0  0  0
  3  2  1  1  0  0  0
  3 30  1  0  0  0  0
  4  5  1  0  0  0  0
  4  3  1  0  0  0  0
  5 28  1  0  0  0  0
  5  6  1  1  0  0  0
  7  6  1  1  0  0  0
  8  7  1  0  0  0  0
  8  9  1  6  0  0  0
 10 11  1  1  0  0  0
 10  8  1  0  0  0  0
 12 10  1  0  0  0  0
 13 12  1  0  0  0  0
 13 15  1  0  0  0  0
 13 14  1  1  0  0  0
 15  7  1  0  0  0  0
 15 16  1  6  0  0  0
 17 16  1  6  0  0  0
 18 17  1  0  0  0  0
 19 20  1  1  0  0  0
 19 18  1  0  0  0  0
 20 21  1  0  0  0  0
 22 24  1  0  0  0  0
 22 19  1  0  0  0  0
 22 23  1  6  0  0  0
 24 25  1  1  0  0  0
 24 26  1  0  0  0  0
 26 17  1  0  0  0  0
 26 27  1  6  0  0  0
 28 29  1  1  0  0  0
 28 30  1  0  0  0  0
 30 31  1  1  0  0  0
M  END
>  <CHROM.1>
-55.68498709,53.74074050,-108.28684688,-90.65505417,55.05016948,154.86482661
-170.85947224,70.75535068,88.36330318,171.35103068,170.69614714,62.35461515
77.02728333,-179.90996508,157.57095348,-176.63945210,-1.41502051,2.58453477
3.15532124,2.74989987,-0.82628588,-2.67431541

>  <Name>
lig.pdb

>  <RI>
2.67765e+07

>  <Rbt.Current_Directory>
/home/itssahil/PROJECTS/Mol_Feturizer/New_Systems/rnas/2n0j

>  <Rbt.Executable>
rbdock ($Id: //depot/dev/client3/rdock/2013.1/src/exe/rbdock.cxx#4 $)

>  <Rbt.Library>
libRbt.so (2013.1, Build901 2013/11/27)

>  <Rbt.Parameter_File>
/export/apps/rDock/src/rDock_2013.1_src/data/scripts/dock_solv.prm

>  <Rbt.Receptor>
prm/pocket_docking_2.prm

>  <SCORE>
-41.7832

>  <SCORE.INTER>
-37.8986

>  <SCORE.INTER.CONST>
1

>  <SCORE.INTER.POLAR>
-5.52333

>  <SCORE.INTER.ROT>
6

>  <SCORE.INTER.SOLV>
12.0088

>  <SCORE.INTER.VDW>
-18.4576

>  <SCORE.INTER.norm>
-1.22254

>  <SCORE.INTRA>
-4.26486

>  <SCORE.INTRA.DIHEDRAL>
-7.66448

>  <SCORE.INTRA.DIHEDRAL.0>
28.0161

>  <SCORE.INTRA.POLAR>
-0.425236

>  <SCORE.INTRA.POLAR.0>
-1.05798

>  <SCORE.INTRA.REPUL>
0

>  <SCORE.INTRA.REPUL.0>
0

>  <SCORE.INTRA.SOLV>
1.0211

>  <SCORE.INTRA.SOLV.lig_0>
-42.5945

>  <SCORE.INTRA.VDW>
0.50263

>  <SCORE.INTRA.VDW.0>
-5.13869

>  <SCORE.INTRA.norm>
-0.137576

>  <SCORE.RESTR>
0.380309

>  <SCORE.RESTR.CAVITY>
0.380309

>  <SCORE.RESTR.norm>
0.012268

>  <SCORE.SYSTEM>
0

>  <SCORE.SYSTEM.CONST>
0

>  <SCORE.SYSTEM.DIHEDRAL>
0

>  <SCORE.SYSTEM.SOLV>
0

>  <SCORE.SYSTEM.norm>
0

>  <SCORE.heavy>
31

>  <SCORE.norm>
-1.34785

>  <RMSD>
1.013

$$$$
lig.pdb
 OpenBabel11021811453D
libRbt.so/2013.1/901 2013/11/27
 31 33  0  0  0  0  0  0  0  0999 V2000
   -2.0557    5.9637    6.5709 O   0  0  0  0  0  0  0  0  0  0  0  0
   -3.3599    5.5021    6.2777 C   0  0  0  0  0  0  0  0  0  0  0  0
   -3.4619    3.9779    6.4244 C   0  0  1  0  0  0  0  0  0  0  0  0
   -3.1890    3.3108    5.2023 O   0  0  0  0  0  0  0  0  0  0  0  0
   -2.7043    1.9987    5.4712 C   0  0  1  0  0  0  0  0  0  0  0  0
   -1.5395    1.7459    4.6946 O   0  0  0  0  0  0  0  0  0  0  0  0
   -1.7273    1.1474    3.4221 C   0  0  2  0  0  0  0  0  0  0  0  0
   -1.6685   -0.3770    3.6090 C   0  0  1  0  0  0  0  0  0  0  0  0
   -2.8149   -0.8159    4.3208 O   0  0  0  0  0  0  0  0  0  0  0  0
   -1.6172   -1.1679    2.2930 C   0  0  2  0  0  0  0  0  0  0  0  0
   -1.4645   -2.6086    2.5482 N   0  0  0  0  0  0  0  0  0  0  0  0
   -0.4510   -0.6769    1.4433 C   0  0  0  0  0  0  0  0  0  0  0  0
   -0.5815    0.8234    1.2108 C   0  0  2  0  0  0  0  0  0  0  0  0
    0.5214    1.2577    0.3467 N   0  0  0  0  0  0  0  0  0  0  0  0
   -0.5855    1.5776    2.5580 C   0  0  1  0  0  0  0  0  0  0  0  0
   -0.6949    2.9684    2.2186 O   0  0  0  0  0  0  0  0  0  0  0  0
   -0.3862    3.9119    3.2389 C   0  0  1  0  0  0  0  0  0  0  0  0
    1.0206    4.1246    3.3188 O   0  0  0  0  0  0  0  0  0  0  0  0
    1.6192    4.8033    2.2168 C   0  0  2  0  0  0  0  0  0  0  0  0
    3.1250    4.9424    2.4772 C   0  0  0  0  0  0  0  0  0  0  0  0
    3.8797    5.0358    1.2356 N   0  0  0  0  0  0  0  0  0  0  0  0
    0.9917    6.1966    2.0250 C   0  0  1  0  0  0  0  0  0  0  0  0
    1.5607    6.8263    0.8909 O   0  0  0  0  0  0  0  0  0  0  0  0
   -0.5205    6.0335    1.8277 C   0  0  2  0  0  0  0  0  0  0  0  0
   -1.1391    7.3031    1.7360 O   0  0  0  0  0  0  0  0  0  0  0  0
   -1.1333    5.2249    2.9792 C   0  0  1  0  0  0  0  0  0  0  0  0
   -2.5559    4.9671    2.7141 N   0  0  0  0  0  0  0  0  0  0  0  0
   -2.3461    1.9541    6.9637 C   0  0  2  0  0  0  0  0  0  0  0  0
   -3.2804    1.1488    7.6580 O   0  0  0  0  0  0  0  0  0  0  0  0
   -2.4002    3.4259    7.3705 C   0  0  2  0  0  0  0  0  0  0  0  0
   -2.6964    3.6273    8.7383 O   0  0  0  0  0  0  0  0  0  0  0  0
  2  1  1  0  0  0  0
  3  2  1  6  0  0  0
  3 30  1  0  0  0  0
  4  5  1  0  0  0  0
  4  3  1  0  0  0  0
  5 28  1  0  0  0  0
  5  6  1  6  0  0  0
  7  6  1  1  0  0  0
  8  7  1  0  0  0  0
  8  9  1  6  0  0  0
 10 11  1  1  0  0  0
 10  8  1  0  0  0  0
 12 10  1  0  0  0  0
 13 12  1  0  0  0  0
 13 15  1  0  0  0  0
 13 14  1  6  0  0  0
 15  7  1  0  0  0  0
 15 16  1  6  0  0  0
 17 16  1  6  0  0  0
 18 17  1  0  0  0  0
 19 20  1  1  0  0  0
 19 18  1  0  0  0  0
 20 21  1  0  0  0  0
 22 24  1  0  0  0  0
 22 19  1  0  0  0  0
 22 23  1  6  0  0  0
 24 25  1  1  0  0  0
 24 26  1  0  0  0  0
 26 17  1  0  0  0  0
 26 27  1  6  0  0  0
 28 29  1  1  0  0  0
 28 30  1  0  0  0  0
 30 31  1  1  0  0  0
M  END
>  <CHROM.1>
-168.66740180,-91.23872116,-91.33557349,-90.16181379,-176.36457256,-172.97908197
-32.97750878,74.59281422,82.76068382,153.59828319,31.98673106,-77.34183553
-64.36108969,71.20683129,-57.39267048,-64.79637181,-1.01504787,3.06158453
3.67957483,2.73820433,-0.91901727,-2.83000212

>  <Name>
lig.pdb

>  <RI>
2.67765e+07

>  <Rbt.Current_Directory>
/home/itssahil/PROJECTS/Mol_Feturizer/New_Systems/rnas/2n0j

>  <Rbt.Executable>
rbdock ($Id: //depot/dev/client3/rdock/2013.1/src/exe/rbdock.cxx#4 $)

>  <Rbt.Library>
libRbt.so (2013.1, Build901 2013/11/27)

>  <Rbt.Parameter_File>
/export/apps/rDock/src/rDock_2013.1_src/data/scripts/dock_solv.prm

>  <Rbt.Receptor>
prm/pocket_docking_2.prm

>  <SCORE>
-29.4706

>  <SCORE.INTER>
-28.499

>  <SCORE.INTER.CONST>
1

>  <SCORE.INTER.POLAR>
-3.28228

>  <SCORE.INTER.ROT>
6

>  <SCORE.INTER.SOLV>
12.5288

>  <SCORE.INTER.VDW>
-19.8346

>  <SCORE.INTER.norm>
-0.919321

>  <SCORE.INTRA>
-1.11992

>  <SCORE.INTRA.DIHEDRAL>
-6.17196

>  <SCORE.INTRA.DIHEDRAL.0>
28.0161

>  <SCORE.INTRA.POLAR>
-0.0750098

>  <SCORE.INTRA.POLAR.0>
-1.05798

>  <SCORE.INTRA.REPUL>
0

>  <SCORE.INTRA.REPUL.0>
0

>  <SCORE.INTRA.SOLV>
1.19023

>  <SCORE.INTRA.SOLV.lig_0>
-42.5945

>  <SCORE.INTRA.VDW>
1.62598

>  <SCORE.INTRA.VDW.0>
-5.13869

>  <SCORE.INTRA.norm>
-0.0361264

>  <SCORE.RESTR>
0.148322

>  <SCORE.RESTR.CAVITY>
0.148322

>  <SCORE.RESTR.norm>
0.00478457

>  <SCORE.SYSTEM>
0

>  <SCORE.SYSTEM.CONST>
0

>  <SCORE.SYSTEM.DIHEDRAL>
0

>  <SCORE.SYSTEM.SOLV>
0

>  <SCORE.SYSTEM.norm>
0

>  <SCORE.heavy>
31

>  <SCORE.norm>
-0.950663

>  <RMSD>
1.014

$$$$
lig.pdb
 OpenBabel11021811453D
libRbt.so/2013.1/901 2013/11/27
 31 33  0  0  0  0  0  0  0  0999 V2000
   -3.8358    4.9199    5.5273 O   0  0  0  0  0  0  0  0  0  0  0  0
   -4.8617    4.0598    5.9834 C   0  0  0  0  0  0  0  0  0  0  0  0
   -4.3022    2.6954    6.4085 C   0  0  1  0  0  0  0  0  0  0  0  0
   -3.7885    1.9685    5.3037 O   0  0  0  0  0  0  0  0  0  0  0  0
   -2.7871    1.0603    5.7523 C   0  0  1  0  0  0  0  0  0  0  0  0
   -1.6368    1.1612    4.9214 O   0  0  0  0  0  0  0  0  0  0  0  0
   -1.7687    0.7252    3.5778 C   0  0  2  0  0  0  0  0  0  0  0  0
   -1.6951   -0.8100    3.5749 C   0  0  1  0  0  0  0  0  0  0  0  0
   -2.8607   -1.3456    4.1816 O   0  0  0  0  0  0  0  0  0  0  0  0
   -1.5837   -1.4291    2.1734 C   0  0  2  0  0  0  0  0  0  0  0  0
   -1.4200   -2.8889    2.2524 N   0  0  0  0  0  0  0  0  0  0  0  0
   -0.3939   -0.8244    1.4373 C   0  0  0  0  0  0  0  0  0  0  0  0
   -0.5371    0.6919    1.3893 C   0  0  2  0  0  0  0  0  0  0  0  0
    0.5908    1.2417    0.6294 N   0  0  0  0  0  0  0  0  0  0  0  0
   -0.6019    1.2712    2.8189 C   0  0  1  0  0  0  0  0  0  0  0  0
   -0.7185    2.6925    2.6520 O   0  0  0  0  0  0  0  0  0  0  0  0
   -0.1504    3.5141    3.6663 C   0  0  1  0  0  0  0  0  0  0  0  0
    1.2725    3.4962    3.5902 O   0  0  0  0  0  0  0  0  0  0  0  0
    1.8511    4.1345    2.4539 C   0  0  2  0  0  0  0  0  0  0  0  0
    3.3786    4.0179    2.5425 C   0  0  0  0  0  0  0  0  0  0  0  0
    3.9380    3.3676    1.3661 N   0  0  0  0  0  0  0  0  0  0  0  0
    1.4437    5.6184    2.3923 C   0  0  1  0  0  0  0  0  0  0  0  0
    1.9818    6.2149    1.2256 O   0  0  0  0  0  0  0  0  0  0  0  0
   -0.0872    5.7087    2.3661 C   0  0  2  0  0  0  0  0  0  0  0  0
   -0.4954    7.0635    2.3978 O   0  0  0  0  0  0  0  0  0  0  0  0
   -0.6957    4.9418    3.5479 C   0  0  1  0  0  0  0  0  0  0  0  0
   -2.1615    4.9285    3.4403 N   0  0  0  0  0  0  0  0  0  0  0  0
   -2.4228    1.4728    7.1860 C   0  0  2  0  0  0  0  0  0  0  0  0
   -2.9148    0.5123    8.1018 O   0  0  0  0  0  0  0  0  0  0  0  0
   -3.0932    2.8384    7.3276 C   0  0  2  0  0  0  0  0  0  0  0  0
   -3.4275    3.1724    8.6602 O   0  0  0  0  0  0  0  0  0  0  0  0
  2  1  1  0  0  0  0
  3  2  1  6  0  0  0
  3 30  1  0  0  0  0
  4  5  1  0  0  0  0
  4  3  1  0  0  0  0
  5 28  1  0  0  0  0
  5  6  1  6  0  0  0
  7  6  1  1  0  0  0
  8  7  1  0  0  0  0
  8  9  1  6  0  0  0
 10 11  1  1  0  0  0
 10  8  1  0  0  0  0
 12 10  1  0  0  0  0
 13 12  1  0  0  0  0
 13 15  1  0  0  0  0
 13 14  1  1  0  0  0
 15  7  1  0  0  0  0
 15 16  1  6  0  0  0
 17 16  1  6  0  0  0
 18 17  1  0  0  0  0
 19 20  1  1  0  0  0
 19 18  1  0  0  0  0
 20 21  1  0  0  0  0
 22 24  1  0  0  0  0
 22 19  1  0  0  0  0
 22 23  1  6  0  0  0
 24 25  1  1  0  0  0
 24 26  1  0  0  0  0
 26 17  1  0  0  0  0
 26 27  1  6  0  0  0
 28 29  1  1  0  0  0
 28 30  1  0  0  0  0
 30 31  1  1  0  0  0
M  END
>  <CHROM.1>
177.86485335,-66.96589564,-67.34130713,-78.44285759,-72.04648040,67.37805513
93.55430168,89.84011908,72.64356572,123.10035174,-149.65057966,-176.10122716
-62.87528075,-162.75997924,177.33072380,55.26265204,-1.08797335,2.47853945
3.83559021,2.86861384,-0.79100919,-2.89926438

>  <Name>
lig.pdb

>  <RI>
2.67765e+07

>  <Rbt.Current_Directory>
/home/itssahil/PROJECTS/Mol_Feturizer/New_Systems/rnas/2n0j

>  <Rbt.Executable>
rbdock ($Id: //depot/dev/client3/rdock/2013.1/src/exe/rbdock.cxx#4 $)

>  <Rbt.Library>
libRbt.so (2013.1, Build901 2013/11/27)

>  <Rbt.Parameter_File>
/export/apps/rDock/src/rDock_2013.1_src/data/scripts/dock_solv.prm

>  <Rbt.Receptor>
prm/pocket_docking_2.prm

>  <SCORE>
-29.7593

>  <SCORE.INTER>
-27.8285

>  <SCORE.INTER.CONST>
1

>  <SCORE.INTER.POLAR>
-3.51351

>  <SCORE.INTER.ROT>
6

>  <SCORE.INTER.SOLV>
11.2884

>  <SCORE.INTER.VDW>
-18.2034

>  <SCORE.INTER.norm>
-0.897695

>  <SCORE.INTRA>
-2.77237

>  <SCORE.INTRA.DIHEDRAL>
-10.3303

>  <SCORE.INTRA.DIHEDRAL.0>
28.0161

>  <SCORE.INTRA.POLAR>
-0.0669893

>  <SCORE.INTRA.POLAR.0>
-1.05798

>  <SCORE.INTRA.REPUL>
0

>  <SCORE.INTRA.REPUL.0>
0

>  <SCORE.INTRA.SOLV>
1.65165

>  <SCORE.INTRA.SOLV.lig_0>
-42.5945

>  <SCORE.INTRA.VDW>
1.79473

>  <SCORE.INTRA.VDW.0>
-5.13869

>  <SCORE.INTRA.norm>
-0.0894312

>  <SCORE.RESTR>
0.841583

>  <SCORE.RESTR.CAVITY>
0.841583

>  <SCORE.RESTR.norm>
0.0271478

>  <SCORE.SYSTEM>
0

>  <SCORE.SYSTEM.CONST>
0

>  <SCORE.SYSTEM.DIHEDRAL>
0

>  <SCORE.SYSTEM.SOLV>
0

>  <SCORE.SYSTEM.norm>
0

>  <SCORE.heavy>
31

>  <SCORE.norm>
-0.959978

>  <RMSD>
1.015

$$$$
lig.pdb
 OpenBabel11021811453D
libRbt.so/2013.1/901 2013/11/27
 31 33  0  0  0  0  0  0  0  0999 V2000
   -3.7337    4.9622    4.8747 O   0  0  0  0  0  0  0  0  0  0  0  0
   -4.7123    4.1673    5.5155 C   0  0  0  0  0  0  0  0  0  0  0  0
   -4.2393    2.7162    5.6761 C   0  0  1  0  0  0  0  0  0  0  0  0
   -3.8791    2.1380    4.4315 O   0  0  0  0  0  0  0  0  0  0  0  0
   -2.9263    1.1006    4.6436 C   0  0  1  0  0  0  0  0  0  0  0  0
   -1.8415    1.2486    3.7353 O   0  0  0  0  0  0  0  0  0  0  0  0
   -2.0424    0.7918    2.4073 C   0  0  2  0  0  0  0  0  0  0  0  0
   -2.2150   -0.7346    2.4589 C   0  0  1  0  0  0  0  0  0  0  0  0
   -3.4507   -1.0553    3.0783 O   0  0  0  0  0  0  0  0  0  0  0  0
   -2.2050   -1.4130    1.0805 C   0  0  2  0  0  0  0  0  0  0  0  0
   -2.2766   -2.8765    1.2117 N   0  0  0  0  0  0  0  0  0  0  0  0
   -0.9345   -1.0326    0.3295 C   0  0  0  0  0  0  0  0  0  0  0  0
   -0.8336    0.4845    0.2274 C   0  0  2  0  0  0  0  0  0  0  0  0
    0.3670    0.8197   -0.5458 N   0  0  0  0  0  0  0  0  0  0  0  0
   -0.8039    1.1171    1.6354 C   0  0  1  0  0  0  0  0  0  0  0  0
   -0.6920    2.5319    1.4180 O   0  0  0  0  0  0  0  0  0  0  0  0
   -0.2110    3.3194    2.5020 C   0  0  1  0  0  0  0  0  0  0  0  0
    1.1430    2.9906    2.8009 O   0  0  0  0  0  0  0  0  0  0  0  0
    2.1126    3.3631    1.8239 C   0  0  2  0  0  0  0  0  0  0  0  0
    3.5021    2.9342    2.3139 C   0  0  0  0  0  0  0  0  0  0  0  0
    3.5734    1.4977    2.5401 N   0  0  0  0  0  0  0  0  0  0  0  0
    2.0908    4.8839    1.5823 C   0  0  1  0  0  0  0  0  0  0  0  0
    3.0199    5.2212    0.5676 O   0  0  0  0  0  0  0  0  0  0  0  0
    0.6769    5.2948    1.1529 C   0  0  2  0  0  0  0  0  0  0  0  0
    0.6016    6.7006    1.0077 O   0  0  0  0  0  0  0  0  0  0  0  0
   -0.3619    4.8088    2.1726 C   0  0  1  0  0  0  0  0  0  0  0  0
   -1.7191    5.0963    1.6869 N   0  0  0  0  0  0  0  0  0  0  0  0
   -2.4151    1.2540    6.0835 C   0  0  2  0  0  0  0  0  0  0  0  0
   -2.9128    0.1987    6.8848 O   0  0  0  0  0  0  0  0  0  0  0  0
   -2.9531    2.6248    6.4911 C   0  0  2  0  0  0  0  0  0  0  0  0
   -3.1504    2.7670    7.8839 O   0  0  0  0  0  0  0  0  0  0  0  0
  2  1  1  0  0  0  0
  3  2  1  6  0  0  0
  3 30  1  0  0  0  0
  4  5  1  0  0  0  0
  4  3  1  0  0  0  0
  5 28  1  0  0  0  0
  5  6  1  6  0  0  0
  7  6  1  1  0  0  0
  8  7  1  0  0  0  0
  8  9  1  6  0  0  0
 10 11  1  1  0  0  0
 10  8  1  0  0  0  0
 12 10  1  0  0  0  0
 13 12  1  0  0  0  0
 13 15  1  0  0  0  0
 13 14  1  1  0  0  0
 15  7  1  0  0  0  0
 15 16  1  6  0  0  0
 17 16  1  6  0  0  0
 18 17  1  0  0  0  0
 19 20  1  1  0  0  0
 19 18  1  0  0  0  0
 20 21  1  0  0  0  0
 22 24  1  0  0  0  0
 22 19  1  0  0  0  0
 22 23  1  6  0  0  0
 24 25  1  1  0  0  0
 24 26  1  0  0  0  0
 26 17  1  0  0  0  0
 26 27  1  6  0  0  0
 28 29  1  1  0  0  0
 28 30  1  0  0  0  0
 30 31  1  1  0  0  0
M  END
>  <CHROM.1>
176.19841960,-56.25543277,-79.37053017,-65.67780864,63.49873798,-84.54665178
59.98510113,79.20083041,65.43530749,59.16059575,46.41044690,-175.12618989
173.51964316,-57.80221619,66.40253758,65.75212771,-1.07685397,2.20134985
2.89492142,3.04411384,-0.74528877,-2.71554636

>  <Name>
lig.pdb

>  <RI>
2.67765e+07

>  <Rbt.Current_Directory>
/home/itssahil/PROJECTS/Mol_Feturizer/New_Systems/rnas/2n0j

>  <Rbt.Executable>
rbdock ($Id: //depot/dev/client3/rdock/2013.1/src/exe/rbdock.cxx#4 $)

>  <Rbt.Library>
libRbt.so (2013.1, Build901 2013/11/27)

>  <Rbt.Parameter_File>
/export/apps/rDock/src/rDock_2013.1_src/data/scripts/dock_solv.prm

>  <Rbt.Receptor>
prm/pocket_docking_2.prm

>  <SCORE>
-50.9729

>  <SCORE.INTER>
-46.3984

>  <SCORE.INTER.CONST>
1

>  <SCORE.INTER.POLAR>
-6.76685

>  <SCORE.INTER.ROT>
6

>  <SCORE.INTER.SOLV>
14.2962

>  <SCORE.INTER.VDW>
-20.7415

>  <SCORE.INTER.norm>
-1.49672

>  <SCORE.INTRA>
-4.98306

>  <SCORE.INTRA.DIHEDRAL>
-21.332

>  <SCORE.INTRA.DIHEDRAL.0>
28.0161

>  <SCORE.INTRA.POLAR>
1.01457

>  <SCORE.INTRA.POLAR.0>
-1.05798

>  <SCORE.INTRA.REPUL>
0

>  <SCORE.INTRA.REPUL.0>
0

>  <SCORE.INTRA.SOLV>
0.050184

>  <SCORE.INTRA.SOLV.lig_0>
-42.5945

>  <SCORE.INTRA.VDW>
2.2083

>  <SCORE.INTRA.VDW.0>
-5.13869

>  <SCORE.INTRA.norm>
-0.160744

>  <SCORE.RESTR>
0.408536

>  <SCORE.RESTR.CAVITY>
0.408536

>  <SCORE.RESTR.norm>
0.0131786

>  <SCORE.SYSTEM>
0

>  <SCORE.SYSTEM.CONST>
0

>  <SCORE.SYSTEM.DIHEDRAL>
0

>  <SCORE.SYSTEM.SOLV>
0

>  <SCORE.SYSTEM.norm>
0

>  <SCORE.heavy>
31

>  <SCORE.norm>
-1.64429

>  <RMSD>
1.027

$$$$
lig.pdb
 OpenBabel11021811453D
libRbt.so/2013.1/901 2013/11/27
 31 33  0  0  0  0  0  0  0  0999 V2000
   -3.2697    6.8143    6.2165 O   0  0  0  0  0  0  0  0  0  0  0  0
   -2.6113    5.8217    6.9790 C   0  0  0  0  0  0  0  0  0  0  0  0
   -3.0361    4.4108    6.5498 C   0  0  1  0  0  0  0  0  0  0  0  0
   -2.6799    4.1393    5.2036 O   0  0  0  0  0  0  0  0  0  0  0  0
   -2.5205    2.7353    5.0246 C   0  0  1  0  0  0  0  0  0  0  0  0
   -1.3057    2.4718    4.3328 O   0  0  0  0  0  0  0  0  0  0  0  0
   -1.4084    1.8867    3.0444 C   0  0  2  0  0  0  0  0  0  0  0  0
   -1.5502    0.3677    3.2305 C   0  0  1  0  0  0  0  0  0  0  0  0
   -2.8166    0.0717    3.7979 O   0  0  0  0  0  0  0  0  0  0  0  0
   -1.4343   -0.4366    1.9268 C   0  0  2  0  0  0  0  0  0  0  0  0
   -1.4820   -1.8828    2.1923 N   0  0  0  0  0  0  0  0  0  0  0  0
   -0.1257   -0.0926    1.2251 C   0  0  0  0  0  0  0  0  0  0  0  0
   -0.0519    1.4103    0.9851 C   0  0  2  0  0  0  0  0  0  0  0  0
    1.1895    1.7053    0.2614 N   0  0  0  0  0  0  0  0  0  0  0  0
   -0.1292    2.1730    2.3253 C   0  0  1  0  0  0  0  0  0  0  0  0
   -0.0345    3.5637    1.9812 O   0  0  0  0  0  0  0  0  0  0  0  0
    0.7200    4.3985    2.8533 C   0  0  1  0  0  0  0  0  0  0  0  0
    2.1169    4.1805    2.6749 O   0  0  0  0  0  0  0  0  0  0  0  0
    2.6699    4.6173    1.4352 C   0  0  2  0  0  0  0  0  0  0  0  0
    4.1721    4.3044    1.4233 C   0  0  0  0  0  0  0  0  0  0  0  0
    4.8864    5.0547    2.4463 N   0  0  0  0  0  0  0  0  0  0  0  0
    2.4500    6.1290    1.2395 C   0  0  1  0  0  0  0  0  0  0  0  0
    2.9550    6.5270   -0.0227 O   0  0  0  0  0  0  0  0  0  0  0  0
    0.9466    6.4227    1.3164 C   0  0  2  0  0  0  0  0  0  0  0  0
    0.7179    7.8165    1.2276 O   0  0  0  0  0  0  0  0  0  0  0  0
    0.3519    5.8677    2.6177 C   0  0  1  0  0  0  0  0  0  0  0  0
   -1.1076    6.0422    2.6207 N   0  0  0  0  0  0  0  0  0  0  0  0
   -2.4584    2.1125    6.4269 C   0  0  2  0  0  0  0  0  0  0  0  0
   -3.6441    1.3824    6.6810 O   0  0  0  0  0  0  0  0  0  0  0  0
   -2.2959    3.3315    7.3334 C   0  0  2  0  0  0  0  0  0  0  0  0
   -2.7929    3.1368    8.6427 O   0  0  0  0  0  0  0  0  0  0  0  0
  2  1  1  0  0  0  0
  3  2  1  1  0  0  0
  3 30  1  0  0  0  0
  4  5  1  0  0  0  0
  4  3  1  0  0  0  0
  5 28  1  0  0  0  0
  5  6  1  1  0  0  0
  7  6  1  1  0  0  0
  8  7  1  0  0  0  0
  8  9  1  6  0  0  0
 10 11  1  1  0  0  0
 10  8  1  0  0  0  0
 12 10  1  0  0  0  0
 13 12  1  0  0  0  0
 13 15  1  0  0  0  0
 13 14  1  1  0  0  0
 15  7  1  0  0  0  0
 15 16  1  6  0  0  0
 17 16  1  6  0  0  0
 18 17  1  0  0  0  0
 19 20  1  1  0  0  0
 19 18  1  0  0  0  0
 20 21  1  0  0  0  0
 22 24  1  0  0  0  0
 22 19  1  0  0  0  0
 22 23  1  6  0  0  0
 24 25  1  1  0  0  0
 24 26  1  0  0  0  0
 26 17  1  0  0  0  0
 26 27  1  6  0  0  0
 28 29  1  1  0  0  0
 28 30  1  0  0  0  0
 30 31  1  1  0  0  0
M  END
>  <CHROM.1>
-173.73039171,62.69452426,-115.29852296,-83.67308633,63.49473078,-55.06435708
-32.80277057,97.47863928,75.06463435,-64.20570070,-74.68866766,-162.05692987
161.15597677,66.25227526,-57.66304606,-175.95459354,-0.44343813,3.46281020
3.36881904,3.03067852,-0.80486949,-2.76265558

>  <Name>
lig.pdb

>  <RI>
2.67765e+07

>  <Rbt.Current_Directory>
/home/itssahil/PROJECTS/Mol_Feturizer/New_Systems/rnas/2n0j

>  <Rbt.Executable>
rbdock ($Id: //depot/dev/client3/rdock/2013.1/src/exe/rbdock.cxx#4 $)

>  <Rbt.Library>
libRbt.so (2013.1, Build901 2013/11/27)

>  <Rbt.Parameter_File>
/export/apps/rDock/src/rDock_2013.1_src/data/scripts/dock_solv.prm

>  <Rbt.Receptor>
prm/pocket_docking_2.prm

>  <SCORE>
-29.999

>  <SCORE.INTER>
-31.1889

>  <SCORE.INTER.CONST>
1

>  <SCORE.INTER.POLAR>
-3.29413

>  <SCORE.INTER.ROT>
6

>  <SCORE.INTER.SOLV>
14.4315

>  <SCORE.INTER.VDW>
-22.2226

>  <SCORE.INTER.norm>
-1.00609

>  <SCORE.INTRA>
1.17675

>  <SCORE.INTRA.DIHEDRAL>
-6.37176

>  <SCORE.INTRA.DIHEDRAL.0>
28.0161

>  <SCORE.INTRA.POLAR>
1.00437

>  <SCORE.INTRA.POLAR.0>
-1.05798

>  <SCORE.INTRA.REPUL>
0

>  <SCORE.INTRA.REPUL.0>
0

>  <SCORE.INTRA.SOLV>
0.333357

>  <SCORE.INTRA.SOLV.lig_0>
-42.5945

>  <SCORE.INTRA.VDW>
0.781092

>  <SCORE.INTRA.VDW.0>
-5.13869

>  <SCORE.INTRA.norm>
0.0379595

>  <SCORE.RESTR>
0.0131425

>  <SCORE.RESTR.CAVITY>
0.0131425

>  <SCORE.RESTR.norm>
0.000423952

>  <SCORE.SYSTEM>
0

>  <SCORE.SYSTEM.CONST>
0

>  <SCORE.SYSTEM.DIHEDRAL>
0

>  <SCORE.SYSTEM.SOLV>
0

>  <SCORE.SYSTEM.norm>
0

>  <SCORE.heavy>
31

>  <SCORE.norm>
-0.967709

>  <RMSD>
1.029

$$$$
lig.pdb
 OpenBabel11021811453D
libRbt.so/2013.1/901 2013/11/27
 31 33  0  0  0  0  0  0  0  0999 V2000
   -3.3850    5.7937    6.7803 O   0  0  0  0  0  0  0  0  0  0  0  0
   -3.1146    5.0326    5.6194 C   0  0  0  0  0  0  0  0  0  0  0  0
   -2.9164    3.5482    5.9551 C   0  0  1  0  0  0  0  0  0  0  0  0
   -2.6659    2.7735    4.7932 O   0  0  0  0  0  0  0  0  0  0  0  0
   -1.9203    1.6117    5.1443 C   0  0  1  0  0  0  0  0  0  0  0  0
   -0.8248    1.4531    4.2507 O   0  0  0  0  0  0  0  0  0  0  0  0
   -1.1037    0.8915    2.9781 C   0  0  2  0  0  0  0  0  0  0  0  0
   -0.9403   -0.6323    3.0933 C   0  0  1  0  0  0  0  0  0  0  0  0
   -1.9836   -1.1659    3.8935 O   0  0  0  0  0  0  0  0  0  0  0  0
   -0.9751   -1.3697    1.7460 C   0  0  2  0  0  0  0  0  0  0  0  0
   -0.7164   -2.8069    1.9237 N   0  0  0  0  0  0  0  0  0  0  0  0
    0.0713   -0.7780    0.8090 C   0  0  0  0  0  0  0  0  0  0  0  0
   -0.1664    0.7192    0.6544 C   0  0  2  0  0  0  0  0  0  0  0  0
    0.8189    1.2511   -0.2932 N   0  0  0  0  0  0  0  0  0  0  0  0
   -0.0795    1.4216    2.0265 C   0  0  1  0  0  0  0  0  0  0  0  0
   -0.3007    2.8148    1.7589 O   0  0  0  0  0  0  0  0  0  0  0  0
    0.3173    3.7505    2.6360 C   0  0  1  0  0  0  0  0  0  0  0  0
    1.6599    3.3652    2.9180 O   0  0  0  0  0  0  0  0  0  0  0  0
    2.5819    3.4528    1.8337 C   0  0  2  0  0  0  0  0  0  0  0  0
    3.9659    3.0034    2.3206 C   0  0  0  0  0  0  0  0  0  0  0  0
    4.0367    1.5582    2.4821 N   0  0  0  0  0  0  0  0  0  0  0  0
    2.6603    4.8938    1.2960 C   0  0  1  0  0  0  0  0  0  0  0  0
    3.5365    4.9432    0.1841 O   0  0  0  0  0  0  0  0  0  0  0  0
    1.2549    5.3395    0.8733 C   0  0  2  0  0  0  0  0  0  0  0  0
    1.2782    6.6916    0.4558 O   0  0  0  0  0  0  0  0  0  0  0  0
    0.2584    5.1555    2.0258 C   0  0  1  0  0  0  0  0  0  0  0  0
   -1.1042    5.4647    1.5695 N   0  0  0  0  0  0  0  0  0  0  0  0
   -1.3927    1.8357    6.5689 C   0  0  2  0  0  0  0  0  0  0  0  0
   -2.0775    0.9890    7.4733 O   0  0  0  0  0  0  0  0  0  0  0  0
   -1.6707    3.3194    6.8051 C   0  0  2  0  0  0  0  0  0  0  0  0
   -1.8415    3.6560    8.1677 O   0  0  0  0  0  0  0  0  0  0  0  0
  2  1  1  0  0  0  0
  3  2  1  6  0  0  0
  3 30  1  0  0  0  0
  4  5  1  0  0  0  0
  4  3  1  0  0  0  0
  5 28  1  0  0  0  0
  5  6  1  6  0  0  0
  7  6  1  1  0  0  0
  8  7  1  0  0  0  0
  8  9  1  1  0  0  0
 10 11  1  1  0  0  0
 10  8  1  0  0  0  0
 12 10  1  0  0  0  0
 13 12  1  0  0  0  0
 13 15  1  0  0  0  0
 13 14  1  6  0  0  0
 15  7  1  0  0  0  0
 15 16  1  6  0  0  0
 17 16  1  6  0  0  0
 18 17  1  0  0  0  0
 19 20  1  1  0  0  0
 19 18  1  0  0  0  0
 20 21  1  0  0  0  0
 22 24  1  0  0  0  0
 22 19  1  0  0  0  0
 22 23  1  6  0  0  0
 24 25  1  1  0  0  0
 24 26  1  0  0  0  0
 26 17  1  0  0  0  0
 26 27  1  6  0  0  0
 28 29  1  1  0  0  0
 28 30  1  0  0  0  0
 30 31  1  1  0  0  0
M  END
>  <CHROM.1>
55.13058488,179.05110450,-79.26179800,-90.44407110,63.68729995,-121.61172613
70.71234310,88.30414775,43.34715166,74.58430825,-60.33039325,-174.70554830
-58.34211798,-165.03905446,61.71263651,70.58316765,-0.21584426,2.52407023
3.19649375,-3.07594885,-0.88323943,-2.89244486

>  <Name>
lig.pdb

>  <RI>
0

>  <Rbt.Current_Directory>
/home/itssahil/PROJECTS/Mol_Feturizer/New_Systems/rnas/2n0j

>  <Rbt.Executable>
rbdock ($Id: //depot/dev/client3/rdock/2013.1/src/exe/rbdock.cxx#4 $)

>  <Rbt.Library>
libRbt.so (2013.1, Build901 2013/11/27)

>  <Rbt.Parameter_File>
/export/apps/rDock/src/rDock_2013.1_src/data/scripts/dock_solv.prm

>  <Rbt.Receptor>
prm/pocket_docking_5.prm

>  <SCORE>
-46.7385

>  <SCORE.INTER>
-44.9951

>  <SCORE.INTER.CONST>
1

>  <SCORE.INTER.POLAR>
-6.8005

>  <SCORE.INTER.ROT>
6

>  <SCORE.INTER.SOLV>
17.0439

>  <SCORE.INTER.VDW>
-20.6097

>  <SCORE.INTER.norm>
-1.45145

>  <SCORE.INTRA>
-1.7434

>  <SCORE.INTRA.DIHEDRAL>
-11.7149

>  <SCORE.INTRA.DIHEDRAL.0>
28.0161

>  <SCORE.INTRA.POLAR>
0.663982

>  <SCORE.INTRA.POLAR.0>
-1.05798

>  <SCORE.INTRA.REPUL>
0.0180552

>  <SCORE.INTRA.REPUL.0>
0

>  <SCORE.INTRA.SOLV>
-0.159825

>  <SCORE.INTRA.SOLV.lig_0>
-42.5945

>  <SCORE.INTRA.VDW>
1.84614

>  <SCORE.INTRA.VDW.0>
-5.13869

>  <SCORE.INTRA.norm>
-0.0562387

>  <SCORE.RESTR>
0

>  <SCORE.RESTR.CAVITY>
0

>  <SCORE.RESTR.norm>
0

>  <SCORE.SYSTEM>
0

>  <SCORE.SYSTEM.CONST>
0

>  <SCORE.SYSTEM.DIHEDRAL>
0

>  <SCORE.SYSTEM.SOLV>
0

>  <SCORE.SYSTEM.norm>
0

>  <SCORE.heavy>
31

>  <SCORE.norm>
-1.50769

>  <RMSD>
1.043

$$$$
lig.pdb
 OpenBabel11021811453D
libRbt.so/2013.1/901 2013/11/27
 31 33  0  0  0  0  0  0  0  0999 V2000
   -1.6184    5.9127    4.4482 O   0  0  0  0  0  0  0  0  0  0  0  0
   -2.8136    5.6537    5.1585 C   0  0  0  0  0  0  0  0  0  0  0  0
   -2.9531    4.1634    5.4975 C   0  0  1  0  0  0  0  0  0  0  0  0
   -2.7799    3.3435    4.3526 O   0  0  0  0  0  0  0  0  0  0  0  0
   -2.3199    2.0558    4.7514 C   0  0  1  0  0  0  0  0  0  0  0  0
   -1.2156    1.6662    3.9435 O   0  0  0  0  0  0  0  0  0  0  0  0
   -1.5066    1.1541    2.6529 C   0  0  2  0  0  0  0  0  0  0  0  0
   -1.6956   -0.3655    2.7844 C   0  0  1  0  0  0  0  0  0  0  0  0
   -2.8935   -0.6386    3.4943 O   0  0  0  0  0  0  0  0  0  0  0  0
   -1.7823   -1.1045    1.4404 C   0  0  2  0  0  0  0  0  0  0  0  0
   -1.8647   -2.5594    1.6420 N   0  0  0  0  0  0  0  0  0  0  0  0
   -0.5573   -0.7782    0.5943 C   0  0  0  0  0  0  0  0  0  0  0  0
   -0.4433    0.7310    0.4173 C   0  0  2  0  0  0  0  0  0  0  0  0
    0.7100    1.0123   -0.4444 N   0  0  0  0  0  0  0  0  0  0  0  0
   -0.3157    1.4250    1.7905 C   0  0  1  0  0  0  0  0  0  0  0  0
   -0.1993    2.8268    1.5025 O   0  0  0  0  0  0  0  0  0  0  0  0
    0.3485    3.6558    2.5220 C   0  0  1  0  0  0  0  0  0  0  0  0
    1.6946    3.2832    2.8045 O   0  0  0  0  0  0  0  0  0  0  0  0
    2.6506    3.5497    1.7805 C   0  0  2  0  0  0  0  0  0  0  0  0
    4.0333    3.0873    2.2589 C   0  0  0  0  0  0  0  0  0  0  0  0
    4.4950    1.9194    1.5223 N   0  0  0  0  0  0  0  0  0  0  0  0
    2.6899    5.0522    1.4451 C   0  0  1  0  0  0  0  0  0  0  0  0
    3.6027    5.2831    0.3868 O   0  0  0  0  0  0  0  0  0  0  0  0
    1.2837    5.5016    1.0289 C   0  0  2  0  0  0  0  0  0  0  0  0
    1.2673    6.8978    0.7983 O   0  0  0  0  0  0  0  0  0  0  0  0
    0.2548    5.1277    2.1044 C   0  0  1  0  0  0  0  0  0  0  0  0
   -1.1019    5.4479    1.6383 N   0  0  0  0  0  0  0  0  0  0  0  0
   -1.8683    2.1782    6.2140 C   0  0  2  0  0  0  0  0  0  0  0  0
   -2.7807    1.4993    7.0567 O   0  0  0  0  0  0  0  0  0  0  0  0
   -1.8507    3.6893    6.4391 C   0  0  2  0  0  0  0  0  0  0  0  0
   -2.0522    4.0658    7.7869 O   0  0  0  0  0  0  0  0  0  0  0  0
  2  1  1  0  0  0  0
  3  2  1  6  0  0  0
  3 30  1  0  0  0  0
  4  5  1  0  0  0  0
  4  3  1  0  0  0  0
  5 28  1  0  0  0  0
  5  6  1  6  0  0  0
  7  6  1  1  0  0  0
  8  7  1  0  0  0  0
  8  9  1  6  0  0  0
 10 11  1  1  0  0  0
 10  8  1  0  0  0  0
 12 10  1  0  0  0  0
 13 12  1  0  0  0  0
 13 15  1  0  0  0  0
 13 14  1  6  0  0  0
 15  7  1  0  0  0  0
 15 16  1  6  0  0  0
 17 16  1  6  0  0  0
 18 17  1  0  0  0  0
 19 20  1  1  0  0  0
 19 18  1  0  0  0  0
 20 21  1  0  0  0  0
 22 24  1  0  0  0  0
 22 19  1  0  0  0  0
 22 23  1  6  0  0  0
 24 25  1  1  0  0  0
 24 26  1  0  0  0  0
 26 17  1  0  0  0  0
 26 27  1  6  0  0  0
 28 29  1  1  0  0  0
 28 30  1  0  0  0  0
 30 31  1  1  0  0  0
M  END
>  <CHROM.1>
-164.89898813,-51.43861163,-79.72057517,-89.18181602,-66.47921338,-57.12536895
-172.01880824,78.62560468,62.88121284,110.38672058,-168.01907124,-71.00409313
169.09609770,-158.59805910,66.39840241,65.20731928,-0.36359919,2.74380034
2.89561577,3.10852095,-0.76005814,-2.70393414

>  <Name>
lig.pdb

>  <RI>
3.50357e+07

>  <Rbt.Current_Directory>
/home/itssahil/PROJECTS/Mol_Feturizer/New_Systems/rnas/2n0j

>  <Rbt.Executable>
rbdock ($Id: //depot/dev/client3/rdock/2013.1/src/exe/rbdock.cxx#4 $)

>  <Rbt.Library>
libRbt.so (2013.1, Build901 2013/11/27)

>  <Rbt.Parameter_File>
/export/apps/rDock/src/rDock_2013.1_src/data/scripts/dock_solv.prm

>  <Rbt.Receptor>
prm/pocket_docking_3.prm

>  <SCORE>
-47.2561

>  <SCORE.INTER>
-43.101

>  <SCORE.INTER.CONST>
1

>  <SCORE.INTER.POLAR>
-5.49933

>  <SCORE.INTER.ROT>
6

>  <SCORE.INTER.SOLV>
15.0415

>  <SCORE.INTER.VDW>
-23.0167

>  <SCORE.INTER.norm>
-1.39035

>  <SCORE.INTRA>
-4.15506

>  <SCORE.INTRA.DIHEDRAL>
-11.3298

>  <SCORE.INTRA.DIHEDRAL.0>
28.0161

>  <SCORE.INTRA.POLAR>
0.0688742

>  <SCORE.INTRA.POLAR.0>
-1.05798

>  <SCORE.INTRA.REPUL>
0.00328174

>  <SCORE.INTRA.REPUL.0>
0

>  <SCORE.INTRA.SOLV>
0.985957

>  <SCORE.INTRA.SOLV.lig_0>
-42.5945

>  <SCORE.INTRA.VDW>
0.766263

>  <SCORE.INTRA.VDW.0>
-5.13869

>  <SCORE.INTRA.norm>
-0.134034

>  <SCORE.RESTR>
0

>  <SCORE.RESTR.CAVITY>
0

>  <SCORE.RESTR.norm>
0

>  <SCORE.SYSTEM>
0

>  <SCORE.SYSTEM.CONST>
0

>  <SCORE.SYSTEM.DIHEDRAL>
0

>  <SCORE.SYSTEM.SOLV>
0

>  <SCORE.SYSTEM.norm>
0

>  <SCORE.heavy>
31

>  <SCORE.norm>
-1.52439

>  <RMSD>
1.044

$$$$
lig.pdb
 OpenBabel11021811453D
libRbt.so/2013.1/901 2013/11/27
 31 33  0  0  0  0  0  0  0  0999 V2000
   -3.2310    6.2199    5.5949 O   0  0  0  0  0  0  0  0  0  0  0  0
   -2.7015    5.2474    4.7152 C   0  0  0  0  0  0  0  0  0  0  0  0
   -3.0200    3.8246    5.1943 C   0  0  1  0  0  0  0  0  0  0  0  0
   -2.9075    2.8768    4.1445 O   0  0  0  0  0  0  0  0  0  0  0  0
   -2.6093    1.5943    4.6877 C   0  0  1  0  0  0  0  0  0  0  0  0
   -1.5332    1.0039    3.9686 O   0  0  0  0  0  0  0  0  0  0  0  0
   -1.8123    0.5273    2.6617 C   0  0  2  0  0  0  0  0  0  0  0  0
   -2.2315   -0.9465    2.7810 C   0  0  1  0  0  0  0  0  0  0  0  0
   -3.5000   -1.0333    3.4110 O   0  0  0  0  0  0  0  0  0  0  0  0
   -2.3390   -1.6782    1.4345 C   0  0  2  0  0  0  0  0  0  0  0  0
   -2.6479   -3.1030    1.6307 N   0  0  0  0  0  0  0  0  0  0  0  0
   -1.0270   -1.5441    0.6704 C   0  0  0  0  0  0  0  0  0  0  0  0
   -0.6803   -0.0700    0.5008 C   0  0  2  0  0  0  0  0  0  0  0  0
    0.5552    0.0300   -0.2835 N   0  0  0  0  0  0  0  0  0  0  0  0
   -0.5411    0.6114    1.8793 C   0  0  1  0  0  0  0  0  0  0  0  0
   -0.2007    1.9778    1.5991 O   0  0  0  0  0  0  0  0  0  0  0  0
    0.3742    2.7343    2.6592 C   0  0  1  0  0  0  0  0  0  0  0  0
    1.7489    2.3993    2.8285 O   0  0  0  0  0  0  0  0  0  0  0  0
    2.6293    2.8018    1.7815 C   0  0  2  0  0  0  0  0  0  0  0  0
    4.0561    2.3613    2.1350 C   0  0  0  0  0  0  0  0  0  0  0  0
    4.1147    0.9460    2.4715 N   0  0  0  0  0  0  0  0  0  0  0  0
    2.5877    4.3290    1.5872 C   0  0  1  0  0  0  0  0  0  0  0  0
    3.4244    4.6973    0.5052 O   0  0  0  0  0  0  0  0  0  0  0  0
    1.1419    4.7497    1.2956 C   0  0  2  0  0  0  0  0  0  0  0  0
    1.0552    6.1590    1.1986 O   0  0  0  0  0  0  0  0  0  0  0  0
    0.1961    4.2324    2.3879 C   0  0  1  0  0  0  0  0  0  0  0  0
   -1.1983    4.5315    2.0318 N   0  0  0  0  0  0  0  0  0  0  0  0
   -2.1903    1.8164    6.1482 C   0  0  2  0  0  0  0  0  0  0  0  0
   -3.1988    1.3330    7.0159 O   0  0  0  0  0  0  0  0  0  0  0  0
   -2.0072    3.3314    6.2228 C   0  0  2  0  0  0  0  0  0  0  0  0
   -2.2044    3.8650    7.5172 O   0  0  0  0  0  0  0  0  0  0  0  0
  2  1  1  0  0  0  0
  3  2  1  6  0  0  0
  3 30  1  0  0  0  0
  4  5  1  0  0  0  0
  4  3  1  0  0  0  0
  5 28  1  0  0  0  0
  5  6  1  6  0  0  0
  7  6  1  1  0  0  0
  8  7  1  0  0  0  0
  8  9  1  6  0  0  0
 10 11  1  1  0  0  0
 10  8  1  0  0  0  0
 12 10  1  0  0  0  0
 13 12  1  0  0  0  0
 13 15  1  0  0  0  0
 13 14  1  1  0  0  0
 15  7  1  0  0  0  0
 15 16  1  6  0  0  0
 17 16  1  6  0  0  0
 18 17  1  0  0  0  0
 19 20  1  1  0  0  0
 19 18  1  0  0  0  0
 20 21  1  0  0  0  0
 22 24  1  0  0  0  0
 22 19  1  0  0  0  0
 22 23  1  6  0  0  0
 24 25  1  1  0  0  0
 24 26  1  0  0  0  0
 26 17  1  0  0  0  0
 26 27  1  6  0  0  0
 28 29  1  1  0  0  0
 28 30  1  0  0  0  0
 30 31  1  1  0  0  0
M  END
>  <CHROM.1>
-67.10574332,160.28206298,-73.00093929,-90.92058121,64.88100508,-78.37240671
-44.45181840,77.53745409,77.56478691,52.18216852,64.44766430,-170.55972837
73.77432722,167.63621458,74.65894549,-54.73083752,-0.64548018,2.14167214
2.98748630,-3.01652126,-0.64779506,-2.68793106

>  <Name>
lig.pdb

>  <RI>
0

>  <Rbt.Current_Directory>
/home/itssahil/PROJECTS/Mol_Feturizer/New_Systems/rnas/2n0j

>  <Rbt.Executable>
rbdock ($Id: //depot/dev/client3/rdock/2013.1/src/exe/rbdock.cxx#4 $)

>  <Rbt.Library>
libRbt.so (2013.1, Build901 2013/11/27)

>  <Rbt.Parameter_File>
/export/apps/rDock/src/rDock_2013.1_src/data/scripts/dock_solv.prm

>  <Rbt.Receptor>
prm/pocket_docking_5.prm

>  <SCORE>
-47.0217

>  <SCORE.INTER>
-40.7368

>  <SCORE.INTER.CONST>
1

>  <SCORE.INTER.POLAR>
-5.73407

>  <SCORE.INTER.ROT>
6

>  <SCORE.INTER.SOLV>
14.3789

>  <SCORE.INTER.VDW>
-20.4373

>  <SCORE.INTER.norm>
-1.31409

>  <SCORE.INTRA>
-6.28485

>  <SCORE.INTRA.DIHEDRAL>
-14.2423

>  <SCORE.INTRA.DIHEDRAL.0>
28.0161

>  <SCORE.INTRA.POLAR>
0.0947146

>  <SCORE.INTRA.POLAR.0>
-1.05798

>  <SCORE.INTRA.REPUL>
0

>  <SCORE.INTRA.REPUL.0>
0

>  <SCORE.INTRA.SOLV>
-0.0634449

>  <SCORE.INTRA.SOLV.lig_0>
-42.5945

>  <SCORE.INTRA.VDW>
0.545991

>  <SCORE.INTRA.VDW.0>
-5.13869

>  <SCORE.INTRA.norm>
-0.202737

>  <SCORE.RESTR>
0

>  <SCORE.RESTR.CAVITY>
0

>  <SCORE.RESTR.norm>
0

>  <SCORE.SYSTEM>
0

>  <SCORE.SYSTEM.CONST>
0

>  <SCORE.SYSTEM.DIHEDRAL>
0

>  <SCORE.SYSTEM.SOLV>
0

>  <SCORE.SYSTEM.norm>
0

>  <SCORE.heavy>
31

>  <SCORE.norm>
-1.51683

>  <RMSD>
1.110

$$$$
lig.pdb
 OpenBabel11021811453D
libRbt.so/2013.1/901 2013/11/27
 31 33  0  0  0  0  0  0  0  0999 V2000
   -1.8097    5.0028    6.9457 O   0  0  0  0  0  0  0  0  0  0  0  0
   -2.3719    3.9638    7.7232 C   0  0  0  0  0  0  0  0  0  0  0  0
   -3.0433    2.9029    6.8406 C   0  0  1  0  0  0  0  0  0  0  0  0
   -2.7435    3.0928    5.4669 O   0  0  0  0  0  0  0  0  0  0  0  0
   -2.8386    1.8487    4.7799 C   0  0  1  0  0  0  0  0  0  0  0  0
   -1.6917    1.6615    3.9593 O   0  0  0  0  0  0  0  0  0  0  0  0
   -1.9168    1.3519    2.5932 C   0  0  2  0  0  0  0  0  0  0  0  0
   -2.4034   -0.1040    2.5178 C   0  0  1  0  0  0  0  0  0  0  0  0
   -3.7078   -0.2013    3.0680 O   0  0  0  0  0  0  0  0  0  0  0  0
   -2.4658   -0.6705    1.0912 C   0  0  2  0  0  0  0  0  0  0  0  0
   -2.8446   -2.0919    1.1034 N   0  0  0  0  0  0  0  0  0  0  0  0
   -1.1086   -0.5131    0.4157 C   0  0  0  0  0  0  0  0  0  0  0  0
   -0.6915    0.9524    0.4376 C   0  0  2  0  0  0  0  0  0  0  0  0
    0.5892    1.0820   -0.2657 N   0  0  0  0  0  0  0  0  0  0  0  0
   -0.6013    1.4638    1.8916 C   0  0  1  0  0  0  0  0  0  0  0  0
   -0.1889    2.8354    1.7909 O   0  0  0  0  0  0  0  0  0  0  0  0
    0.6867    3.3259    2.8006 C   0  0  1  0  0  0  0  0  0  0  0  0
    2.0076    2.8277    2.6067 O   0  0  0  0  0  0  0  0  0  0  0  0
    2.7060    3.3204    1.4652 C   0  0  2  0  0  0  0  0  0  0  0  0
    4.0999    2.6803    1.4209 C   0  0  0  0  0  0  0  0  0  0  0  0
    5.0760    3.4639    2.1646 N   0  0  0  0  0  0  0  0  0  0  0  0
    2.8373    4.8537    1.5228 C   0  0  1  0  0  0  0  0  0  0  0  0
    3.4815    5.3237    0.3520 O   0  0  0  0  0  0  0  0  0  0  0  0
    1.4347    5.4651    1.6279 C   0  0  2  0  0  0  0  0  0  0  0  0
    1.5257    6.8702    1.7710 O   0  0  0  0  0  0  0  0  0  0  0  0
    0.6662    4.8586    2.8098 C   0  0  1  0  0  0  0  0  0  0  0  0
   -0.7164    5.3575    2.8226 N   0  0  0  0  0  0  0  0  0  0  0  0
   -2.8872    0.7510    5.8526 C   0  0  2  0  0  0  0  0  0  0  0  0
   -4.1843    0.1865    5.9037 O   0  0  0  0  0  0  0  0  0  0  0  0
   -2.5076    1.5037    7.1268 C   0  0  2  0  0  0  0  0  0  0  0  0
   -3.0295    0.9246    8.3064 O   0  0  0  0  0  0  0  0  0  0  0  0
  2  1  1  0  0  0  0
  3  2  1  1  0  0  0
  3 30  1  0  0  0  0
  4  5  1  0  0  0  0
  4  3  1  0  0  0  0
  5 28  1  0  0  0  0
  5  6  1  6  0  0  0
  7  6  1  1  0  0  0
  8  7  1  0  0  0  0
  8  9  1  6  0  0  0
 10 11  1  1  0  0  0
 10  8  1  0  0  0  0
 12 10  1  0  0  0  0
 13 12  1  0  0  0  0
 13 15  1  0  0  0  0
 13 14  1  1  0  0  0
 15  7  1  0  0  0  0
 15 16  1  6  0  0  0
 17 16  1  6  0  0  0
 18 17  1  0  0  0  0
 19 20  1  1  0  0  0
 19 18  1  0  0  0  0
 20 21  1  0  0  0  0
 22 24  1  0  0  0  0
 22 19  1  0  0  0  0
 22 23  1  6  0  0  0
 24 25  1  1  0  0  0
 24 26  1  0  0  0  0
 26 17  1  0  0  0  0
 26 27  1  6  0  0  0
 28 29  1  1  0  0  0
 28 30  1  0  0  0  0
 30 31  1  1  0  0  0
M  END
>  <CHROM.1>
-75.55146945,10.13326559,-127.61277750,-73.47624675,-170.43370227,62.21410767
58.37239587,94.91646071,74.73135357,-89.06392228,-96.64483330,-61.91609052
172.13636112,65.48631943,57.07048372,66.15145112,-0.59421264,2.41255496,3.19659024
-2.99675777,-0.72340214,-2.29226948

>  <Name>
lig.pdb

>  <RI>
2.67765e+07

>  <Rbt.Current_Directory>
/home/itssahil/PROJECTS/Mol_Feturizer/New_Systems/rnas/2n0j

>  <Rbt.Executable>
rbdock ($Id: //depot/dev/client3/rdock/2013.1/src/exe/rbdock.cxx#4 $)

>  <Rbt.Library>
libRbt.so (2013.1, Build901 2013/11/27)

>  <Rbt.Parameter_File>
/export/apps/rDock/src/rDock_2013.1_src/data/scripts/dock_solv.prm

>  <Rbt.Receptor>
prm/pocket_docking_2.prm

>  <SCORE>
-27.5369

>  <SCORE.INTER>
-30.5999

>  <SCORE.INTER.CONST>
1

>  <SCORE.INTER.POLAR>
-3.80225

>  <SCORE.INTER.ROT>
6

>  <SCORE.INTER.SOLV>
11.9635

>  <SCORE.INTER.VDW>
-19.3136

>  <SCORE.INTER.norm>
-0.987095

>  <SCORE.INTRA>
2.93572

>  <SCORE.INTRA.DIHEDRAL>
-2.4061

>  <SCORE.INTRA.DIHEDRAL.0>
28.0161

>  <SCORE.INTRA.POLAR>
0.161465

>  <SCORE.INTRA.POLAR.0>
-1.05798

>  <SCORE.INTRA.REPUL>
0

>  <SCORE.INTRA.REPUL.0>
0

>  <SCORE.INTRA.SOLV>
0.89101

>  <SCORE.INTRA.SOLV.lig_0>
-42.5945

>  <SCORE.INTRA.VDW>
3.14428

>  <SCORE.INTRA.VDW.0>
-5.13869

>  <SCORE.INTRA.norm>
0.0947006

>  <SCORE.RESTR>
0.127341

>  <SCORE.RESTR.CAVITY>
0.127341

>  <SCORE.RESTR.norm>
0.00410779

>  <SCORE.SYSTEM>
0

>  <SCORE.SYSTEM.CONST>
0

>  <SCORE.SYSTEM.DIHEDRAL>
0

>  <SCORE.SYSTEM.SOLV>
0

>  <SCORE.SYSTEM.norm>
0

>  <SCORE.heavy>
31

>  <SCORE.norm>
-0.888286

>  <RMSD>
1.118

$$$$
lig.pdb
 OpenBabel11021811453D
libRbt.so/2013.1/901 2013/11/27
 31 33  0  0  0  0  0  0  0  0999 V2000
   -2.1975    4.7002    6.0629 O   0  0  0  0  0  0  0  0  0  0  0  0
   -3.5947    4.5393    6.2114 C   0  0  0  0  0  0  0  0  0  0  0  0
   -4.0433    3.1287    5.8061 C   0  0  1  0  0  0  0  0  0  0  0  0
   -3.6242    2.7992    4.4913 O   0  0  0  0  0  0  0  0  0  0  0  0
   -3.5030    1.3854    4.3678 C   0  0  1  0  0  0  0  0  0  0  0  0
   -2.2622    1.0592    3.7532 O   0  0  0  0  0  0  0  0  0  0  0  0
   -2.3012    0.6420    2.3977 C   0  0  2  0  0  0  0  0  0  0  0  0
   -2.3505   -0.8941    2.3825 C   0  0  1  0  0  0  0  0  0  0  0  0
   -3.6070   -1.3370    2.8707 O   0  0  0  0  0  0  0  0  0  0  0  0
   -2.1572   -1.5132    0.9899 C   0  0  2  0  0  0  0  0  0  0  0  0
   -2.1188   -2.9819    1.0654 N   0  0  0  0  0  0  0  0  0  0  0  0
   -0.8589   -1.0027    0.3760 C   0  0  0  0  0  0  0  0  0  0  0  0
   -0.8754    0.5204    0.3338 C   0  0  2  0  0  0  0  0  0  0  0  0
    0.3593    0.9812   -0.3102 N   0  0  0  0  0  0  0  0  0  0  0  0
   -1.0283    1.0958    1.7583 C   0  0  1  0  0  0  0  0  0  0  0  0
   -1.0147    2.5227    1.5991 O   0  0  0  0  0  0  0  0  0  0  0  0
   -0.6407    3.2990    2.7322 C   0  0  1  0  0  0  0  0  0  0  0  0
    0.7754    3.3067    2.8918 O   0  0  0  0  0  0  0  0  0  0  0  0
    1.5177    4.0122    1.8994 C   0  0  2  0  0  0  0  0  0  0  0  0
    3.0121    3.9144    2.2336 C   0  0  0  0  0  0  0  0  0  0  0  0
    3.5904    5.2232    2.5023 N   0  0  0  0  0  0  0  0  0  0  0  0
    1.0909    5.4908    1.8438 C   0  0  1  0  0  0  0  0  0  0  0  0
    1.7993    6.1555    0.8128 O   0  0  0  0  0  0  0  0  0  0  0  0
   -0.4165    5.5591    1.5692 C   0  0  2  0  0  0  0  0  0  0  0  0
   -0.8563    6.9039    1.5992 O   0  0  0  0  0  0  0  0  0  0  0  0
   -1.1927    4.7224    2.5952 C   0  0  1  0  0  0  0  0  0  0  0  0
   -2.6202    4.6923    2.2461 N   0  0  0  0  0  0  0  0  0  0  0  0
   -3.5380    0.8101    5.7911 C   0  0  2  0  0  0  0  0  0  0  0  0
   -4.7598    0.1277    6.0034 O   0  0  0  0  0  0  0  0  0  0  0  0
   -3.3835    2.0541    6.6646 C   0  0  2  0  0  0  0  0  0  0  0  0
   -3.9568    1.9211    7.9502 O   0  0  0  0  0  0  0  0  0  0  0  0
  2  1  1  0  0  0  0
  3  2  1  1  0  0  0
  3 30  1  0  0  0  0
  4  5  1  0  0  0  0
  4  3  1  0  0  0  0
  5 28  1  0  0  0  0
  5  6  1  1  0  0  0
  7  6  1  1  0  0  0
  8  7  1  0  0  0  0
  8  9  1  6  0  0  0
 10 11  1  1  0  0  0
 10  8  1  0  0  0  0
 12 10  1  0  0  0  0
 13 12  1  0  0  0  0
 13 15  1  0  0  0  0
 13 14  1  1  0  0  0
 15  7  1  0  0  0  0
 15 16  1  6  0  0  0
 17 16  1  6  0  0  0
 18 17  1  0  0  0  0
 19 20  1  1  0  0  0
 19 18  1  0  0  0  0
 20 21  1  0  0  0  0
 22 24  1  0  0  0  0
 22 19  1  0  0  0  0
 22 23  1  6  0  0  0
 24 25  1  1  0  0  0
 24 26  1  0  0  0  0
 26 17  1  0  0  0  0
 26 27  1  6  0  0  0
 28 29  1  1  0  0  0
 28 30  1  0  0  0  0
 30 31  1  1  0  0  0
M  END
>  <CHROM.1>
-173.63785126,-54.75190343,-105.06857575,-94.51435731,-62.17598849,15.13914946
-50.41305612,82.11028792,79.01253132,-117.30682030,-179.58953390,66.23594555
179.14345950,59.93045767,163.46830110,-175.30018867,-1.43914510,2.40534954
3.02730081,2.78477408,-0.79869835,-2.61028657

>  <Name>
lig.pdb

>  <RI>
2.67765e+07

>  <Rbt.Current_Directory>
/home/itssahil/PROJECTS/Mol_Feturizer/New_Systems/rnas/2n0j

>  <Rbt.Executable>
rbdock ($Id: //depot/dev/client3/rdock/2013.1/src/exe/rbdock.cxx#4 $)

>  <Rbt.Library>
libRbt.so (2013.1, Build901 2013/11/27)

>  <Rbt.Parameter_File>
/export/apps/rDock/src/rDock_2013.1_src/data/scripts/dock_solv.prm

>  <Rbt.Receptor>
prm/pocket_docking_2.prm

>  <SCORE>
-38.5758

>  <SCORE.INTER>
-40.3954

>  <SCORE.INTER.CONST>
1

>  <SCORE.INTER.POLAR>
-5.79655

>  <SCORE.INTER.ROT>
6

>  <SCORE.INTER.SOLV>
13.0638

>  <SCORE.INTER.VDW>
-19.563

>  <SCORE.INTER.norm>
-1.30308

>  <SCORE.INTRA>
1.16064

>  <SCORE.INTRA.DIHEDRAL>
-2.91202

>  <SCORE.INTRA.DIHEDRAL.0>
28.0161

>  <SCORE.INTRA.POLAR>
-0.394752

>  <SCORE.INTRA.POLAR.0>
-1.05798

>  <SCORE.INTRA.REPUL>
0

>  <SCORE.INTRA.REPUL.0>
0

>  <SCORE.INTRA.SOLV>
1.8514

>  <SCORE.INTRA.SOLV.lig_0>
-42.5945

>  <SCORE.INTRA.VDW>
3.03311

>  <SCORE.INTRA.VDW.0>
-5.13869

>  <SCORE.INTRA.norm>
0.0374401

>  <SCORE.RESTR>
0.658996

>  <SCORE.RESTR.CAVITY>
0.658996

>  <SCORE.RESTR.norm>
0.0212579

>  <SCORE.SYSTEM>
0

>  <SCORE.SYSTEM.CONST>
0

>  <SCORE.SYSTEM.DIHEDRAL>
0

>  <SCORE.SYSTEM.SOLV>
0

>  <SCORE.SYSTEM.norm>
0

>  <SCORE.heavy>
31

>  <SCORE.norm>
-1.24438

>  <RMSD>
1.167

$$$$
lig.pdb
 OpenBabel11021811453D
libRbt.so/2013.1/901 2013/11/27
 31 33  0  0  0  0  0  0  0  0999 V2000
   -1.7491    6.0012    3.9157 O   0  0  0  0  0  0  0  0  0  0  0  0
   -2.9662    5.6703    4.5554 C   0  0  0  0  0  0  0  0  0  0  0  0
   -2.9151    4.2628    5.1650 C   0  0  1  0  0  0  0  0  0  0  0  0
   -2.7939    3.2603    4.1683 O   0  0  0  0  0  0  0  0  0  0  0  0
   -2.1638    2.1090    4.7218 C   0  0  1  0  0  0  0  0  0  0  0  0
   -1.1267    1.6632    3.8560 O   0  0  0  0  0  0  0  0  0  0  0  0
   -1.5123    1.1837    2.5776 C   0  0  2  0  0  0  0  0  0  0  0  0
   -1.7897   -0.3224    2.7073 C   0  0  1  0  0  0  0  0  0  0  0  0
   -2.9660   -0.5277    3.4738 O   0  0  0  0  0  0  0  0  0  0  0  0
   -1.9884   -1.0407    1.3639 C   0  0  2  0  0  0  0  0  0  0  0  0
   -2.1520   -2.4896    1.5587 N   0  0  0  0  0  0  0  0  0  0  0  0
   -0.7883   -0.7826    0.4605 C   0  0  0  0  0  0  0  0  0  0  0  0
   -0.5885    0.7183    0.2890 C   0  0  2  0  0  0  0  0  0  0  0  0
    0.5365    0.9361   -0.6267 N   0  0  0  0  0  0  0  0  0  0  0  0
   -0.3504    1.3887    1.6593 C   0  0  1  0  0  0  0  0  0  0  0  0
   -0.1605    2.7835    1.3761 O   0  0  0  0  0  0  0  0  0  0  0  0
    0.4624    3.5718    2.3846 C   0  0  1  0  0  0  0  0  0  0  0  0
    1.7824    3.1031    2.6461 O   0  0  0  0  0  0  0  0  0  0  0  0
    2.7384    3.2985    1.6061 C   0  0  2  0  0  0  0  0  0  0  0  0
    4.0916    2.7378    2.0632 C   0  0  0  0  0  0  0  0  0  0  0  0
    4.0098    1.3168    2.3695 N   0  0  0  0  0  0  0  0  0  0  0  0
    2.8808    4.7939    1.2666 C   0  0  1  0  0  0  0  0  0  0  0  0
    3.7905    4.9569    0.1931 O   0  0  0  0  0  0  0  0  0  0  0  0
    1.5042    5.3433    0.8722 C   0  0  2  0  0  0  0  0  0  0  0  0
    1.5850    6.7369    0.6386 O   0  0  0  0  0  0  0  0  0  0  0  0
    0.4686    5.0462    1.9651 C   0  0  1  0  0  0  0  0  0  0  0  0
   -0.8688    5.4632    1.5203 N   0  0  0  0  0  0  0  0  0  0  0  0
   -1.5608    2.5361    6.0680 C   0  0  2  0  0  0  0  0  0  0  0  0
   -2.2968    1.9568    7.1292 O   0  0  0  0  0  0  0  0  0  0  0  0
   -1.6692    4.0594    6.0211 C   0  0  2  0  0  0  0  0  0  0  0  0
   -1.7504    4.6632    7.2971 O   0  0  0  0  0  0  0  0  0  0  0  0
  2  1  1  0  0  0  0
  3  2  1  6  0  0  0
  3 30  1  0  0  0  0
  4  5  1  0  0  0  0
  4  3  1  0  0  0  0
  5 28  1  0  0  0  0
  5  6  1  6  0  0  0
  7  6  1  1  0  0  0
  8  7  1  0  0  0  0
  8  9  1  1  0  0  0
 10 11  1  1  0  0  0
 10  8  1  0  0  0  0
 12 10  1  0  0  0  0
 13 12  1  0  0  0  0
 13 15  1  0  0  0  0
 13 14  1  6  0  0  0
 15  7  1  0  0  0  0
 15 16  1  6  0  0  0
 17 16  1  6  0  0  0
 18 17  1  0  0  0  0
 19 20  1  1  0  0  0
 19 18  1  0  0  0  0
 20 21  1  0  0  0  0
 22 24  1  0  0  0  0
 22 19  1  0  0  0  0
 22 23  1  6  0  0  0
 24 25  1  1  0  0  0
 24 26  1  0  0  0  0
 26 17  1  0  0  0  0
 26 27  1  6  0  0  0
 28 29  1  1  0  0  0
 28 30  1  0  0  0  0
 30 31  1  1  0  0  0
M  END
>  <CHROM.1>
-81.80601055,-65.23998139,-65.14076958,-89.01388804,56.81866782,54.95027671
62.51584243,77.34821722,61.73697854,59.61416156,56.62796580,-172.67139776
174.44191547,82.92252289,179.25486720,-173.67721477,-0.32262606,2.73751411
2.75504946,3.10705369,-0.73149532,-2.68027610

>  <Name>
lig.pdb

>  <RI>
3.50357e+07

>  <Rbt.Current_Directory>
/home/itssahil/PROJECTS/Mol_Feturizer/New_Systems/rnas/2n0j

>  <Rbt.Executable>
rbdock ($Id: //depot/dev/client3/rdock/2013.1/src/exe/rbdock.cxx#4 $)

>  <Rbt.Library>
libRbt.so (2013.1, Build901 2013/11/27)

>  <Rbt.Parameter_File>
/export/apps/rDock/src/rDock_2013.1_src/data/scripts/dock_solv.prm

>  <Rbt.Receptor>
prm/pocket_docking_3.prm

>  <SCORE>
-56.8607

>  <SCORE.INTER>
-49.013

>  <SCORE.INTER.CONST>
1

>  <SCORE.INTER.POLAR>
-6.74875

>  <SCORE.INTER.ROT>
6

>  <SCORE.INTER.SOLV>
16.0534

>  <SCORE.INTER.VDW>
-23.1307

>  <SCORE.INTER.norm>
-1.58107

>  <SCORE.INTRA>
-7.84773

>  <SCORE.INTRA.DIHEDRAL>
-18.5806

>  <SCORE.INTRA.DIHEDRAL.0>
28.0161

>  <SCORE.INTRA.POLAR>
-0.0793546

>  <SCORE.INTRA.POLAR.0>
-1.05798

>  <SCORE.INTRA.REPUL>
0.00178164

>  <SCORE.INTRA.REPUL.0>
0

>  <SCORE.INTRA.SOLV>
1.32275

>  <SCORE.INTRA.SOLV.lig_0>
-42.5945

>  <SCORE.INTRA.VDW>
1.04209

>  <SCORE.INTRA.VDW.0>
-5.13869

>  <SCORE.INTRA.norm>
-0.253152

>  <SCORE.RESTR>
0

>  <SCORE.RESTR.CAVITY>
0

>  <SCORE.RESTR.norm>
0

>  <SCORE.SYSTEM>
0

>  <SCORE.SYSTEM.CONST>
0

>  <SCORE.SYSTEM.DIHEDRAL>
0

>  <SCORE.SYSTEM.SOLV>
0

>  <SCORE.SYSTEM.norm>
0

>  <SCORE.heavy>
31

>  <SCORE.norm>
-1.83422

>  <RMSD>
1.335

$$$$
lig.pdb
 OpenBabel11021811453D
libRbt.so/2013.1/901 2013/11/27
 31 33  0  0  0  0  0  0  0  0999 V2000
   -5.1431    3.7399    5.3666 O   0  0  0  0  0  0  0  0  0  0  0  0
   -3.9837    4.0280    6.1235 C   0  0  0  0  0  0  0  0  0  0  0  0
   -3.3570    2.7504    6.6983 C   0  0  1  0  0  0  0  0  0  0  0  0
   -3.0675    1.8021    5.6834 O   0  0  0  0  0  0  0  0  0  0  0  0
   -2.0013    0.9581    6.1072 C   0  0  1  0  0  0  0  0  0  0  0  0
   -1.0320    0.8482    5.0718 O   0  0  0  0  0  0  0  0  0  0  0  0
   -1.4679    0.3162    3.8309 C   0  0  2  0  0  0  0  0  0  0  0  0
   -1.5511   -1.2112    3.9803 C   0  0  1  0  0  0  0  0  0  0  0  0
   -2.6230   -1.5491    4.8466 O   0  0  0  0  0  0  0  0  0  0  0  0
   -1.7794   -1.9585    2.6576 C   0  0  2  0  0  0  0  0  0  0  0  0
   -1.7512   -3.4150    2.8622 N   0  0  0  0  0  0  0  0  0  0  0  0
   -0.7024   -1.5663    1.6531 C   0  0  0  0  0  0  0  0  0  0  0  0
   -0.6989   -0.0537    1.4688 C   0  0  2  0  0  0  0  0  0  0  0  0
    0.3077    0.2894    0.4584 N   0  0  0  0  0  0  0  0  0  0  0  0
   -0.4236    0.6510    2.8147 C   0  0  1  0  0  0  0  0  0  0  0  0
   -0.4269    2.0561    2.5196 O   0  0  0  0  0  0  0  0  0  0  0  0
    0.2806    2.9089    3.4134 C   0  0  1  0  0  0  0  0  0  0  0  0
    1.6875    2.7563    3.2469 O   0  0  0  0  0  0  0  0  0  0  0  0
    2.2331    3.2379    2.0206 C   0  0  2  0  0  0  0  0  0  0  0  0
    3.7479    2.9923    2.0201 C   0  0  0  0  0  0  0  0  0  0  0  0
    4.0673    1.5986    2.2944 N   0  0  0  0  0  0  0  0  0  0  0  0
    1.9481    4.7413    1.8469 C   0  0  1  0  0  0  0  0  0  0  0  0
    2.4477    5.1824    0.5969 O   0  0  0  0  0  0  0  0  0  0  0  0
    0.4324    4.9666    1.9120 C   0  0  2  0  0  0  0  0  0  0  0  0
    0.1426    6.3501    1.8432 O   0  0  0  0  0  0  0  0  0  0  0  0
   -0.1504    4.3641    3.1975 C   0  0  1  0  0  0  0  0  0  0  0  0
   -1.6161    4.4735    3.1873 N   0  0  0  0  0  0  0  0  0  0  0  0
   -1.3668    1.6260    7.3358 C   0  0  2  0  0  0  0  0  0  0  0  0
   -1.6765    0.8828    8.5000 O   0  0  0  0  0  0  0  0  0  0  0  0
   -1.9934    3.0195    7.3267 C   0  0  2  0  0  0  0  0  0  0  0  0
   -2.0642    3.6195    8.6050 O   0  0  0  0  0  0  0  0  0  0  0  0
  2  1  1  0  0  0  0
  3  2  1  6  0  0  0
  3 30  1  0  0  0  0
  4  5  1  0  0  0  0
  4  3  1  0  0  0  0
  5 28  1  0  0  0  0
  5  6  1  6  0  0  0
  7  6  1  1  0  0  0
  8  7  1  0  0  0  0
  8  9  1  1  0  0  0
 10 11  1  1  0  0  0
 10  8  1  0  0  0  0
 12 10  1  0  0  0  0
 13 12  1  0  0  0  0
 13 15  1  0  0  0  0
 13 14  1  6  0  0  0
 15  7  1  0  0  0  0
 15 16  1  6  0  0  0
 17 16  1  6  0  0  0
 18 17  1  0  0  0  0
 19 20  1  1  0  0  0
 19 18  1  0  0  0  0
 20 21  1  0  0  0  0
 22 24  1  0  0  0  0
 22 19  1  0  0  0  0
 22 23  1  6  0  0  0
 24 25  1  1  0  0  0
 24 26  1  0  0  0  0
 26 17  1  0  0  0  0
 26 27  1  6  0  0  0
 28 29  1  1  0  0  0
 28 30  1  0  0  0  0
 30 31  1  1  0  0  0
M  END
>  <CHROM.1>
60.04590604,55.64032506,-59.66520784,-78.45004238,-174.82228301,-155.90415301
-174.22672399,82.51034299,72.94166855,53.64266055,-51.40796343,-77.97825012
91.54249489,75.08287493,-61.05996996,59.21689463,-0.70495819,1.95273698,3.85801117
3.03457586,-0.83745527,-2.86367714

>  <Name>
lig.pdb

>  <RI>
3.33129e+07

>  <Rbt.Current_Directory>
/home/itssahil/PROJECTS/Mol_Feturizer/New_Systems/rnas/2n0j

>  <Rbt.Executable>
rbdock ($Id: //depot/dev/client3/rdock/2013.1/src/exe/rbdock.cxx#4 $)

>  <Rbt.Library>
libRbt.so (2013.1, Build901 2013/11/27)

>  <Rbt.Parameter_File>
/export/apps/rDock/src/rDock_2013.1_src/data/scripts/dock_solv.prm

>  <Rbt.Receptor>
prm/pocket_docking_4.prm

>  <SCORE>
-42.7965

>  <SCORE.INTER>
-39.1903

>  <SCORE.INTER.CONST>
1

>  <SCORE.INTER.POLAR>
-5.11855

>  <SCORE.INTER.ROT>
6

>  <SCORE.INTER.SOLV>
12.4406

>  <SCORE.INTER.VDW>
-20.8119

>  <SCORE.INTER.norm>
-1.2642

>  <SCORE.INTRA>
-3.60629

>  <SCORE.INTRA.DIHEDRAL>
-15.28

>  <SCORE.INTRA.DIHEDRAL.0>
28.0161

>  <SCORE.INTRA.POLAR>
0.939052

>  <SCORE.INTRA.POLAR.0>
-1.05798

>  <SCORE.INTRA.REPUL>
0

>  <SCORE.INTRA.REPUL.0>
0

>  <SCORE.INTRA.SOLV>
-0.634699

>  <SCORE.INTRA.SOLV.lig_0>
-42.5945

>  <SCORE.INTRA.VDW>
1.15831

>  <SCORE.INTRA.VDW.0>
-5.13869

>  <SCORE.INTRA.norm>
-0.116332

>  <SCORE.RESTR>
0

>  <SCORE.RESTR.CAVITY>
0

>  <SCORE.RESTR.norm>
0

>  <SCORE.SYSTEM>
0

>  <SCORE.SYSTEM.CONST>
0

>  <SCORE.SYSTEM.DIHEDRAL>
0

>  <SCORE.SYSTEM.SOLV>
0

>  <SCORE.SYSTEM.norm>
0

>  <SCORE.heavy>
31

>  <SCORE.norm>
-1.38053

>  <RMSD>
1.339

$$$$
lig.pdb
 OpenBabel11021811453D
libRbt.so/2013.1/901 2013/11/27
 31 33  0  0  0  0  0  0  0  0999 V2000
   -3.3274    4.8125    4.6943 O   0  0  0  0  0  0  0  0  0  0  0  0
   -4.3352    4.3460    5.5700 C   0  0  0  0  0  0  0  0  0  0  0  0
   -4.0706    2.8999    6.0103 C   0  0  1  0  0  0  0  0  0  0  0  0
   -3.9115    2.0311    4.9000 O   0  0  0  0  0  0  0  0  0  0  0  0
   -3.1084    0.9163    5.2758 C   0  0  1  0  0  0  0  0  0  0  0  0
   -2.0980    0.6981    4.2985 O   0  0  0  0  0  0  0  0  0  0  0  0
   -2.5222    0.2757    3.0122 C   0  0  2  0  0  0  0  0  0  0  0  0
   -2.6299   -1.2573    3.0353 C   0  0  1  0  0  0  0  0  0  0  0  0
   -3.7199   -1.6477    3.8556 O   0  0  0  0  0  0  0  0  0  0  0  0
   -2.8484   -1.8908    1.6529 C   0  0  2  0  0  0  0  0  0  0  0  0
   -2.8445   -3.3594    1.7383 N   0  0  0  0  0  0  0  0  0  0  0  0
   -1.7502   -1.4352    0.6992 C   0  0  0  0  0  0  0  0  0  0  0  0
   -1.7219    0.0872    0.6391 C   0  0  2  0  0  0  0  0  0  0  0  0
   -0.6949    0.4955   -0.3254 N   0  0  0  0  0  0  0  0  0  0  0  0
   -1.4574    0.6756    2.0418 C   0  0  1  0  0  0  0  0  0  0  0  0
   -1.4358    2.1000    1.8624 O   0  0  0  0  0  0  0  0  0  0  0  0
   -0.8810    2.8789    2.9170 C   0  0  1  0  0  0  0  0  0  0  0  0
    0.3965    2.3745    3.2968 O   0  0  0  0  0  0  0  0  0  0  0  0
    1.4455    2.5329    2.3440 C   0  0  2  0  0  0  0  0  0  0  0  0
    2.7361    1.9373    2.9221 C   0  0  0  0  0  0  0  0  0  0  0  0
    3.7814    1.8365    1.9137 N   0  0  0  0  0  0  0  0  0  0  0  0
    1.6615    4.0205    2.0090 C   0  0  1  0  0  0  0  0  0  0  0  0
    2.6666    4.1476    1.0190 O   0  0  0  0  0  0  0  0  0  0  0  0
    0.3418    4.6060    1.4913 C   0  0  2  0  0  0  0  0  0  0  0  0
    0.4842    5.9945    1.2571 O   0  0  0  0  0  0  0  0  0  0  0  0
   -0.7942    4.3486    2.4904 C   0  0  1  0  0  0  0  0  0  0  0  0
   -2.0744    4.8003    1.9268 N   0  0  0  0  0  0  0  0  0  0  0  0
   -2.4551    1.2718    6.6193 C   0  0  2  0  0  0  0  0  0  0  0  0
   -3.0314    0.4962    7.6537 O   0  0  0  0  0  0  0  0  0  0  0  0
   -2.7455    2.7658    6.7539 C   0  0  2  0  0  0  0  0  0  0  0  0
   -2.7959    3.2170    8.0929 O   0  0  0  0  0  0  0  0  0  0  0  0
  2  1  1  0  0  0  0
  3  2  1  6  0  0  0
  3 30  1  0  0  0  0
  4  5  1  0  0  0  0
  4  3  1  0  0  0  0
  5 28  1  0  0  0  0
  5  6  1  6  0  0  0
  7  6  1  1  0  0  0
  8  7  1  0  0  0  0
  8  9  1  1  0  0  0
 10 11  1  1  0  0  0
 10  8  1  0  0  0  0
 12 10  1  0  0  0  0
 13 12  1  0  0  0  0
 13 15  1  0  0  0  0
 13 14  1  6  0  0  0
 15  7  1  0  0  0  0
 15 16  1  6  0  0  0
 17 16  1  6  0  0  0
 18 17  1  0  0  0  0
 19 20  1  1  0  0  0
 19 18  1  0  0  0  0
 20 21  1  0  0  0  0
 22 24  1  0  0  0  0
 22 19  1  0  0  0  0
 22 23  1  6  0  0  0
 24 25  1  1  0  0  0
 24 26  1  0  0  0  0
 26 17  1  0  0  0  0
 26 27  1  6  0  0  0
 28 29  1  1  0  0  0
 28 30  1  0  0  0  0
 30 31  1  1  0  0  0
M  END
>  <CHROM.1>
-58.69322386,-54.77202942,-66.81367640,-86.89969653,60.72048404,163.41865005
-62.94662852,74.66561670,50.28127877,169.21550889,154.90266276,-175.76130340
172.43643616,-177.74940336,-174.92010118,-65.27292706,-1.39540117,1.86141556
3.27441114,-3.13863534,-0.77548170,-2.60374490

>  <Name>
lig.pdb

>  <RI>
2.67765e+07

>  <Rbt.Current_Directory>
/home/itssahil/PROJECTS/Mol_Feturizer/New_Systems/rnas/2n0j

>  <Rbt.Executable>
rbdock ($Id: //depot/dev/client3/rdock/2013.1/src/exe/rbdock.cxx#4 $)

>  <Rbt.Library>
libRbt.so (2013.1, Build901 2013/11/27)

>  <Rbt.Parameter_File>
/export/apps/rDock/src/rDock_2013.1_src/data/scripts/dock_solv.prm

>  <Rbt.Receptor>
prm/pocket_docking_2.prm

>  <SCORE>
-43.8362

>  <SCORE.INTER>
-33.8629

>  <SCORE.INTER.CONST>
1

>  <SCORE.INTER.POLAR>
-5.04081

>  <SCORE.INTER.ROT>
6

>  <SCORE.INTER.SOLV>
11.4035

>  <SCORE.INTER.VDW>
-17.1737

>  <SCORE.INTER.norm>
-1.09235

>  <SCORE.INTRA>
-10.5735

>  <SCORE.INTRA.DIHEDRAL>
-19.7384

>  <SCORE.INTRA.DIHEDRAL.0>
28.0161

>  <SCORE.INTRA.POLAR>
-0.70613

>  <SCORE.INTRA.POLAR.0>
-1.05798

>  <SCORE.INTRA.REPUL>
0

>  <SCORE.INTRA.REPUL.0>
0

>  <SCORE.INTRA.SOLV>
1.46986

>  <SCORE.INTRA.SOLV.lig_0>
-42.5945

>  <SCORE.INTRA.VDW>
0.961653

>  <SCORE.INTRA.VDW.0>
-5.13869

>  <SCORE.INTRA.norm>
-0.341079

>  <SCORE.RESTR>
0.600131

>  <SCORE.RESTR.CAVITY>
0.600131

>  <SCORE.RESTR.norm>
0.0193591

>  <SCORE.SYSTEM>
0

>  <SCORE.SYSTEM.CONST>
0

>  <SCORE.SYSTEM.DIHEDRAL>
0

>  <SCORE.SYSTEM.SOLV>
0

>  <SCORE.SYSTEM.norm>
0

>  <SCORE.heavy>
31

>  <SCORE.norm>
-1.41407

>  <RMSD>
1.367

$$$$
lig.pdb
 OpenBabel11021811453D
libRbt.so/2013.1/901 2013/11/27
 31 33  0  0  0  0  0  0  0  0999 V2000
   -6.0846    3.5595    4.9387 O   0  0  0  0  0  0  0  0  0  0  0  0
   -4.7190    3.8148    4.6738 C   0  0  0  0  0  0  0  0  0  0  0  0
   -3.8101    2.8111    5.3961 C   0  0  1  0  0  0  0  0  0  0  0  0
   -3.2679    1.8521    4.5020 O   0  0  0  0  0  0  0  0  0  0  0  0
   -2.0370    1.3570    5.0203 C   0  0  1  0  0  0  0  0  0  0  0  0
   -1.0440    1.3711    4.0017 O   0  0  0  0  0  0  0  0  0  0  0  0
   -1.4261    0.9012    2.7187 C   0  0  2  0  0  0  0  0  0  0  0  0
   -1.5853   -0.6249    2.8080 C   0  0  1  0  0  0  0  0  0  0  0  0
   -2.7220   -0.9417    3.5960 O   0  0  0  0  0  0  0  0  0  0  0  0
   -1.7649   -1.3166    1.4480 C   0  0  2  0  0  0  0  0  0  0  0  0
   -1.8133   -2.7788    1.6015 N   0  0  0  0  0  0  0  0  0  0  0  0
   -0.6122   -0.9413    0.5242 C   0  0  0  0  0  0  0  0  0  0  0  0
   -0.5310    0.5748    0.3950 C   0  0  2  0  0  0  0  0  0  0  0  0
    0.5496    0.9046   -0.5406 N   0  0  0  0  0  0  0  0  0  0  0  0
   -0.3078    1.2211    1.7793 C   0  0  1  0  0  0  0  0  0  0  0  0
   -0.2314    2.6339    1.5352 O   0  0  0  0  0  0  0  0  0  0  0  0
    0.3993    3.4317    2.5314 C   0  0  1  0  0  0  0  0  0  0  0  0
    1.7281    2.9774    2.7731 O   0  0  0  0  0  0  0  0  0  0  0  0
    2.6653    3.1795    1.7174 C   0  0  2  0  0  0  0  0  0  0  0  0
    4.0314    2.6342    2.1544 C   0  0  0  0  0  0  0  0  0  0  0  0
    3.9704    1.2122    2.4609 N   0  0  0  0  0  0  0  0  0  0  0  0
    2.7868    4.6752    1.3714 C   0  0  1  0  0  0  0  0  0  0  0  0
    3.6775    4.8444    0.2830 O   0  0  0  0  0  0  0  0  0  0  0  0
    1.3984    5.2093    0.9975 C   0  0  2  0  0  0  0  0  0  0  0  0
    1.4611    6.6028    0.7586 O   0  0  0  0  0  0  0  0  0  0  0  0
    0.3836    4.9047    2.1076 C   0  0  1  0  0  0  0  0  0  0  0  0
   -0.9651    5.3066    1.6831 N   0  0  0  0  0  0  0  0  0  0  0  0
   -1.6206    2.3023    6.1565 C   0  0  2  0  0  0  0  0  0  0  0  0
   -1.7664    1.6481    7.4032 O   0  0  0  0  0  0  0  0  0  0  0  0
   -2.5729    3.4842    5.9818 C   0  0  2  0  0  0  0  0  0  0  0  0
   -2.8238    4.1941    7.1785 O   0  0  0  0  0  0  0  0  0  0  0  0
  2  1  1  0  0  0  0
  3  2  1  6  0  0  0
  3 30  1  0  0  0  0
  4  5  1  0  0  0  0
  4  3  1  0  0  0  0
  5 28  1  0  0  0  0
  5  6  1  6  0  0  0
  7  6  1  1  0  0  0
  8  7  1  0  0  0  0
  8  9  1  1  0  0  0
 10 11  1  1  0  0  0
 10  8  1  0  0  0  0
 12 10  1  0  0  0  0
 13 12  1  0  0  0  0
 13 15  1  0  0  0  0
 13 14  1  6  0  0  0
 15  7  1  0  0  0  0
 15 16  1  6  0  0  0
 17 16  1  6  0  0  0
 18 17  1  0  0  0  0
 19 20  1  1  0  0  0
 19 18  1  0  0  0  0
 20 21  1  0  0  0  0
 22 24  1  0  0  0  0
 22 19  1  0  0  0  0
 22 23  1  6  0  0  0
 24 25  1  1  0  0  0
 24 26  1  0  0  0  0
 26 17  1  0  0  0  0
 26 27  1  6  0  0  0
 28 29  1  1  0  0  0
 28 30  1  0  0  0  0
 30 31  1  1  0  0  0
M  END
>  <CHROM.1>
-57.54200972,105.37504651,-44.07691979,-71.95666680,-83.31888456,61.71443209
-57.08761667,79.51108424,56.95820601,59.84423046,60.97925758,-176.59081328
172.00059986,-158.77241610,-58.59447029,63.22387055,-0.61214293,2.29497453
2.90997711,3.13214540,-0.65701435,-2.78020796

>  <Name>
lig.pdb

>  <RI>
3.50357e+07

>  <Rbt.Current_Directory>
/home/itssahil/PROJECTS/Mol_Feturizer/New_Systems/rnas/2n0j

>  <Rbt.Executable>
rbdock ($Id: //depot/dev/client3/rdock/2013.1/src/exe/rbdock.cxx#4 $)

>  <Rbt.Library>
libRbt.so (2013.1, Build901 2013/11/27)

>  <Rbt.Parameter_File>
/export/apps/rDock/src/rDock_2013.1_src/data/scripts/dock_solv.prm

>  <Rbt.Receptor>
prm/pocket_docking_3.prm

>  <SCORE>
-44.1425

>  <SCORE.INTER>
-42.3107

>  <SCORE.INTER.CONST>
1

>  <SCORE.INTER.POLAR>
-5.73169

>  <SCORE.INTER.ROT>
6

>  <SCORE.INTER.SOLV>
15.0943

>  <SCORE.INTER.VDW>
-21.7329

>  <SCORE.INTER.norm>
-1.36486

>  <SCORE.INTRA>
-1.95165

>  <SCORE.INTRA.DIHEDRAL>
-15.6961

>  <SCORE.INTRA.DIHEDRAL.0>
28.0161

>  <SCORE.INTRA.POLAR>
0.936545

>  <SCORE.INTRA.POLAR.0>
-1.05798

>  <SCORE.INTRA.REPUL>
0

>  <SCORE.INTRA.REPUL.0>
0

>  <SCORE.INTRA.SOLV>
-0.864516

>  <SCORE.INTRA.SOLV.lig_0>
-42.5945

>  <SCORE.INTRA.VDW>
3.14439

>  <SCORE.INTRA.VDW.0>
-5.13869

>  <SCORE.INTRA.norm>
-0.0629563

>  <SCORE.RESTR>
0.119851

>  <SCORE.RESTR.CAVITY>
0.119851

>  <SCORE.RESTR.norm>
0.00386617

>  <SCORE.SYSTEM>
0

>  <SCORE.SYSTEM.CONST>
0

>  <SCORE.SYSTEM.DIHEDRAL>
0

>  <SCORE.SYSTEM.SOLV>
0

>  <SCORE.SYSTEM.norm>
0

>  <SCORE.heavy>
31

>  <SCORE.norm>
-1.42395

>  <RMSD>
1.396

$$$$
lig.pdb
 OpenBabel11021811453D
libRbt.so/2013.1/901 2013/11/27
 31 33  0  0  0  0  0  0  0  0999 V2000
   -3.1578    7.7354    5.3460 O   0  0  0  0  0  0  0  0  0  0  0  0
   -2.5939    6.7503    4.5023 C   0  0  0  0  0  0  0  0  0  0  0  0
   -2.8758    5.3353    5.0256 C   0  0  1  0  0  0  0  0  0  0  0  0
   -2.7478    4.3597    4.0035 O   0  0  0  0  0  0  0  0  0  0  0  0
   -2.4160    3.1011    4.5821 C   0  0  1  0  0  0  0  0  0  0  0  0
   -1.3309    2.5149    3.8730 O   0  0  0  0  0  0  0  0  0  0  0  0
   -1.6003    2.0211    2.5705 C   0  0  2  0  0  0  0  0  0  0  0  0
   -2.1241    0.5834    2.7146 C   0  0  1  0  0  0  0  0  0  0  0  0
   -3.4151    0.6016    3.3032 O   0  0  0  0  0  0  0  0  0  0  0  0
   -2.2387   -0.1777    1.3850 C   0  0  2  0  0  0  0  0  0  0  0  0
   -2.6516   -1.5718    1.6083 N   0  0  0  0  0  0  0  0  0  0  0  0
   -0.8968   -0.1555    0.6627 C   0  0  0  0  0  0  0  0  0  0  0  0
   -0.4437    1.2860    0.4659 C   0  0  2  0  0  0  0  0  0  0  0  0
    0.8203    1.2787   -0.2783 N   0  0  0  0  0  0  0  0  0  0  0  0
   -0.3019    1.9956    1.8298 C   0  0  1  0  0  0  0  0  0  0  0  0
    0.1410    3.3270    1.5252 O   0  0  0  0  0  0  0  0  0  0  0  0
    0.7393    4.0700    2.5819 C   0  0  1  0  0  0  0  0  0  0  0  0
    2.1242    3.7549    2.6972 O   0  0  0  0  0  0  0  0  0  0  0  0
    2.9618    4.1950    1.6303 C   0  0  2  0  0  0  0  0  0  0  0  0
    4.4068    3.7713    1.9256 C   0  0  0  0  0  0  0  0  0  0  0  0
    4.6418    2.3781    1.5740 N   0  0  0  0  0  0  0  0  0  0  0  0
    2.8887    5.7251    1.4716 C   0  0  1  0  0  0  0  0  0  0  0  0
    3.6819    6.1309    0.3704 O   0  0  0  0  0  0  0  0  0  0  0  0
    1.4271    6.1273    1.2384 C   0  0  2  0  0  0  0  0  0  0  0  0
    1.3143    7.5367    1.1758 O   0  0  0  0  0  0  0  0  0  0  0  0
    0.5277    5.5704    2.3501 C   0  0  1  0  0  0  0  0  0  0  0  0
   -0.8827    5.8534    2.0480 N   0  0  0  0  0  0  0  0  0  0  0  0
   -1.9929    3.3762    6.0324 C   0  0  2  0  0  0  0  0  0  0  0  0
   -2.9840    2.8955    6.9213 O   0  0  0  0  0  0  0  0  0  0  0  0
   -1.8450    4.8966    6.0609 C   0  0  2  0  0  0  0  0  0  0  0  0
   -2.0463    5.4637    7.3403 O   0  0  0  0  0  0  0  0  0  0  0  0
  2  1  1  0  0  0  0
  3  2  1  6  0  0  0
  3 30  1  0  0  0  0
  4  5  1  0  0  0  0
  4  3  1  0  0  0  0
  5 28  1  0  0  0  0
  5  6  1  6  0  0  0
  7  6  1  1  0  0  0
  8  7  1  0  0  0  0
  8  9  1  6  0  0  0
 10 11  1  1  0  0  0
 10  8  1  0  0  0  0
 12 10  1  0  0  0  0
 13 12  1  0  0  0  0
 13 15  1  0  0  0  0
 13 14  1  1  0  0  0
 15  7  1  0  0  0  0
 15 16  1  6  0  0  0
 17 16  1  6  0  0  0
 18 17  1  0  0  0  0
 19 20  1  1  0  0  0
 19 18  1  0  0  0  0
 20 21  1  0  0  0  0
 22 24  1  0  0  0  0
 22 19  1  0  0  0  0
 22 23  1  6  0  0  0
 24 25  1  1  0  0  0
 24 26  1  0  0  0  0
 26 17  1  0  0  0  0
 26 27  1  6  0  0  0
 28 29  1  1  0  0  0
 28 30  1  0  0  0  0
 30 31  1  1  0  0  0
M  END
>  <CHROM.1>
-60.18125339,159.39350174,-71.58765150,-85.94467915,-170.17846613,-177.68611558
-50.03501209,77.87715815,84.24409888,80.86585767,-168.20908342,-64.24095091
-59.83270682,143.56372764,175.03833645,62.65830827,-0.41738954,3.58500456
2.86800727,-2.93989524,-0.60907178,-2.69573674

>  <Name>
lig.pdb

>  <RI>
3.50357e+07

>  <Rbt.Current_Directory>
/home/itssahil/PROJECTS/Mol_Feturizer/New_Systems/rnas/2n0j

>  <Rbt.Executable>
rbdock ($Id: //depot/dev/client3/rdock/2013.1/src/exe/rbdock.cxx#4 $)

>  <Rbt.Library>
libRbt.so (2013.1, Build901 2013/11/27)

>  <Rbt.Parameter_File>
/export/apps/rDock/src/rDock_2013.1_src/data/scripts/dock_solv.prm

>  <Rbt.Receptor>
prm/pocket_docking_3.prm

>  <SCORE>
-44.8175

>  <SCORE.INTER>
-39.5755

>  <SCORE.INTER.CONST>
1

>  <SCORE.INTER.POLAR>
-4.22071

>  <SCORE.INTER.ROT>
6

>  <SCORE.INTER.SOLV>
16.8889

>  <SCORE.INTER.VDW>
-25.5443

>  <SCORE.INTER.norm>
-1.27663

>  <SCORE.INTRA>
-5.26594

>  <SCORE.INTRA.DIHEDRAL>
-13.7792

>  <SCORE.INTRA.DIHEDRAL.0>
28.0161

>  <SCORE.INTRA.POLAR>
0.0988221

>  <SCORE.INTRA.POLAR.0>
-1.05798

>  <SCORE.INTRA.REPUL>
0

>  <SCORE.INTRA.REPUL.0>
0

>  <SCORE.INTRA.SOLV>
-0.0171959

>  <SCORE.INTRA.SOLV.lig_0>
-42.5945

>  <SCORE.INTRA.VDW>
1.29625

>  <SCORE.INTRA.VDW.0>
-5.13869

>  <SCORE.INTRA.norm>
-0.169869

>  <SCORE.RESTR>
0.0239315

>  <SCORE.RESTR.CAVITY>
0.0239315

>  <SCORE.RESTR.norm>
0.000771984

>  <SCORE.SYSTEM>
0

>  <SCORE.SYSTEM.CONST>
0

>  <SCORE.SYSTEM.DIHEDRAL>
0

>  <SCORE.SYSTEM.SOLV>
0

>  <SCORE.SYSTEM.norm>
0

>  <SCORE.heavy>
31

>  <SCORE.norm>
-1.44573

>  <RMSD>
1.422

$$$$
lig.pdb
 OpenBabel11021811453D
libRbt.so/2013.1/901 2013/11/27
 31 33  0  0  0  0  0  0  0  0999 V2000
   -1.7057    4.2791    7.6153 O   0  0  0  0  0  0  0  0  0  0  0  0
   -2.9427    3.6468    7.8799 C   0  0  0  0  0  0  0  0  0  0  0  0
   -3.0321    2.2784    7.1908 C   0  0  1  0  0  0  0  0  0  0  0  0
   -2.8483    2.3813    5.7878 O   0  0  0  0  0  0  0  0  0  0  0  0
   -2.3440    1.1499    5.2796 C   0  0  1  0  0  0  0  0  0  0  0  0
   -1.2385    1.3992    4.4196 O   0  0  0  0  0  0  0  0  0  0  0  0
   -1.3298    0.9117    3.0904 C   0  0  2  0  0  0  0  0  0  0  0  0
   -1.0362   -0.5965    3.1243 C   0  0  1  0  0  0  0  0  0  0  0  0
   -2.1018   -1.2767    3.7687 O   0  0  0  0  0  0  0  0  0  0  0  0
   -0.8614   -1.2319    1.7365 C   0  0  2  0  0  0  0  0  0  0  0  0
   -0.4880   -2.6505    1.8484 N   0  0  0  0  0  0  0  0  0  0  0  0
    0.2160   -0.4835    0.9605 C   0  0  0  0  0  0  0  0  0  0  0  0
   -0.1447    0.9947    0.8777 C   0  0  2  0  0  0  0  0  0  0  0  0
    0.8789    1.6792    0.0806 N   0  0  0  0  0  0  0  0  0  0  0  0
   -0.2671    1.5981    2.2935 C   0  0  1  0  0  0  0  0  0  0  0  0
   -0.5898    2.9828    2.0937 O   0  0  0  0  0  0  0  0  0  0  0  0
   -0.3061    3.8767    3.1648 C   0  0  1  0  0  0  0  0  0  0  0  0
    1.0961    4.1083    3.2689 O   0  0  0  0  0  0  0  0  0  0  0  0
    1.6924    4.8536    2.2095 C   0  0  2  0  0  0  0  0  0  0  0  0
    3.1933    5.0040    2.4910 C   0  0  0  0  0  0  0  0  0  0  0  0
    3.8930    5.6138    1.3692 N   0  0  0  0  0  0  0  0  0  0  0  0
    1.0428    6.2444    2.0847 C   0  0  1  0  0  0  0  0  0  0  0  0
    1.6106    6.9419    0.9903 O   0  0  0  0  0  0  0  0  0  0  0  0
   -0.4647    6.0666    1.8648 C   0  0  2  0  0  0  0  0  0  0  0  0
   -1.1041    7.3288    1.8336 O   0  0  0  0  0  0  0  0  0  0  0  0
   -1.0733    5.1889    2.9667 C   0  0  1  0  0  0  0  0  0  0  0  0
   -2.4890    4.9215    2.6752 N   0  0  0  0  0  0  0  0  0  0  0  0
   -1.8780    0.3271    6.4896 C   0  0  2  0  0  0  0  0  0  0  0  0
   -2.7584   -0.7614    6.6980 O   0  0  0  0  0  0  0  0  0  0  0  0
   -1.9039    1.3485    7.6256 C   0  0  2  0  0  0  0  0  0  0  0  0
   -2.0999    0.7739    8.9025 O   0  0  0  0  0  0  0  0  0  0  0  0
  2  1  1  0  0  0  0
  3  2  1  1  0  0  0
  3 30  1  0  0  0  0
  4  5  1  0  0  0  0
  4  3  1  0  0  0  0
  5 28  1  0  0  0  0
  5  6  1  6  0  0  0
  7  6  1  1  0  0  0
  8  7  1  0  0  0  0
  8  9  1  6  0  0  0
 10 11  1  1  0  0  0
 10  8  1  0  0  0  0
 12 10  1  0  0  0  0
 13 12  1  0  0  0  0
 13 15  1  0  0  0  0
 13 14  1  6  0  0  0
 15  7  1  0  0  0  0
 15 16  1  6  0  0  0
 17 16  1  6  0  0  0
 18 17  1  0  0  0  0
 19 20  1  1  0  0  0
 19 18  1  0  0  0  0
 20 21  1  0  0  0  0
 22 24  1  0  0  0  0
 22 19  1  0  0  0  0
 22 23  1  6  0  0  0
 24 25  1  1  0  0  0
 24 26  1  0  0  0  0
 26 17  1  0  0  0  0
 26 27  1  6  0  0  0
 28 29  1  1  0  0  0
 28 30  1  0  0  0  0
 30 31  1  1  0  0  0
M  END
>  <CHROM.1>
-177.54325385,-57.29769091,-122.82209059,-78.04403678,56.40664230,-15.55962808
78.69886542,80.72421475,73.56010356,173.01376206,51.65293491,68.21124932
78.21019626,-40.70993279,62.06082526,67.23169066,-0.68720529,2.56195835,3.62852698
2.69426052,-1.04876534,-2.80261099

>  <Name>
lig.pdb

>  <RI>
3.50357e+07

>  <Rbt.Current_Directory>
/home/itssahil/PROJECTS/Mol_Feturizer/New_Systems/rnas/2n0j

>  <Rbt.Executable>
rbdock ($Id: //depot/dev/client3/rdock/2013.1/src/exe/rbdock.cxx#4 $)

>  <Rbt.Library>
libRbt.so (2013.1, Build901 2013/11/27)

>  <Rbt.Parameter_File>
/export/apps/rDock/src/rDock_2013.1_src/data/scripts/dock_solv.prm

>  <Rbt.Receptor>
prm/pocket_docking_3.prm

>  <SCORE>
-36.4065

>  <SCORE.INTER>
-34.1349

>  <SCORE.INTER.CONST>
1

>  <SCORE.INTER.POLAR>
-4.09475

>  <SCORE.INTER.ROT>
6

>  <SCORE.INTER.SOLV>
13.8245

>  <SCORE.INTER.VDW>
-21.3156

>  <SCORE.INTER.norm>
-1.10113

>  <SCORE.INTRA>
-2.31725

>  <SCORE.INTRA.DIHEDRAL>
-8.97103

>  <SCORE.INTRA.DIHEDRAL.0>
28.0161

>  <SCORE.INTRA.POLAR>
-0.240921

>  <SCORE.INTRA.POLAR.0>
-1.05798

>  <SCORE.INTRA.REPUL>
0

>  <SCORE.INTRA.REPUL.0>
0

>  <SCORE.INTRA.SOLV>
1.15703

>  <SCORE.INTRA.SOLV.lig_0>
-42.5945

>  <SCORE.INTRA.VDW>
2.40888

>  <SCORE.INTRA.VDW.0>
-5.13869

>  <SCORE.INTRA.norm>
-0.07475

>  <SCORE.RESTR>
0.0456575

>  <SCORE.RESTR.CAVITY>
0.0456575

>  <SCORE.RESTR.norm>
0.00147282

>  <SCORE.SYSTEM>
0

>  <SCORE.SYSTEM.CONST>
0

>  <SCORE.SYSTEM.DIHEDRAL>
0

>  <SCORE.SYSTEM.SOLV>
0

>  <SCORE.SYSTEM.norm>
0

>  <SCORE.heavy>
31

>  <SCORE.norm>
-1.1744

>  <RMSD>
1.471

$$$$
lig.pdb
 OpenBabel11021811453D
libRbt.so/2013.1/901 2013/11/27
 31 33  0  0  0  0  0  0  0  0999 V2000
   -1.4228    3.6325    8.2972 O   0  0  0  0  0  0  0  0  0  0  0  0
   -2.2218    4.6017    7.6471 C   0  0  0  0  0  0  0  0  0  0  0  0
   -3.0000    3.9917    6.4735 C   0  0  1  0  0  0  0  0  0  0  0  0
   -2.1364    3.3763    5.5308 O   0  0  0  0  0  0  0  0  0  0  0  0
   -2.8402    2.3527    4.8339 C   0  0  1  0  0  0  0  0  0  0  0  0
   -2.0583    1.1646    4.8029 O   0  0  0  0  0  0  0  0  0  0  0  0
   -1.9317    0.5057    3.5529 C   0  0  2  0  0  0  0  0  0  0  0  0
   -2.1187   -1.0002    3.7970 C   0  0  1  0  0  0  0  0  0  0  0  0
   -3.4695   -1.2645    4.1418 O   0  0  0  0  0  0  0  0  0  0  0  0
   -1.7763   -1.8786    2.5841 C   0  0  2  0  0  0  0  0  0  0  0  0
   -1.8844   -3.3070    2.9191 N   0  0  0  0  0  0  0  0  0  0  0  0
   -0.3593   -1.5741    2.1124 C   0  0  0  0  0  0  0  0  0  0  0  0
   -0.2296   -0.0874    1.8039 C   0  0  2  0  0  0  0  0  0  0  0  0
    1.1247    0.1668    1.3011 N   0  0  0  0  0  0  0  0  0  0  0  0
   -0.5410    0.7516    3.0620 C   0  0  1  0  0  0  0  0  0  0  0  0
   -0.3730    2.1202    2.6616 O   0  0  0  0  0  0  0  0  0  0  0  0
    0.4378    2.9447    3.4918 C   0  0  1  0  0  0  0  0  0  0  0  0
    1.8142    2.6049    3.3480 O   0  0  0  0  0  0  0  0  0  0  0  0
    2.4129    2.9178    2.0921 C   0  0  2  0  0  0  0  0  0  0  0  0
    3.8849    2.4855    2.1219 C   0  0  0  0  0  0  0  0  0  0  0  0
    4.0244    1.0711    2.4378 N   0  0  0  0  0  0  0  0  0  0  0  0
    2.3178    4.4269    1.8005 C   0  0  1  0  0  0  0  0  0  0  0  0
    2.8658    4.7036    0.5239 O   0  0  0  0  0  0  0  0  0  0  0  0
    0.8424    4.8442    1.8368 C   0  0  2  0  0  0  0  0  0  0  0  0
    0.7279    6.2436    1.6590 O   0  0  0  0  0  0  0  0  0  0  0  0
    0.1919    4.4211    3.1608 C   0  0  1  0  0  0  0  0  0  0  0  0
   -1.2487    4.7117    3.1313 N   0  0  0  0  0  0  0  0  0  0  0  0
   -4.1368    2.0938    5.6149 C   0  0  2  0  0  0  0  0  0  0  0  0
   -5.2447    2.5824    4.8818 O   0  0  0  0  0  0  0  0  0  0  0  0
   -3.9016    2.8465    6.9235 C   0  0  2  0  0  0  0  0  0  0  0  0
   -5.0920    3.2739    7.5556 O   0  0  0  0  0  0  0  0  0  0  0  0
  2  1  1  0  0  0  0
  3  2  1  1  0  0  0
  3 30  1  0  0  0  0
  4  5  1  0  0  0  0
  4  3  1  0  0  0  0
  5 28  1  0  0  0  0
  5  6  1  1  0  0  0
  7  6  1  1  0  0  0
  8  7  1  0  0  0  0
  8  9  1  6  0  0  0
 10 11  1  1  0  0  0
 10  8  1  0  0  0  0
 12 10  1  0  0  0  0
 13 12  1  0  0  0  0
 13 15  1  0  0  0  0
 13 14  1  1  0  0  0
 15  7  1  0  0  0  0
 15 16  1  6  0  0  0
 17 16  1  6  0  0  0
 18 17  1  0  0  0  0
 19 20  1  1  0  0  0
 19 18  1  0  0  0  0
 20 21  1  0  0  0  0
 22 24  1  0  0  0  0
 22 19  1  0  0  0  0
 22 23  1  6  0  0  0
 24 25  1  1  0  0  0
 24 26  1  0  0  0  0
 26 17  1  0  0  0  0
 26 27  1  6  0  0  0
 28 29  1  6  0  0  0
 28 30  1  0  0  0  0
 30 31  1  6  0  0  0
M  END
>  <CHROM.1>
-61.37978716,-56.91750257,-132.54280156,-135.93466241,-59.24277977,-61.97083625
174.26610907,109.00218817,72.72861652,56.61362330,-46.08262447,-176.29448209
64.12410025,63.05736108,60.43761933,177.42933291,-0.82052932,2.12433231,3.74904201
-3.03962315,-0.63677138,-2.81528336

>  <Name>
lig.pdb

>  <RI>
3.50357e+07

>  <Rbt.Current_Directory>
/home/itssahil/PROJECTS/Mol_Feturizer/New_Systems/rnas/2n0j

>  <Rbt.Executable>
rbdock ($Id: //depot/dev/client3/rdock/2013.1/src/exe/rbdock.cxx#4 $)

>  <Rbt.Library>
libRbt.so (2013.1, Build901 2013/11/27)

>  <Rbt.Parameter_File>
/export/apps/rDock/src/rDock_2013.1_src/data/scripts/dock_solv.prm

>  <Rbt.Receptor>
prm/pocket_docking_3.prm

>  <SCORE>
-36.4211

>  <SCORE.INTER>
-32.7478

>  <SCORE.INTER.CONST>
1

>  <SCORE.INTER.POLAR>
-4.398

>  <SCORE.INTER.ROT>
6

>  <SCORE.INTER.SOLV>
12.2932

>  <SCORE.INTER.VDW>
-18.8696

>  <SCORE.INTER.norm>
-1.05638

>  <SCORE.INTRA>
-3.67329

>  <SCORE.INTRA.DIHEDRAL>
-6.98226

>  <SCORE.INTRA.DIHEDRAL.0>
28.0161

>  <SCORE.INTRA.POLAR>
0.0174715

>  <SCORE.INTRA.POLAR.0>
-1.05798

>  <SCORE.INTRA.REPUL>
0

>  <SCORE.INTRA.REPUL.0>
0

>  <SCORE.INTRA.SOLV>
0.970356

>  <SCORE.INTRA.SOLV.lig_0>
-42.5945

>  <SCORE.INTRA.VDW>
-0.726744

>  <SCORE.INTRA.VDW.0>
-5.13869

>  <SCORE.INTRA.norm>
-0.118493

>  <SCORE.RESTR>
0

>  <SCORE.RESTR.CAVITY>
0

>  <SCORE.RESTR.norm>
0

>  <SCORE.SYSTEM>
0

>  <SCORE.SYSTEM.CONST>
0

>  <SCORE.SYSTEM.DIHEDRAL>
0

>  <SCORE.SYSTEM.SOLV>
0

>  <SCORE.SYSTEM.norm>
0

>  <SCORE.heavy>
31

>  <SCORE.norm>
-1.17487

>  <RMSD>
1.478

$$$$
lig.pdb
 OpenBabel11021811453D
libRbt.so/2013.1/901 2013/11/27
 31 33  0  0  0  0  0  0  0  0999 V2000
   -3.0426    2.4375    9.9877 O   0  0  0  0  0  0  0  0  0  0  0  0
   -2.2057    2.7026    8.8789 C   0  0  0  0  0  0  0  0  0  0  0  0
   -2.9428    2.4741    7.5523 C   0  0  1  0  0  0  0  0  0  0  0  0
   -2.1218    2.7727    6.4344 O   0  0  0  0  0  0  0  0  0  0  0  0
   -2.5577    2.0208    5.3060 C   0  0  1  0  0  0  0  0  0  0  0  0
   -1.4412    1.4032    4.6769 O   0  0  0  0  0  0  0  0  0  0  0  0
   -1.6407    0.8790    3.3738 C   0  0  2  0  0  0  0  0  0  0  0  0
   -1.5410   -0.6520    3.4652 C   0  0  1  0  0  0  0  0  0  0  0  0
   -2.6613   -1.1627    4.1705 O   0  0  0  0  0  0  0  0  0  0  0  0
   -1.4977   -1.3594    2.1022 C   0  0  2  0  0  0  0  0  0  0  0  0
   -1.3049   -2.8086    2.2652 N   0  0  0  0  0  0  0  0  0  0  0  0
   -0.3617   -0.7878    1.2622 C   0  0  0  0  0  0  0  0  0  0  0  0
   -0.5334    0.7201    1.1252 C   0  0  2  0  0  0  0  0  0  0  0  0
    0.5406    1.2345    0.2685 N   0  0  0  0  0  0  0  0  0  0  0  0
   -0.5278    1.3902    2.5161 C   0  0  1  0  0  0  0  0  0  0  0  0
   -0.6779    2.7959    2.2652 O   0  0  0  0  0  0  0  0  0  0  0  0
   -0.1521    3.6894    3.2409 C   0  0  1  0  0  0  0  0  0  0  0  0
    1.2674    3.5826    3.3079 O   0  0  0  0  0  0  0  0  0  0  0  0
    1.9897    4.0598    2.1748 C   0  0  2  0  0  0  0  0  0  0  0  0
    3.4912    3.8671    2.4253 C   0  0  0  0  0  0  0  0  0  0  0  0
    3.8883    2.4748    2.2713 N   0  0  0  0  0  0  0  0  0  0  0  0
    1.6898    5.5489    1.9211 C   0  0  1  0  0  0  0  0  0  0  0  0
    2.3718    5.9836    0.7582 O   0  0  0  0  0  0  0  0  0  0  0  0
    0.1773    5.7226    1.7347 C   0  0  2  0  0  0  0  0  0  0  0  0
   -0.1406    7.0937    1.5867 O   0  0  0  0  0  0  0  0  0  0  0  0
   -0.5875    5.1243    2.9232 C   0  0  1  0  0  0  0  0  0  0  0  0
   -2.0348    5.1826    2.6733 N   0  0  0  0  0  0  0  0  0  0  0  0
   -3.5124    0.9399    5.8338 C   0  0  2  0  0  0  0  0  0  0  0  0
   -4.8399    1.2407    5.4457 O   0  0  0  0  0  0  0  0  0  0  0  0
   -3.2975    1.0051    7.3451 C   0  0  2  0  0  0  0  0  0  0  0  0
   -4.4158    0.5779    8.0975 O   0  0  0  0  0  0  0  0  0  0  0  0
  2  1  1  0  0  0  0
  3  2  1  1  0  0  0
  3 30  1  0  0  0  0
  4  5  1  0  0  0  0
  4  3  1  0  0  0  0
  5 28  1  0  0  0  0
  5  6  1  1  0  0  0
  7  6  1  1  0  0  0
  8  7  1  0  0  0  0
  8  9  1  1  0  0  0
 10 11  1  1  0  0  0
 10  8  1  0  0  0  0
 12 10  1  0  0  0  0
 13 12  1  0  0  0  0
 13 15  1  0  0  0  0
 13 14  1  6  0  0  0
 15  7  1  0  0  0  0
 15 16  1  6  0  0  0
 17 16  1  6  0  0  0
 18 17  1  0  0  0  0
 19 20  1  1  0  0  0
 19 18  1  0  0  0  0
 20 21  1  0  0  0  0
 22 24  1  0  0  0  0
 22 19  1  0  0  0  0
 22 23  1  6  0  0  0
 24 25  1  1  0  0  0
 24 26  1  0  0  0  0
 26 17  1  0  0  0  0
 26 27  1  6  0  0  0
 28 29  1  1  0  0  0
 28 30  1  0  0  0  0
 30 31  1  1  0  0  0
M  END
>  <CHROM.1>
71.44044763,178.40262282,-165.65707430,-112.04686171,-80.80040463,-169.66345825
-158.82666543,85.41079583,65.38581562,75.66985272,-53.69100358,-178.00150059
101.66588401,-155.44822326,-63.23466012,172.49012392,-0.93258733,2.26412031
3.79457200,3.06844396,-0.92279543,-2.67396903

>  <Name>
lig.pdb

>  <RI>
2.67765e+07

>  <Rbt.Current_Directory>
/home/itssahil/PROJECTS/Mol_Feturizer/New_Systems/rnas/2n0j

>  <Rbt.Executable>
rbdock ($Id: //depot/dev/client3/rdock/2013.1/src/exe/rbdock.cxx#4 $)

>  <Rbt.Library>
libRbt.so (2013.1, Build901 2013/11/27)

>  <Rbt.Parameter_File>
/export/apps/rDock/src/rDock_2013.1_src/data/scripts/dock_solv.prm

>  <Rbt.Receptor>
prm/pocket_docking_2.prm

>  <SCORE>
-34.9347

>  <SCORE.INTER>
-38.0098

>  <SCORE.INTER.CONST>
1

>  <SCORE.INTER.POLAR>
-5.02563

>  <SCORE.INTER.ROT>
6

>  <SCORE.INTER.SOLV>
13.3993

>  <SCORE.INTER.VDW>
-20.6542

>  <SCORE.INTER.norm>
-1.22612

>  <SCORE.INTRA>
2.16655

>  <SCORE.INTRA.DIHEDRAL>
-4.92691

>  <SCORE.INTRA.DIHEDRAL.0>
28.0161

>  <SCORE.INTRA.POLAR>
0.869752

>  <SCORE.INTRA.POLAR.0>
-1.05798

>  <SCORE.INTRA.REPUL>
0

>  <SCORE.INTRA.REPUL.0>
0

>  <SCORE.INTRA.SOLV>
0.449796

>  <SCORE.INTRA.SOLV.lig_0>
-42.5945

>  <SCORE.INTRA.VDW>
1.44795

>  <SCORE.INTRA.VDW.0>
-5.13869

>  <SCORE.INTRA.norm>
0.0698888

>  <SCORE.RESTR>
0.908479

>  <SCORE.RESTR.CAVITY>
0.908479

>  <SCORE.RESTR.norm>
0.0293058

>  <SCORE.SYSTEM>
0

>  <SCORE.SYSTEM.CONST>
0

>  <SCORE.SYSTEM.DIHEDRAL>
0

>  <SCORE.SYSTEM.SOLV>
0

>  <SCORE.SYSTEM.norm>
0

>  <SCORE.heavy>
31

>  <SCORE.norm>
-1.12693

>  <RMSD>
1.494

$$$$
lig.pdb
 OpenBabel11021811453D
libRbt.so/2013.1/901 2013/11/27
 31 33  0  0  0  0  0  0  0  0999 V2000
   -3.3951    7.6508    5.4646 O   0  0  0  0  0  0  0  0  0  0  0  0
   -2.8384    6.5437    4.7829 C   0  0  0  0  0  0  0  0  0  0  0  0
   -2.9878    5.2509    5.5963 C   0  0  1  0  0  0  0  0  0  0  0  0
   -2.7337    4.0991    4.8078 O   0  0  0  0  0  0  0  0  0  0  0  0
   -2.2903    3.0349    5.6442 C   0  0  1  0  0  0  0  0  0  0  0  0
   -1.1326    2.4290    5.0816 O   0  0  0  0  0  0  0  0  0  0  0  0
   -1.3247    1.5886    3.9549 C   0  0  2  0  0  0  0  0  0  0  0  0
   -1.5246    0.1544    4.4700 C   0  0  1  0  0  0  0  0  0  0  0  0
   -2.7735    0.0555    5.1363 O   0  0  0  0  0  0  0  0  0  0  0  0
   -1.5091   -0.9151    3.3672 C   0  0  2  0  0  0  0  0  0  0  0  0
   -1.6080   -2.2663    3.9404 N   0  0  0  0  0  0  0  0  0  0  0  0
   -0.2227   -0.8003    2.5579 C   0  0  0  0  0  0  0  0  0  0  0  0
   -0.0940    0.6104    1.9963 C   0  0  2  0  0  0  0  0  0  0  0  0
    1.1221    0.6762    1.1786 N   0  0  0  0  0  0  0  0  0  0  0  0
   -0.0710    1.6449    3.1421 C   0  0  1  0  0  0  0  0  0  0  0  0
    0.0684    2.9227    2.5024 O   0  0  0  0  0  0  0  0  0  0  0  0
    0.7340    3.9462    3.2346 C   0  0  1  0  0  0  0  0  0  0  0  0
    2.1456    3.7547    3.1975 O   0  0  0  0  0  0  0  0  0  0  0  0
    2.7761    3.9558    1.9344 C   0  0  2  0  0  0  0  0  0  0  0  0
    4.2830    3.7092    2.0862 C   0  0  0  0  0  0  0  0  0  0  0  0
    4.6632    2.3877    1.6077 N   0  0  0  0  0  0  0  0  0  0  0  0
    2.5306    5.3868    1.4210 C   0  0  1  0  0  0  0  0  0  0  0  0
    3.1159    5.5435    0.1406 O   0  0  0  0  0  0  0  0  0  0  0  0
    1.0182    5.6277    1.3365 C   0  0  2  0  0  0  0  0  0  0  0  0
    0.7591    6.9645    0.9509 O   0  0  0  0  0  0  0  0  0  0  0  0
    0.3447    5.3216    2.6810 C   0  0  1  0  0  0  0  0  0  0  0  0
   -1.1152    5.4327    2.5514 N   0  0  0  0  0  0  0  0  0  0  0  0
   -1.9360    3.6555    7.0034 C   0  0  2  0  0  0  0  0  0  0  0  0
   -2.8959    3.2731    7.9708 O   0  0  0  0  0  0  0  0  0  0  0  0
   -1.9452    5.1541    6.7056 C   0  0  2  0  0  0  0  0  0  0  0  0
   -2.2373    5.9560    7.8329 O   0  0  0  0  0  0  0  0  0  0  0  0
  2  1  1  0  0  0  0
  3  2  1  6  0  0  0
  3 30  1  0  0  0  0
  4  5  1  0  0  0  0
  4  3  1  0  0  0  0
  5 28  1  0  0  0  0
  5  6  1  6  0  0  0
  7  6  1  1  0  0  0
  8  7  1  0  0  0  0
  8  9  1  6  0  0  0
 10 11  1  1  0  0  0
 10  8  1  0  0  0  0
 12 10  1  0  0  0  0
 13 12  1  0  0  0  0
 13 15  1  0  0  0  0
 13 14  1  1  0  0  0
 15  7  1  0  0  0  0
 15 16  1  6  0  0  0
 17 16  1  6  0  0  0
 18 17  1  0  0  0  0
 19 20  1  1  0  0  0
 19 18  1  0  0  0  0
 20 21  1  0  0  0  0
 22 24  1  0  0  0  0
 22 19  1  0  0  0  0
 22 23  1  6  0  0  0
 24 25  1  1  0  0  0
 24 26  1  0  0  0  0
 26 17  1  0  0  0  0
 26 27  1  6  0  0  0
 28 29  1  1  0  0  0
 28 30  1  0  0  0  0
 30 31  1  1  0  0  0
M  END
>  <CHROM.1>
-68.56309850,165.87594214,-74.72011552,-91.36326477,-175.92681660,-120.17254489
64.57401703,88.38999548,78.01387652,100.40826257,-132.20139930,-73.99886637
166.97623055,-78.54438758,-60.66607010,-69.13355086,-0.36412647,3.33173279
3.68534194,-3.05021577,-0.73734235,-3.07557438

>  <Name>
lig.pdb

>  <RI>
3.50357e+07

>  <Rbt.Current_Directory>
/home/itssahil/PROJECTS/Mol_Feturizer/New_Systems/rnas/2n0j

>  <Rbt.Executable>
rbdock ($Id: //depot/dev/client3/rdock/2013.1/src/exe/rbdock.cxx#4 $)

>  <Rbt.Library>
libRbt.so (2013.1, Build901 2013/11/27)

>  <Rbt.Parameter_File>
/export/apps/rDock/src/rDock_2013.1_src/data/scripts/dock_solv.prm

>  <Rbt.Receptor>
prm/pocket_docking_3.prm

>  <SCORE>
-40.5793

>  <SCORE.INTER>
-41.4519

>  <SCORE.INTER.CONST>
1

>  <SCORE.INTER.POLAR>
-4.93843

>  <SCORE.INTER.ROT>
6

>  <SCORE.INTER.SOLV>
19.03

>  <SCORE.INTER.VDW>
-25.1165

>  <SCORE.INTER.norm>
-1.33716

>  <SCORE.INTRA>
0.711644

>  <SCORE.INTRA.DIHEDRAL>
-3.11387

>  <SCORE.INTRA.DIHEDRAL.0>
28.0161

>  <SCORE.INTRA.POLAR>
0.0469337

>  <SCORE.INTRA.POLAR.0>
-1.05798

>  <SCORE.INTRA.REPUL>
0

>  <SCORE.INTRA.REPUL.0>
0

>  <SCORE.INTRA.SOLV>
0.143219

>  <SCORE.INTRA.SOLV.lig_0>
-42.5945

>  <SCORE.INTRA.VDW>
2.0374

>  <SCORE.INTRA.VDW.0>
-5.13869

>  <SCORE.INTRA.norm>
0.0229563

>  <SCORE.RESTR>
0.161001

>  <SCORE.RESTR.CAVITY>
0.161001

>  <SCORE.RESTR.norm>
0.00519357

>  <SCORE.SYSTEM>
0

>  <SCORE.SYSTEM.CONST>
0

>  <SCORE.SYSTEM.DIHEDRAL>
0

>  <SCORE.SYSTEM.SOLV>
0

>  <SCORE.SYSTEM.norm>
0

>  <SCORE.heavy>
31

>  <SCORE.norm>
-1.30901

>  <RMSD>
1.561

$$$$
lig.pdb
 OpenBabel11021811453D
libRbt.so/2013.1/901 2013/11/27
 31 33  0  0  0  0  0  0  0  0999 V2000
   -2.7446    2.2090    9.2819 O   0  0  0  0  0  0  0  0  0  0  0  0
   -1.8503    2.5685    8.2469 C   0  0  0  0  0  0  0  0  0  0  0  0
   -2.5641    2.6465    6.8906 C   0  0  1  0  0  0  0  0  0  0  0  0
   -1.6499    2.8451    5.8240 O   0  0  0  0  0  0  0  0  0  0  0  0
   -2.2021    2.3269    4.6176 C   0  0  1  0  0  0  0  0  0  0  0  0
   -1.2358    1.5239    3.9504 O   0  0  0  0  0  0  0  0  0  0  0  0
   -1.5657    1.0602    2.6507 C   0  0  2  0  0  0  0  0  0  0  0  0
   -1.7780   -0.4596    2.7364 C   0  0  1  0  0  0  0  0  0  0  0  0
   -2.9636   -0.7363    3.4652 O   0  0  0  0  0  0  0  0  0  0  0  0
   -1.9088   -1.1516    1.3711 C   0  0  2  0  0  0  0  0  0  0  0  0
   -2.0118   -2.6109    1.5263 N   0  0  0  0  0  0  0  0  0  0  0  0
   -0.6983   -0.8176    0.5073 C   0  0  0  0  0  0  0  0  0  0  0  0
   -0.5621    0.6946    0.3777 C   0  0  2  0  0  0  0  0  0  0  0  0
    0.5755    0.9854   -0.5014 N   0  0  0  0  0  0  0  0  0  0  0  0
   -0.3906    1.3400    1.7697 C   0  0  1  0  0  0  0  0  0  0  0  0
   -0.2564    2.7485    1.5256 O   0  0  0  0  0  0  0  0  0  0  0  0
    0.3837    3.5241    2.5332 C   0  0  1  0  0  0  0  0  0  0  0  0
    1.7210    3.0768    2.7389 O   0  0  0  0  0  0  0  0  0  0  0  0
    2.6375    3.3187    1.6736 C   0  0  2  0  0  0  0  0  0  0  0  0
    4.0163    2.7752    2.0712 C   0  0  0  0  0  0  0  0  0  0  0  0
    3.9543    1.3685    2.4413 N   0  0  0  0  0  0  0  0  0  0  0  0
    2.7382    4.8248    1.3685 C   0  0  1  0  0  0  0  0  0  0  0  0
    3.6080    5.0341    0.2703 O   0  0  0  0  0  0  0  0  0  0  0  0
    1.3383    5.3549    1.0340 C   0  0  2  0  0  0  0  0  0  0  0  0
    1.3831    6.7552    0.8342 O   0  0  0  0  0  0  0  0  0  0  0  0
    0.3460    5.0083    2.1522 C   0  0  1  0  0  0  0  0  0  0  0  0
   -1.0137    5.4082    1.7626 N   0  0  0  0  0  0  0  0  0  0  0  0
   -3.4045    1.4587    5.0159 C   0  0  2  0  0  0  0  0  0  0  0  0
   -4.6073    2.1007    4.6354 O   0  0  0  0  0  0  0  0  0  0  0  0
   -3.2439    1.3294    6.5298 C   0  0  2  0  0  0  0  0  0  0  0  0
   -4.4616    1.1111    7.2143 O   0  0  0  0  0  0  0  0  0  0  0  0
  2  1  1  0  0  0  0
  3  2  1  1  0  0  0
  3 30  1  0  0  0  0
  4  5  1  0  0  0  0
  4  3  1  0  0  0  0
  5 28  1  0  0  0  0
  5  6  1  1  0  0  0
  7  6  1  1  0  0  0
  8  7  1  0  0  0  0
  8  9  1  1  0  0  0
 10 11  1  1  0  0  0
 10  8  1  0  0  0  0
 12 10  1  0  0  0  0
 13 12  1  0  0  0  0
 13 15  1  0  0  0  0
 13 14  1  6  0  0  0
 15  7  1  0  0  0  0
 15 16  1  6  0  0  0
 17 16  1  6  0  0  0
 18 17  1  0  0  0  0
 19 20  1  1  0  0  0
 19 18  1  0  0  0  0
 20 21  1  0  0  0  0
 22 24  1  0  0  0  0
 22 19  1  0  0  0  0
 22 23  1  6  0  0  0
 24 25  1  1  0  0  0
 24 26  1  0  0  0  0
 26 17  1  0  0  0  0
 26 27  1  6  0  0  0
 28 29  1  1  0  0  0
 28 30  1  0  0  0  0
 30 31  1  1  0  0  0
M  END
>  <CHROM.1>
-178.32249660,-172.82178135,-172.59307740,-110.68286712,-168.33814964,61.25999729
-56.78867247,81.37539714,60.82711181,55.26166757,178.96724507,-175.93709715
-57.37834567,-38.18987260,177.29974856,-50.53209833,-0.60060913,2.18122256
3.12998062,-2.94435012,-0.80602336,-2.40259939

>  <Name>
lig.pdb

>  <RI>
2.67765e+07

>  <Rbt.Current_Directory>
/home/itssahil/PROJECTS/Mol_Feturizer/New_Systems/rnas/2n0j

>  <Rbt.Executable>
rbdock ($Id: //depot/dev/client3/rdock/2013.1/src/exe/rbdock.cxx#4 $)

>  <Rbt.Library>
libRbt.so (2013.1, Build901 2013/11/27)

>  <Rbt.Parameter_File>
/export/apps/rDock/src/rDock_2013.1_src/data/scripts/dock_solv.prm

>  <Rbt.Receptor>
prm/pocket_docking_2.prm

>  <SCORE>
-46.5401

>  <SCORE.INTER>
-41.8114

>  <SCORE.INTER.CONST>
1

>  <SCORE.INTER.POLAR>
-5.60824

>  <SCORE.INTER.ROT>
6

>  <SCORE.INTER.SOLV>
13.61

>  <SCORE.INTER.VDW>
-21.3168

>  <SCORE.INTER.norm>
-1.34875

>  <SCORE.INTRA>
-5.33948

>  <SCORE.INTRA.DIHEDRAL>
-15.9784

>  <SCORE.INTRA.DIHEDRAL.0>
28.0161

>  <SCORE.INTRA.POLAR>
0.285765

>  <SCORE.INTRA.POLAR.0>
-1.05798

>  <SCORE.INTRA.REPUL>
0

>  <SCORE.INTRA.REPUL.0>
0

>  <SCORE.INTRA.SOLV>
0.457524

>  <SCORE.INTRA.SOLV.lig_0>
-42.5945

>  <SCORE.INTRA.VDW>
1.44936

>  <SCORE.INTRA.VDW.0>
-5.13869

>  <SCORE.INTRA.norm>
-0.172241

>  <SCORE.RESTR>
0.610778

>  <SCORE.RESTR.CAVITY>
0.610778

>  <SCORE.RESTR.norm>
0.0197025

>  <SCORE.SYSTEM>
0

>  <SCORE.SYSTEM.CONST>
0

>  <SCORE.SYSTEM.DIHEDRAL>
0

>  <SCORE.SYSTEM.SOLV>
0

>  <SCORE.SYSTEM.norm>
0

>  <SCORE.heavy>
31

>  <SCORE.norm>
-1.50129

>  <RMSD>
1.589

$$$$
lig.pdb
 OpenBabel11021811453D
libRbt.so/2013.1/901 2013/11/27
 31 33  0  0  0  0  0  0  0  0999 V2000
   -3.0706    7.4460    3.5739 O   0  0  0  0  0  0  0  0  0  0  0  0
   -2.2095    6.6475    4.3620 C   0  0  0  0  0  0  0  0  0  0  0  0
   -2.8653    5.3097    4.7300 C   0  0  1  0  0  0  0  0  0  0  0  0
   -2.7919    4.3755    3.6647 O   0  0  0  0  0  0  0  0  0  0  0  0
   -2.8311    3.0507    4.1864 C   0  0  1  0  0  0  0  0  0  0  0  0
   -1.8000    2.2687    3.5956 O   0  0  0  0  0  0  0  0  0  0  0  0
   -1.9924    1.8517    2.2532 C   0  0  2  0  0  0  0  0  0  0  0  0
   -2.5981    0.4395    2.2845 C   0  0  1  0  0  0  0  0  0  0  0  0
   -3.9283    0.5006    2.7749 O   0  0  0  0  0  0  0  0  0  0  0  0
   -2.6479   -0.2512    0.9131 C   0  0  2  0  0  0  0  0  0  0  0  0
   -3.1472   -1.6297    1.0339 N   0  0  0  0  0  0  0  0  0  0  0  0
   -1.2547   -0.2685    0.2954 C   0  0  0  0  0  0  0  0  0  0  0  0
   -0.7150    1.1538    0.2066 C   0  0  2  0  0  0  0  0  0  0  0  0
    0.6008    1.1123   -0.4403 N   0  0  0  0  0  0  0  0  0  0  0  0
   -0.6434    1.7901    1.6115 C   0  0  1  0  0  0  0  0  0  0  0  0
   -0.1112    3.1081    1.4089 O   0  0  0  0  0  0  0  0  0  0  0  0
    0.5994    3.6952    2.4937 C   0  0  1  0  0  0  0  0  0  0  0  0
    1.8815    3.0910    2.6412 O   0  0  0  0  0  0  0  0  0  0  0  0
    2.8252    3.3537    1.6050 C   0  0  2  0  0  0  0  0  0  0  0  0
    4.1374    2.6286    1.9322 C   0  0  0  0  0  0  0  0  0  0  0  0
    3.9001    1.2684    2.3941 N   0  0  0  0  0  0  0  0  0  0  0  0
    3.0841    4.8658    1.4699 C   0  0  1  0  0  0  0  0  0  0  0  0
    3.9782    5.1049    0.3976 O   0  0  0  0  0  0  0  0  0  0  0  0
    1.7492    5.5728    1.2040 C   0  0  2  0  0  0  0  0  0  0  0  0
    1.9408    6.9745    1.1620 O   0  0  0  0  0  0  0  0  0  0  0  0
    0.7189    5.2086    2.2815 C   0  0  1  0  0  0  0  0  0  0  0  0
   -0.5892    5.7889    1.9460 N   0  0  0  0  0  0  0  0  0  0  0  0
   -2.5893    3.1611    5.6988 C   0  0  2  0  0  0  0  0  0  0  0  0
   -3.7860    2.8753    6.3986 O   0  0  0  0  0  0  0  0  0  0  0  0
   -2.1257    4.6075    5.8644 C   0  0  2  0  0  0  0  0  0  0  0  0
   -2.3972    5.1490    7.1420 O   0  0  0  0  0  0  0  0  0  0  0  0
  2  1  1  0  0  0  0
  3  2  1  6  0  0  0
  3 30  1  0  0  0  0
  4  5  1  0  0  0  0
  4  3  1  0  0  0  0
  5 28  1  0  0  0  0
  5  6  1  6  0  0  0
  7  6  1  1  0  0  0
  8  7  1  0  0  0  0
  8  9  1  6  0  0  0
 10 11  1  1  0  0  0
 10  8  1  0  0  0  0
 12 10  1  0  0  0  0
 13 12  1  0  0  0  0
 13 15  1  0  0  0  0
 13 14  1  1  0  0  0
 15  7  1  0  0  0  0
 15 16  1  6  0  0  0
 17 16  1  6  0  0  0
 18 17  1  0  0  0  0
 19 20  1  1  0  0  0
 19 18  1  0  0  0  0
 20 21  1  0  0  0  0
 22 24  1  0  0  0  0
 22 19  1  0  0  0  0
 22 23  1  6  0  0  0
 24 25  1  1  0  0  0
 24 26  1  0  0  0  0
 26 17  1  0  0  0  0
 26 27  1  6  0  0  0
 28 29  1  1  0  0  0
 28 30  1  0  0  0  0
 30 31  1  1  0  0  0
M  END
>  <CHROM.1>
-63.50257603,79.92693172,-74.46119503,-94.88752500,-56.84773870,-57.19080128
59.19445792,86.09476824,73.86191457,44.19342968,73.60353440,-75.74615622
62.81144419,-95.16764204,61.88213332,-66.95659253,-0.60164151,3.24745547
2.61822549,-2.97219039,-0.49980856,-2.66253291

>  <Name>
lig.pdb

>  <RI>
3.50357e+07

>  <Rbt.Current_Directory>
/home/itssahil/PROJECTS/Mol_Feturizer/New_Systems/rnas/2n0j

>  <Rbt.Executable>
rbdock ($Id: //depot/dev/client3/rdock/2013.1/src/exe/rbdock.cxx#4 $)

>  <Rbt.Library>
libRbt.so (2013.1, Build901 2013/11/27)

>  <Rbt.Parameter_File>
/export/apps/rDock/src/rDock_2013.1_src/data/scripts/dock_solv.prm

>  <Rbt.Receptor>
prm/pocket_docking_3.prm

>  <SCORE>
-52.8375

>  <SCORE.INTER>
-47.3907

>  <SCORE.INTER.CONST>
1

>  <SCORE.INTER.POLAR>
-6.00302

>  <SCORE.INTER.ROT>
6

>  <SCORE.INTER.SOLV>
14.4977

>  <SCORE.INTER.VDW>
-24.0163

>  <SCORE.INTER.norm>
-1.52873

>  <SCORE.INTRA>
-5.46638

>  <SCORE.INTRA.DIHEDRAL>
-11.955

>  <SCORE.INTRA.DIHEDRAL.0>
28.0161

>  <SCORE.INTRA.POLAR>
0.00500746

>  <SCORE.INTRA.POLAR.0>
-1.05798

>  <SCORE.INTRA.REPUL>
0

>  <SCORE.INTRA.REPUL.0>
0

>  <SCORE.INTRA.SOLV>
-0.0374341

>  <SCORE.INTRA.SOLV.lig_0>
-42.5945

>  <SCORE.INTRA.VDW>
0.512807

>  <SCORE.INTRA.VDW.0>
-5.13869

>  <SCORE.INTRA.norm>
-0.176335

>  <SCORE.RESTR>
0.0195786

>  <SCORE.RESTR.CAVITY>
0.0195786

>  <SCORE.RESTR.norm>
0.000631569

>  <SCORE.SYSTEM>
0

>  <SCORE.SYSTEM.CONST>
0

>  <SCORE.SYSTEM.DIHEDRAL>
0

>  <SCORE.SYSTEM.SOLV>
0

>  <SCORE.SYSTEM.norm>
0

>  <SCORE.heavy>
31

>  <SCORE.norm>
-1.70444

>  <RMSD>
1.591

$$$$
lig.pdb
 OpenBabel11021811453D
libRbt.so/2013.1/901 2013/11/27
 31 33  0  0  0  0  0  0  0  0999 V2000
   -2.6807    2.5482    9.4915 O   0  0  0  0  0  0  0  0  0  0  0  0
   -1.6668    2.5722    8.5059 C   0  0  0  0  0  0  0  0  0  0  0  0
   -2.2594    2.6676    7.0935 C   0  0  1  0  0  0  0  0  0  0  0  0
   -1.2484    2.7109    6.0990 O   0  0  0  0  0  0  0  0  0  0  0  0
   -1.7625    2.2034    4.8715 C   0  0  1  0  0  0  0  0  0  0  0  0
   -0.8483    1.2653    4.3164 O   0  0  0  0  0  0  0  0  0  0  0  0
   -1.1399    0.7662    3.0208 C   0  0  2  0  0  0  0  0  0  0  0  0
   -0.8503   -0.7431    3.0249 C   0  0  1  0  0  0  0  0  0  0  0  0
   -1.8096   -1.4119    3.8286 O   0  0  0  0  0  0  0  0  0  0  0  0
   -0.8881   -1.3920    1.6329 C   0  0  2  0  0  0  0  0  0  0  0  0
   -0.5076   -2.8114    1.7013 N   0  0  0  0  0  0  0  0  0  0  0  0
    0.0633   -0.6563    0.6967 C   0  0  0  0  0  0  0  0  0  0  0  0
   -0.3001    0.8229    0.6545 C   0  0  2  0  0  0  0  0  0  0  0  0
    0.5949    1.4948   -0.2938 N   0  0  0  0  0  0  0  0  0  0  0  0
   -0.2063    1.4398    2.0668 C   0  0  1  0  0  0  0  0  0  0  0  0
   -0.5501    2.8243    1.9042 O   0  0  0  0  0  0  0  0  0  0  0  0
   -0.2204    3.7050    2.9729 C   0  0  1  0  0  0  0  0  0  0  0  0
    1.1931    3.8303    3.1040 O   0  0  0  0  0  0  0  0  0  0  0  0
    1.8654    4.5171    2.0505 C   0  0  2  0  0  0  0  0  0  0  0  0
    3.3675    4.5557    2.3617 C   0  0  0  0  0  0  0  0  0  0  0  0
    3.9886    3.2514    2.1802 N   0  0  0  0  0  0  0  0  0  0  0  0
    1.3265    5.9519    1.9001 C   0  0  1  0  0  0  0  0  0  0  0  0
    1.9676    6.5928    0.8116 O   0  0  0  0  0  0  0  0  0  0  0  0
   -0.1855    5.8871    1.6508 C   0  0  2  0  0  0  0  0  0  0  0  0
   -0.7260    7.1940    1.5952 O   0  0  0  0  0  0  0  0  0  0  0  0
   -0.8811    5.0697    2.7476 C   0  0  1  0  0  0  0  0  0  0  0  0
   -2.3070    4.9079    2.4292 N   0  0  0  0  0  0  0  0  0  0  0  0
   -3.0856    1.4973    5.2016 C   0  0  2  0  0  0  0  0  0  0  0  0
   -4.1718    2.2537    4.6998 O   0  0  0  0  0  0  0  0  0  0  0  0
   -3.0589    1.4212    6.7273 C   0  0  2  0  0  0  0  0  0  0  0  0
   -4.3432    1.3752    7.3170 O   0  0  0  0  0  0  0  0  0  0  0  0
  2  1  1  0  0  0  0
  3  2  1  1  0  0  0
  3 30  1  0  0  0  0
  4  5  1  0  0  0  0
  4  3  1  0  0  0  0
  5 28  1  0  0  0  0
  5  6  1  1  0  0  0
  7  6  1  1  0  0  0
  8  7  1  0  0  0  0
  8  9  1  1  0  0  0
 10 11  1  1  0  0  0
 10  8  1  0  0  0  0
 12 10  1  0  0  0  0
 13 12  1  0  0  0  0
 13 15  1  0  0  0  0
 13 14  1  6  0  0  0
 15  7  1  0  0  0  0
 15 16  1  6  0  0  0
 17 16  1  6  0  0  0
 18 17  1  0  0  0  0
 19 20  1  1  0  0  0
 19 18  1  0  0  0  0
 20 21  1  0  0  0  0
 22 24  1  0  0  0  0
 22 19  1  0  0  0  0
 22 23  1  6  0  0  0
 24 25  1  1  0  0  0
 24 26  1  0  0  0  0
 26 17  1  0  0  0  0
 26 27  1  6  0  0  0
 28 29  1  1  0  0  0
 28 30  1  0  0  0  0
 30 31  1  1  0  0  0
M  END
>  <CHROM.1>
179.65272700,179.18270473,-173.55867657,-137.88968064,63.27179608,-119.26254445
65.12700425,74.75415773,67.08371295,72.93228806,64.71892854,-67.04407971
-63.21658454,-168.15611158,58.05722462,-178.43564089,-0.69672090,2.46772337
3.43842597,2.97606065,-0.96587872,-2.77138798

>  <Name>
lig.pdb

>  <RI>
3.50357e+07

>  <Rbt.Current_Directory>
/home/itssahil/PROJECTS/Mol_Feturizer/New_Systems/rnas/2n0j

>  <Rbt.Executable>
rbdock ($Id: //depot/dev/client3/rdock/2013.1/src/exe/rbdock.cxx#4 $)

>  <Rbt.Library>
libRbt.so (2013.1, Build901 2013/11/27)

>  <Rbt.Parameter_File>
/export/apps/rDock/src/rDock_2013.1_src/data/scripts/dock_solv.prm

>  <Rbt.Receptor>
prm/pocket_docking_3.prm

>  <SCORE>
-35.9974

>  <SCORE.INTER>
-34.1008

>  <SCORE.INTER.CONST>
1

>  <SCORE.INTER.POLAR>
-4.42647

>  <SCORE.INTER.ROT>
6

>  <SCORE.INTER.SOLV>
14.5026

>  <SCORE.INTER.VDW>
-20.4132

>  <SCORE.INTER.norm>
-1.10003

>  <SCORE.INTRA>
-1.89665

>  <SCORE.INTRA.DIHEDRAL>
-15.4272

>  <SCORE.INTRA.DIHEDRAL.0>
28.0161

>  <SCORE.INTRA.POLAR>
0.987593

>  <SCORE.INTRA.POLAR.0>
-1.05798

>  <SCORE.INTRA.REPUL>
0

>  <SCORE.INTRA.REPUL.0>
0

>  <SCORE.INTRA.SOLV>
-0.294237

>  <SCORE.INTRA.SOLV.lig_0>
-42.5945

>  <SCORE.INTRA.VDW>
2.60624

>  <SCORE.INTRA.VDW.0>
-5.13869

>  <SCORE.INTRA.norm>
-0.0611823

>  <SCORE.RESTR>
0

>  <SCORE.RESTR.CAVITY>
0

>  <SCORE.RESTR.norm>
0

>  <SCORE.SYSTEM>
0

>  <SCORE.SYSTEM.CONST>
0

>  <SCORE.SYSTEM.DIHEDRAL>
0

>  <SCORE.SYSTEM.SOLV>
0

>  <SCORE.SYSTEM.norm>
0

>  <SCORE.heavy>
31

>  <SCORE.norm>
-1.16121

>  <RMSD>
1.595

$$$$
lig.pdb
 OpenBabel11021811453D
libRbt.so/2013.1/901 2013/11/27
 31 33  0  0  0  0  0  0  0  0999 V2000
   -1.9722    2.7144    9.4170 O   0  0  0  0  0  0  0  0  0  0  0  0
   -2.2584    1.6023    8.5915 C   0  0  0  0  0  0  0  0  0  0  0  0
   -2.7579    2.0435    7.2091 C   0  0  1  0  0  0  0  0  0  0  0  0
   -1.6946    2.1633    6.2774 O   0  0  0  0  0  0  0  0  0  0  0  0
   -2.1919    1.9719    4.9565 C   0  0  1  0  0  0  0  0  0  0  0  0
   -1.3555    1.0611    4.2531 O   0  0  0  0  0  0  0  0  0  0  0  0
   -1.7010    0.7718    2.9078 C   0  0  2  0  0  0  0  0  0  0  0  0
   -2.0036   -0.7322    2.8157 C   0  0  1  0  0  0  0  0  0  0  0  0
   -3.2097   -1.0203    3.5054 O   0  0  0  0  0  0  0  0  0  0  0  0
   -2.1633   -1.2522    1.3790 C   0  0  2  0  0  0  0  0  0  0  0  0
   -2.3537   -2.7108    1.3633 N   0  0  0  0  0  0  0  0  0  0  0  0
   -0.9277   -0.8931    0.5620 C   0  0  0  0  0  0  0  0  0  0  0  0
   -0.7012    0.6130    0.6094 C   0  0  2  0  0  0  0  0  0  0  0  0
    0.4592    0.9353   -0.2280 N   0  0  0  0  0  0  0  0  0  0  0  0
   -0.5038    1.0812    2.0673 C   0  0  1  0  0  0  0  0  0  0  0  0
   -0.2845    2.4980    1.9889 O   0  0  0  0  0  0  0  0  0  0  0  0
    0.3195    3.1249    3.1153 C   0  0  1  0  0  0  0  0  0  0  0  0
    1.7402    3.0606    3.0253 O   0  0  0  0  0  0  0  0  0  0  0  0
    2.3430    3.8462    1.9991 C   0  0  2  0  0  0  0  0  0  0  0  0
    3.8644    3.6542    2.0552 C   0  0  0  0  0  0  0  0  0  0  0  0
    4.2778    2.4308    1.3829 N   0  0  0  0  0  0  0  0  0  0  0  0
    1.9981    5.3366    2.1759 C   0  0  1  0  0  0  0  0  0  0  0  0
    2.5586    6.0874    1.1136 O   0  0  0  0  0  0  0  0  0  0  0  0
    0.4723    5.4929    2.1773 C   0  0  2  0  0  0  0  0  0  0  0  0
    0.1214    6.8413    2.4259 O   0  0  0  0  0  0  0  0  0  0  0  0
   -0.1657    4.5745    3.2284 C   0  0  1  0  0  0  0  0  0  0  0  0
   -1.6310    4.6387    3.1324 N   0  0  0  0  0  0  0  0  0  0  0  0
   -3.6001    1.3749    5.0936 C   0  0  2  0  0  0  0  0  0  0  0  0
   -4.5682    2.3376    4.7202 O   0  0  0  0  0  0  0  0  0  0  0  0
   -3.6664    0.9966    6.5724 C   0  0  2  0  0  0  0  0  0  0  0  0
   -4.9788    0.9862    7.0984 O   0  0  0  0  0  0  0  0  0  0  0  0
  2  1  1  0  0  0  0
  3  2  1  1  0  0  0
  3 30  1  0  0  0  0
  4  5  1  0  0  0  0
  4  3  1  0  0  0  0
  5 28  1  0  0  0  0
  5  6  1  6  0  0  0
  7  6  1  1  0  0  0
  8  7  1  0  0  0  0
  8  9  1  1  0  0  0
 10 11  1  1  0  0  0
 10  8  1  0  0  0  0
 12 10  1  0  0  0  0
 13 12  1  0  0  0  0
 13 15  1  0  0  0  0
 13 14  1  6  0  0  0
 15  7  1  0  0  0  0
 15 16  1  6  0  0  0
 17 16  1  6  0  0  0
 18 17  1  0  0  0  0
 19 20  1  1  0  0  0
 19 18  1  0  0  0  0
 20 21  1  0  0  0  0
 22 24  1  0  0  0  0
 22 19  1  0  0  0  0
 22 23  1  6  0  0  0
 24 25  1  1  0  0  0
 24 26  1  0  0  0  0
 26 17  1  0  0  0  0
 26 27  1  6  0  0  0
 28 29  1  1  0  0  0
 28 30  1  0  0  0  0
 30 31  1  1  0  0  0
M  END
>  <CHROM.1>
-174.36096993,91.94711124,-179.17198025,-118.27897730,66.97449910,-71.37197829
63.57991137,77.71459056,86.56759498,81.47302306,-147.45339683,68.20711341
-62.32496436,80.30795484,68.14873052,73.81818465,-0.86254668,2.13136888,3.45466760
-3.01013118,-0.79412450,-2.36028830

>  <Name>
lig.pdb

>  <RI>
2.67765e+07

>  <Rbt.Current_Directory>
/home/itssahil/PROJECTS/Mol_Feturizer/New_Systems/rnas/2n0j

>  <Rbt.Executable>
rbdock ($Id: //depot/dev/client3/rdock/2013.1/src/exe/rbdock.cxx#4 $)

>  <Rbt.Library>
libRbt.so (2013.1, Build901 2013/11/27)

>  <Rbt.Parameter_File>
/export/apps/rDock/src/rDock_2013.1_src/data/scripts/dock_solv.prm

>  <Rbt.Receptor>
prm/pocket_docking_2.prm

>  <SCORE>
-33.6198

>  <SCORE.INTER>
-35.0667

>  <SCORE.INTER.CONST>
1

>  <SCORE.INTER.POLAR>
-4.04698

>  <SCORE.INTER.ROT>
6

>  <SCORE.INTER.SOLV>
10.1004

>  <SCORE.INTER.VDW>
-20.8546

>  <SCORE.INTER.norm>
-1.13118

>  <SCORE.INTRA>
0.87024

>  <SCORE.INTRA.DIHEDRAL>
-6.48322

>  <SCORE.INTRA.DIHEDRAL.0>
28.0161

>  <SCORE.INTRA.POLAR>
0.857433

>  <SCORE.INTRA.POLAR.0>
-1.05798

>  <SCORE.INTRA.REPUL>
0

>  <SCORE.INTRA.REPUL.0>
0

>  <SCORE.INTRA.SOLV>
-0.265455

>  <SCORE.INTRA.SOLV.lig_0>
-42.5945

>  <SCORE.INTRA.VDW>
1.3293

>  <SCORE.INTRA.VDW.0>
-5.13869

>  <SCORE.INTRA.norm>
0.0280723

>  <SCORE.RESTR>
0.576632

>  <SCORE.RESTR.CAVITY>
0.576632

>  <SCORE.RESTR.norm>
0.018601

>  <SCORE.SYSTEM>
0

>  <SCORE.SYSTEM.CONST>
0

>  <SCORE.SYSTEM.DIHEDRAL>
0

>  <SCORE.SYSTEM.SOLV>
0

>  <SCORE.SYSTEM.norm>
0

>  <SCORE.heavy>
31

>  <SCORE.norm>
-1.08451

>  <RMSD>
1.623

$$$$
lig.pdb
 OpenBabel11021811453D
libRbt.so/2013.1/901 2013/11/27
 31 33  0  0  0  0  0  0  0  0999 V2000
   -3.3478    4.7855    8.2784 O   0  0  0  0  0  0  0  0  0  0  0  0
   -2.2951    4.1643    7.5670 C   0  0  0  0  0  0  0  0  0  0  0  0
   -2.5067    4.2653    6.0503 C   0  0  1  0  0  0  0  0  0  0  0  0
   -1.4631    3.6304    5.3287 O   0  0  0  0  0  0  0  0  0  0  0  0
   -1.9472    3.2116    4.0562 C   0  0  1  0  0  0  0  0  0  0  0  0
   -1.5600    1.8647    3.8120 O   0  0  0  0  0  0  0  0  0  0  0  0
   -1.7946    1.3496    2.5110 C   0  0  2  0  0  0  0  0  0  0  0  0
   -2.0695   -0.1564    2.6468 C   0  0  1  0  0  0  0  0  0  0  0  0
   -3.3225   -0.3583    3.2815 O   0  0  0  0  0  0  0  0  0  0  0  0
   -2.1087   -0.9092    1.3082 C   0  0  2  0  0  0  0  0  0  0  0  0
   -2.2785   -2.3550    1.5202 N   0  0  0  0  0  0  0  0  0  0  0  0
   -0.8174   -0.6575    0.5388 C   0  0  0  0  0  0  0  0  0  0  0  0
   -0.6147    0.8413    0.3529 C   0  0  2  0  0  0  0  0  0  0  0  0
    0.6039    1.0514   -0.4361 N   0  0  0  0  0  0  0  0  0  0  0  0
   -0.5389    1.5474    1.7238 C   0  0  1  0  0  0  0  0  0  0  0  0
   -0.3324    2.9373    1.4284 O   0  0  0  0  0  0  0  0  0  0  0  0
    0.3225    3.7214    2.4198 C   0  0  1  0  0  0  0  0  0  0  0  0
    1.6284    3.2143    2.6808 O   0  0  0  0  0  0  0  0  0  0  0  0
    2.5831    3.3615    1.6318 C   0  0  2  0  0  0  0  0  0  0  0  0
    3.9205    2.7646    2.0896 C   0  0  0  0  0  0  0  0  0  0  0  0
    3.7727    1.3831    2.5249 N   0  0  0  0  0  0  0  0  0  0  0  0
    2.7716    4.8456    1.2666 C   0  0  1  0  0  0  0  0  0  0  0  0
    3.6789    4.9613    0.1849 O   0  0  0  0  0  0  0  0  0  0  0  0
    1.4110    5.4330    0.8717 C   0  0  2  0  0  0  0  0  0  0  0  0
    1.5354    6.8191    0.6145 O   0  0  0  0  0  0  0  0  0  0  0  0
    0.3737    5.1877    1.9758 C   0  0  1  0  0  0  0  0  0  0  0  0
   -0.9525    5.6406    1.5325 N   0  0  0  0  0  0  0  0  0  0  0  0
   -3.4791    3.3036    4.1110 C   0  0  2  0  0  0  0  0  0  0  0  0
   -3.9247    4.3787    3.3054 O   0  0  0  0  0  0  0  0  0  0  0  0
   -3.7542    3.5121    5.5994 C   0  0  2  0  0  0  0  0  0  0  0  0
   -4.9610    4.1997    5.8637 O   0  0  0  0  0  0  0  0  0  0  0  0
  2  1  1  0  0  0  0
  3  2  1  1  0  0  0
  3 30  1  0  0  0  0
  4  5  1  0  0  0  0
  4  3  1  0  0  0  0
  5 28  1  0  0  0  0
  5  6  1  1  0  0  0
  7  6  1  1  0  0  0
  8  7  1  0  0  0  0
  8  9  1  6  0  0  0
 10 11  1  1  0  0  0
 10  8  1  0  0  0  0
 12 10  1  0  0  0  0
 13 12  1  0  0  0  0
 13 15  1  0  0  0  0
 13 14  1  1  0  0  0
 15  7  1  0  0  0  0
 15 16  1  6  0  0  0
 17 16  1  6  0  0  0
 18 17  1  0  0  0  0
 19 20  1  1  0  0  0
 19 18  1  0  0  0  0
 20 21  1  0  0  0  0
 22 24  1  0  0  0  0
 22 19  1  0  0  0  0
 22 23  1  6  0  0  0
 24 25  1  1  0  0  0
 24 26  1  0  0  0  0
 26 17  1  0  0  0  0
 26 27  1  6  0  0  0
 28 29  1  6  0  0  0
 28 30  1  0  0  0  0
 30 31  1  6  0  0  0
M  END
>  <CHROM.1>
49.77011857,-179.28983943,-171.24048067,-148.79725396,-173.09096097,-56.32224072
66.59248607,85.14975439,60.38787620,54.89081434,-62.63969518,-177.29903872
-53.33458972,-33.85127323,-62.04510058,65.38983018,-0.69965924,2.85250681
2.80050255,-2.84905607,-0.63159267,-2.64955417

>  <Name>
lig.pdb

>  <RI>
3.50357e+07

>  <Rbt.Current_Directory>
/home/itssahil/PROJECTS/Mol_Feturizer/New_Systems/rnas/2n0j

>  <Rbt.Executable>
rbdock ($Id: //depot/dev/client3/rdock/2013.1/src/exe/rbdock.cxx#4 $)

>  <Rbt.Library>
libRbt.so (2013.1, Build901 2013/11/27)

>  <Rbt.Parameter_File>
/export/apps/rDock/src/rDock_2013.1_src/data/scripts/dock_solv.prm

>  <Rbt.Receptor>
prm/pocket_docking_3.prm

>  <SCORE>
-50.7578

>  <SCORE.INTER>
-46.0623

>  <SCORE.INTER.CONST>
1

>  <SCORE.INTER.POLAR>
-6.44978

>  <SCORE.INTER.ROT>
6

>  <SCORE.INTER.SOLV>
14.6932

>  <SCORE.INTER.VDW>
-21.7067

>  <SCORE.INTER.norm>
-1.48588

>  <SCORE.INTRA>
-4.69552

>  <SCORE.INTRA.DIHEDRAL>
-17.8974

>  <SCORE.INTRA.DIHEDRAL.0>
28.0161

>  <SCORE.INTRA.POLAR>
0.602054

>  <SCORE.INTRA.POLAR.0>
-1.05798

>  <SCORE.INTRA.REPUL>
0.00422765

>  <SCORE.INTRA.REPUL.0>
0

>  <SCORE.INTRA.SOLV>
0.427718

>  <SCORE.INTRA.SOLV.lig_0>
-42.5945

>  <SCORE.INTRA.VDW>
1.97119

>  <SCORE.INTRA.VDW.0>
-5.13869

>  <SCORE.INTRA.norm>
-0.151468

>  <SCORE.RESTR>
0

>  <SCORE.RESTR.CAVITY>
0

>  <SCORE.RESTR.norm>
0

>  <SCORE.SYSTEM>
0

>  <SCORE.SYSTEM.CONST>
0

>  <SCORE.SYSTEM.DIHEDRAL>
0

>  <SCORE.SYSTEM.SOLV>
0

>  <SCORE.SYSTEM.norm>
0

>  <SCORE.heavy>
31

>  <SCORE.norm>
-1.63735

>  <RMSD>
1.660

$$$$
lig.pdb
 OpenBabel11021811453D
libRbt.so/2013.1/901 2013/11/27
 31 33  0  0  0  0  0  0  0  0999 V2000
   -2.0422    6.2042    6.1609 O   0  0  0  0  0  0  0  0  0  0  0  0
   -3.2283    5.6085    6.6493 C   0  0  0  0  0  0  0  0  0  0  0  0
   -3.1540    4.0769    6.5866 C   0  0  1  0  0  0  0  0  0  0  0  0
   -2.6913    3.6224    5.3248 O   0  0  0  0  0  0  0  0  0  0  0  0
   -2.0746    2.3470    5.4723 C   0  0  1  0  0  0  0  0  0  0  0  0
   -0.8220    2.3356    4.7980 O   0  0  0  0  0  0  0  0  0  0  0  0
   -0.7884    1.7534    3.5046 C   0  0  2  0  0  0  0  0  0  0  0  0
   -0.3556    0.2872    3.6629 C   0  0  1  0  0  0  0  0  0  0  0  0
   -1.3878   -0.4500    4.2988 O   0  0  0  0  0  0  0  0  0  0  0  0
   -0.0401   -0.4195    2.3359 C   0  0  2  0  0  0  0  0  0  0  0  0
    0.4589   -1.7835    2.5695 N   0  0  0  0  0  0  0  0  0  0  0  0
    1.0051    0.3778    1.5646 C   0  0  0  0  0  0  0  0  0  0  0  0
    0.5114    1.8043    1.3563 C   0  0  2  0  0  0  0  0  0  0  0  0
    1.5105    2.5314    0.5659 N   0  0  0  0  0  0  0  0  0  0  0  0
    0.2493    2.4863    2.7164 C   0  0  1  0  0  0  0  0  0  0  0  0
   -0.1909    3.8159    2.4003 O   0  0  0  0  0  0  0  0  0  0  0  0
    0.0291    4.8232    3.3818 C   0  0  1  0  0  0  0  0  0  0  0  0
    1.3823    5.2687    3.3511 O   0  0  0  0  0  0  0  0  0  0  0  0
    1.7763    6.0092    2.1978 C   0  0  2  0  0  0  0  0  0  0  0  0
    3.2524    6.4032    2.3405 C   0  0  0  0  0  0  0  0  0  0  0  0
    4.1002    5.2415    2.5675 N   0  0  0  0  0  0  0  0  0  0  0  0
    0.9118    7.2735    2.0367 C   0  0  1  0  0  0  0  0  0  0  0  0
    1.2826    7.9598    0.8543 O   0  0  0  0  0  0  0  0  0  0  0  0
   -0.5620    6.8563    1.9577 C   0  0  2  0  0  0  0  0  0  0  0  0
   -1.3898    8.0027    1.8972 O   0  0  0  0  0  0  0  0  0  0  0  0
   -0.9445    5.9868    3.1630 C   0  0  1  0  0  0  0  0  0  0  0  0
   -2.3193    5.4894    3.0108 N   0  0  0  0  0  0  0  0  0  0  0  0
   -1.8501    2.1328    6.9762 C   0  0  2  0  0  0  0  0  0  0  0  0
   -2.7368    1.1400    7.4575 O   0  0  0  0  0  0  0  0  0  0  0  0
   -2.1223    3.5178    7.5612 C   0  0  2  0  0  0  0  0  0  0  0  0
   -2.5637    3.4912    8.9042 O   0  0  0  0  0  0  0  0  0  0  0  0
  2  1  1  0  0  0  0
  3  2  1  6  0  0  0
  3 30  1  0  0  0  0
  4  5  1  0  0  0  0
  4  3  1  0  0  0  0
  5 28  1  0  0  0  0
  5  6  1  6  0  0  0
  7  6  1  1  0  0  0
  8  7  1  0  0  0  0
  8  9  1  6  0  0  0
 10 11  1  1  0  0  0
 10  8  1  0  0  0  0
 12 10  1  0  0  0  0
 13 12  1  0  0  0  0
 13 15  1  0  0  0  0
 13 14  1  1  0  0  0
 15  7  1  0  0  0  0
 15 16  1  6  0  0  0
 17 16  1  6  0  0  0
 18 17  1  0  0  0  0
 19 20  1  1  0  0  0
 19 18  1  0  0  0  0
 20 21  1  0  0  0  0
 22 24  1  0  0  0  0
 22 19  1  0  0  0  0
 22 23  1  6  0  0  0
 24 25  1  1  0  0  0
 24 26  1  0  0  0  0
 26 17  1  0  0  0  0
 26 27  1  6  0  0  0
 28 29  1  1  0  0  0
 28 30  1  0  0  0  0
 30 31  1  1  0  0  0
M  END
>  <CHROM.1>
-164.95337194,-47.68449690,-98.83333155,-94.59847375,-169.19323918,64.14294543
-176.94977351,85.01317482,79.05863138,55.39114884,-109.02570531,-167.10581834
174.80312597,-164.44483023,-56.27937836,-56.86594937,-0.48004855,3.69753989
3.79998348,2.40715315,-0.90002001,3.11327259

>  <Name>
lig.pdb

>  <RI>
3.50357e+07

>  <Rbt.Current_Directory>
/home/itssahil/PROJECTS/Mol_Feturizer/New_Systems/rnas/2n0j

>  <Rbt.Executable>
rbdock ($Id: //depot/dev/client3/rdock/2013.1/src/exe/rbdock.cxx#4 $)

>  <Rbt.Library>
libRbt.so (2013.1, Build901 2013/11/27)

>  <Rbt.Parameter_File>
/export/apps/rDock/src/rDock_2013.1_src/data/scripts/dock_solv.prm

>  <Rbt.Receptor>
prm/pocket_docking_3.prm

>  <SCORE>
-42.142

>  <SCORE.INTER>
-40.4022

>  <SCORE.INTER.CONST>
1

>  <SCORE.INTER.POLAR>
-4.96304

>  <SCORE.INTER.ROT>
6

>  <SCORE.INTER.SOLV>
16.5511

>  <SCORE.INTER.VDW>
-23.5084

>  <SCORE.INTER.norm>
-1.3033

>  <SCORE.INTRA>
-1.73982

>  <SCORE.INTRA.DIHEDRAL>
-6.48466

>  <SCORE.INTRA.DIHEDRAL.0>
28.0161

>  <SCORE.INTRA.POLAR>
0.125472

>  <SCORE.INTRA.POLAR.0>
-1.05798

>  <SCORE.INTRA.REPUL>
0.0239807

>  <SCORE.INTRA.REPUL.0>
0

>  <SCORE.INTRA.SOLV>
1.20692

>  <SCORE.INTRA.SOLV.lig_0>
-42.5945

>  <SCORE.INTRA.VDW>
0.352541

>  <SCORE.INTRA.VDW.0>
-5.13869

>  <SCORE.INTRA.norm>
-0.0561233

>  <SCORE.RESTR>
0

>  <SCORE.RESTR.CAVITY>
0

>  <SCORE.RESTR.norm>
0

>  <SCORE.SYSTEM>
0

>  <SCORE.SYSTEM.CONST>
0

>  <SCORE.SYSTEM.DIHEDRAL>
0

>  <SCORE.SYSTEM.SOLV>
0

>  <SCORE.SYSTEM.norm>
0

>  <SCORE.heavy>
31

>  <SCORE.norm>
-1.35942

>  <RMSD>
1.700

$$$$
lig.pdb
 OpenBabel11021811453D
libRbt.so/2013.1/901 2013/11/27
 31 33  0  0  0  0  0  0  0  0999 V2000
   -4.7253    3.5989    8.3592 O   0  0  0  0  0  0  0  0  0  0  0  0
   -4.2383    3.3457    7.0558 C   0  0  0  0  0  0  0  0  0  0  0  0
   -3.6784    1.9221    6.9327 C   0  0  1  0  0  0  0  0  0  0  0  0
   -3.2687    1.6292    5.6063 O   0  0  0  0  0  0  0  0  0  0  0  0
   -2.2562    0.6277    5.6283 C   0  0  1  0  0  0  0  0  0  0  0  0
   -1.1720    1.0189    4.7944 O   0  0  0  0  0  0  0  0  0  0  0  0
   -1.2655    0.6945    3.4165 C   0  0  2  0  0  0  0  0  0  0  0  0
   -0.9544   -0.8032    3.2665 C   0  0  1  0  0  0  0  0  0  0  0  0
   -2.0083   -1.5690    3.8288 O   0  0  0  0  0  0  0  0  0  0  0  0
   -0.7805   -1.2642    1.8114 C   0  0  2  0  0  0  0  0  0  0  0  0
   -0.3902   -2.6812    1.7494 N   0  0  0  0  0  0  0  0  0  0  0  0
    0.2836   -0.4145    1.1267 C   0  0  0  0  0  0  0  0  0  0  0  0
   -0.0945    1.0584    1.2247 C   0  0  2  0  0  0  0  0  0  0  0  0
    0.9165    1.8465    0.5116 N   0  0  0  0  0  0  0  0  0  0  0  0
   -0.2155    1.4849    2.7036 C   0  0  1  0  0  0  0  0  0  0  0  0
   -0.5553    2.8796    2.6741 O   0  0  0  0  0  0  0  0  0  0  0  0
   -0.1159    3.6782    3.7676 C   0  0  1  0  0  0  0  0  0  0  0  0
    1.1750    4.2223    3.5068 O   0  0  0  0  0  0  0  0  0  0  0  0
    1.2469    5.2113    2.4819 C   0  0  2  0  0  0  0  0  0  0  0  0
    2.7019    5.6790    2.3439 C   0  0  0  0  0  0  0  0  0  0  0  0
    3.6294    4.5569    2.3332 N   0  0  0  0  0  0  0  0  0  0  0  0
    0.3420    6.4121    2.8146 C   0  0  1  0  0  0  0  0  0  0  0  0
    0.3853    7.3524    1.7561 O   0  0  0  0  0  0  0  0  0  0  0  0
   -1.0941    5.9089    3.0073 C   0  0  2  0  0  0  0  0  0  0  0  0
   -1.9354    6.9769    3.4006 O   0  0  0  0  0  0  0  0  0  0  0  0
   -1.1389    4.7842    4.0504 C   0  0  1  0  0  0  0  0  0  0  0  0
   -2.4959    4.2252    4.1324 N   0  0  0  0  0  0  0  0  0  0  0  0
   -1.7722    0.5165    7.0814 C   0  0  2  0  0  0  0  0  0  0  0  0
   -2.2131   -0.7061    7.6422 O   0  0  0  0  0  0  0  0  0  0  0  0
   -2.3986    1.7429    7.7432 C   0  0  2  0  0  0  0  0  0  0  0  0
   -2.6206    1.5891    9.1311 O   0  0  0  0  0  0  0  0  0  0  0  0
  2  1  1  0  0  0  0
  3  2  1  6  0  0  0
  3 30  1  0  0  0  0
  4  5  1  0  0  0  0
  4  3  1  0  0  0  0
  5 28  1  0  0  0  0
  5  6  1  6  0  0  0
  7  6  1  1  0  0  0
  8  7  1  0  0  0  0
  8  9  1  6  0  0  0
 10 11  1  1  0  0  0
 10  8  1  0  0  0  0
 12 10  1  0  0  0  0
 13 12  1  0  0  0  0
 13 15  1  0  0  0  0
 13 14  1  1  0  0  0
 15  7  1  0  0  0  0
 15 16  1  6  0  0  0
 17 16  1  6  0  0  0
 18 17  1  0  0  0  0
 19 20  1  1  0  0  0
 19 18  1  0  0  0  0
 20 21  1  0  0  0  0
 22 24  1  0  0  0  0
 22 19  1  0  0  0  0
 22 23  1  6  0  0  0
 24 25  1  1  0  0  0
 24 26  1  0  0  0  0
 26 17  1  0  0  0  0
 26 27  1  6  0  0  0
 28 29  1  1  0  0  0
 28 30  1  0  0  0  0
 30 31  1  1  0  0  0
M  END
>  <CHROM.1>
179.16352295,176.11402734,-86.17744267,-76.67683392,60.74178523,109.15844695
-35.43036152,88.90753688,89.94949423,45.43241149,-153.98585813,68.61178712
-52.65203668,172.08055710,-49.48178805,61.99635256,-1.00335520,2.44332991
4.07628629,2.64448192,-0.93437703,-2.98709603

>  <Name>
lig.pdb

>  <RI>
3.33129e+07

>  <Rbt.Current_Directory>
/home/itssahil/PROJECTS/Mol_Feturizer/New_Systems/rnas/2n0j

>  <Rbt.Executable>
rbdock ($Id: //depot/dev/client3/rdock/2013.1/src/exe/rbdock.cxx#4 $)

>  <Rbt.Library>
libRbt.so (2013.1, Build901 2013/11/27)

>  <Rbt.Parameter_File>
/export/apps/rDock/src/rDock_2013.1_src/data/scripts/dock_solv.prm

>  <Rbt.Receptor>
prm/pocket_docking_4.prm

>  <SCORE>
-41.1111

>  <SCORE.INTER>
-38.5647

>  <SCORE.INTER.CONST>
1

>  <SCORE.INTER.POLAR>
-4.84169

>  <SCORE.INTER.ROT>
6

>  <SCORE.INTER.SOLV>
12.9562

>  <SCORE.INTER.VDW>
-21.4896

>  <SCORE.INTER.norm>
-1.24402

>  <SCORE.INTRA>
-2.54632

>  <SCORE.INTRA.DIHEDRAL>
-8.35992

>  <SCORE.INTRA.DIHEDRAL.0>
28.0161

>  <SCORE.INTRA.POLAR>
-0.156947

>  <SCORE.INTRA.POLAR.0>
-1.05798

>  <SCORE.INTRA.REPUL>
0

>  <SCORE.INTRA.REPUL.0>
0

>  <SCORE.INTRA.SOLV>
0.367181

>  <SCORE.INTRA.SOLV.lig_0>
-42.5945

>  <SCORE.INTRA.VDW>
1.98367

>  <SCORE.INTRA.VDW.0>
-5.13869

>  <SCORE.INTRA.norm>
-0.0821394

>  <SCORE.RESTR>
0

>  <SCORE.RESTR.CAVITY>
0

>  <SCORE.RESTR.norm>
0

>  <SCORE.SYSTEM>
0

>  <SCORE.SYSTEM.CONST>
0

>  <SCORE.SYSTEM.DIHEDRAL>
0

>  <SCORE.SYSTEM.SOLV>
0

>  <SCORE.SYSTEM.norm>
0

>  <SCORE.heavy>
31

>  <SCORE.norm>
-1.32616

>  <RMSD>
1.737

$$$$
lig.pdb
 OpenBabel11021811453D
libRbt.so/2013.1/901 2013/11/27
 31 33  0  0  0  0  0  0  0  0999 V2000
   -1.3030    4.6153    8.2080 O   0  0  0  0  0  0  0  0  0  0  0  0
   -2.4480    3.9668    7.6899 C   0  0  0  0  0  0  0  0  0  0  0  0
   -2.5777    4.1819    6.1759 C   0  0  1  0  0  0  0  0  0  0  0  0
   -1.5263    3.5517    5.4615 O   0  0  0  0  0  0  0  0  0  0  0  0
   -1.9622    3.2444    4.1407 C   0  0  1  0  0  0  0  0  0  0  0  0
   -1.6199    1.9014    3.8197 O   0  0  0  0  0  0  0  0  0  0  0  0
   -1.8879    1.4636    2.4971 C   0  0  2  0  0  0  0  0  0  0  0  0
   -2.3123   -0.0118    2.5698 C   0  0  1  0  0  0  0  0  0  0  0  0
   -3.5869   -0.1129    3.1851 O   0  0  0  0  0  0  0  0  0  0  0  0
   -2.4090   -0.7039    1.2017 C   0  0  2  0  0  0  0  0  0  0  0  0
   -2.7236   -2.1329    1.3538 N   0  0  0  0  0  0  0  0  0  0  0  0
   -1.0895   -0.5517    0.4542 C   0  0  0  0  0  0  0  0  0  0  0  0
   -0.7372    0.9256    0.3305 C   0  0  2  0  0  0  0  0  0  0  0  0
    0.5060    1.0445   -0.4389 N   0  0  0  0  0  0  0  0  0  0  0  0
   -0.6091    1.5664    1.7293 C   0  0  1  0  0  0  0  0  0  0  0  0
   -0.2625    2.9394    1.4920 O   0  0  0  0  0  0  0  0  0  0  0  0
    0.4257    3.6246    2.5329 C   0  0  1  0  0  0  0  0  0  0  0  0
    1.7346    3.0892    2.7084 O   0  0  0  0  0  0  0  0  0  0  0  0
    2.6607    3.3288    1.6509 C   0  0  2  0  0  0  0  0  0  0  0  0
    4.0059    2.6854    2.0130 C   0  0  0  0  0  0  0  0  0  0  0  0
    3.8504    1.2871    2.3875 N   0  0  0  0  0  0  0  0  0  0  0  0
    2.8500    4.8396    1.4200 C   0  0  1  0  0  0  0  0  0  0  0  0
    3.7275    5.0512    0.3284 O   0  0  0  0  0  0  0  0  0  0  0  0
    1.4832    5.4677    1.1204 C   0  0  2  0  0  0  0  0  0  0  0  0
    1.6107    6.8712    0.9897 O   0  0  0  0  0  0  0  0  0  0  0  0
    0.4754    5.1256    2.2259 C   0  0  1  0  0  0  0  0  0  0  0  0
   -0.8592    5.6243    1.8646 N   0  0  0  0  0  0  0  0  0  0  0  0
   -3.4897    3.4019    4.1286 C   0  0  2  0  0  0  0  0  0  0  0  0
   -3.8482    4.5493    3.3814 O   0  0  0  0  0  0  0  0  0  0  0  0
   -3.8312    3.5192    5.6132 C   0  0  2  0  0  0  0  0  0  0  0  0
   -5.0199    4.2410    5.8680 O   0  0  0  0  0  0  0  0  0  0  0  0
  2  1  1  0  0  0  0
  3  2  1  1  0  0  0
  3 30  1  0  0  0  0
  4  5  1  0  0  0  0
  4  3  1  0  0  0  0
  5 28  1  0  0  0  0
  5  6  1  1  0  0  0
  7  6  1  1  0  0  0
  8  7  1  0  0  0  0
  8  9  1  6  0  0  0
 10 11  1  1  0  0  0
 10  8  1  0  0  0  0
 12 10  1  0  0  0  0
 13 12  1  0  0  0  0
 13 15  1  0  0  0  0
 13 14  1  1  0  0  0
 15  7  1  0  0  0  0
 15 16  1  6  0  0  0
 17 16  1  6  0  0  0
 18 17  1  0  0  0  0
 19 20  1  1  0  0  0
 19 18  1  0  0  0  0
 20 21  1  0  0  0  0
 22 24  1  0  0  0  0
 22 19  1  0  0  0  0
 22 23  1  6  0  0  0
 24 25  1  1  0  0  0
 24 26  1  0  0  0  0
 26 17  1  0  0  0  0
 26 27  1  6  0  0  0
 28 29  1  6  0  0  0
 28 30  1  0  0  0  0
 30 31  1  6  0  0  0
M  END
>  <CHROM.1>
68.11893303,66.27008128,-175.11045924,-144.52443706,-169.80778316,-52.85409216
63.49870048,83.65730320,67.47424904,51.99175826,-172.91844870,-171.38443352
61.15735449,94.39115913,65.39755206,66.44685074,-0.66529341,2.87450674,2.84236363
-2.85425374,-0.58302660,-2.51930333

>  <Name>
lig.pdb

>  <RI>
3.50357e+07

>  <Rbt.Current_Directory>
/home/itssahil/PROJECTS/Mol_Feturizer/New_Systems/rnas/2n0j

>  <Rbt.Executable>
rbdock ($Id: //depot/dev/client3/rdock/2013.1/src/exe/rbdock.cxx#4 $)

>  <Rbt.Library>
libRbt.so (2013.1, Build901 2013/11/27)

>  <Rbt.Parameter_File>
/export/apps/rDock/src/rDock_2013.1_src/data/scripts/dock_solv.prm

>  <Rbt.Receptor>
prm/pocket_docking_3.prm

>  <SCORE>
-49.8411

>  <SCORE.INTER>
-45.9004

>  <SCORE.INTER.CONST>
1

>  <SCORE.INTER.POLAR>
-6.31349

>  <SCORE.INTER.ROT>
6

>  <SCORE.INTER.SOLV>
15.1855

>  <SCORE.INTER.VDW>
-22.2172

>  <SCORE.INTER.norm>
-1.48066

>  <SCORE.INTRA>
-3.97458

>  <SCORE.INTRA.DIHEDRAL>
-15.8379

>  <SCORE.INTRA.DIHEDRAL.0>
28.0161

>  <SCORE.INTRA.POLAR>
0.817883

>  <SCORE.INTRA.POLAR.0>
-1.05798

>  <SCORE.INTRA.REPUL>
0

>  <SCORE.INTRA.REPUL.0>
0

>  <SCORE.INTRA.SOLV>
-0.191075

>  <SCORE.INTRA.SOLV.lig_0>
-42.5945

>  <SCORE.INTRA.VDW>
1.25911

>  <SCORE.INTRA.VDW.0>
-5.13869

>  <SCORE.INTRA.norm>
-0.128212

>  <SCORE.RESTR>
0.0339364

>  <SCORE.RESTR.CAVITY>
0.0339364

>  <SCORE.RESTR.norm>
0.00109472

>  <SCORE.SYSTEM>
0

>  <SCORE.SYSTEM.CONST>
0

>  <SCORE.SYSTEM.DIHEDRAL>
0

>  <SCORE.SYSTEM.SOLV>
0

>  <SCORE.SYSTEM.norm>
0

>  <SCORE.heavy>
31

>  <SCORE.norm>
-1.60778

>  <RMSD>
1.741

$$$$
lig.pdb
 OpenBabel11021811453D
libRbt.so/2013.1/901 2013/11/27
 31 33  0  0  0  0  0  0  0  0999 V2000
   -3.4128    1.4913    9.4386 O   0  0  0  0  0  0  0  0  0  0  0  0
   -2.3262    1.4782    8.5334 C   0  0  0  0  0  0  0  0  0  0  0  0
   -2.7407    2.0015    7.1515 C   0  0  1  0  0  0  0  0  0  0  0  0
   -1.6357    2.0841    6.2655 O   0  0  0  0  0  0  0  0  0  0  0  0
   -2.0916    1.9741    4.9205 C   0  0  1  0  0  0  0  0  0  0  0  0
   -1.2888    1.0359    4.2140 O   0  0  0  0  0  0  0  0  0  0  0  0
   -1.6553    0.7505    2.8734 C   0  0  2  0  0  0  0  0  0  0  0  0
   -1.9457   -0.7558    2.7785 C   0  0  1  0  0  0  0  0  0  0  0  0
   -3.1368   -1.0586    3.4878 O   0  0  0  0  0  0  0  0  0  0  0  0
   -2.1259   -1.2697    1.3421 C   0  0  2  0  0  0  0  0  0  0  0  0
   -2.3032   -2.7299    1.3218 N   0  0  0  0  0  0  0  0  0  0  0  0
   -0.9083   -0.8949    0.5054 C   0  0  0  0  0  0  0  0  0  0  0  0
   -0.6948    0.6130    0.5569 C   0  0  2  0  0  0  0  0  0  0  0  0
    0.4477    0.9504   -0.2990 N   0  0  0  0  0  0  0  0  0  0  0  0
   -0.4760    1.0753    2.0137 C   0  0  1  0  0  0  0  0  0  0  0  0
   -0.2711    2.4945    1.9391 O   0  0  0  0  0  0  0  0  0  0  0  0
    0.5928    3.0776    2.9087 C   0  0  1  0  0  0  0  0  0  0  0  0
    1.9351    2.6407    2.7144 O   0  0  0  0  0  0  0  0  0  0  0  0
    2.5884    3.1145    1.5387 C   0  0  2  0  0  0  0  0  0  0  0  0
    4.0135    2.5470    1.4991 C   0  0  0  0  0  0  0  0  0  0  0  0
    4.9796    3.4779    2.0646 N   0  0  0  0  0  0  0  0  0  0  0  0
    2.6388    4.6536    1.5223 C   0  0  1  0  0  0  0  0  0  0  0  0
    3.2387    5.1005    0.3194 O   0  0  0  0  0  0  0  0  0  0  0  0
    1.2074    5.1950    1.6242 C   0  0  2  0  0  0  0  0  0  0  0  0
    1.2258    6.6081    1.6999 O   0  0  0  0  0  0  0  0  0  0  0  0
    0.4909    4.6059    2.8467 C   0  0  1  0  0  0  0  0  0  0  0  0
   -0.9159    5.0316    2.8613 N   0  0  0  0  0  0  0  0  0  0  0  0
   -3.5399    1.4674    4.9819 C   0  0  2  0  0  0  0  0  0  0  0  0
   -4.4279    2.5051    4.6103 O   0  0  0  0  0  0  0  0  0  0  0  0
   -3.6893    1.0409    6.4414 C   0  0  2  0  0  0  0  0  0  0  0  0
   -5.0194    1.0986    6.9173 O   0  0  0  0  0  0  0  0  0  0  0  0
  2  1  1  0  0  0  0
  3  2  1  1  0  0  0
  3 30  1  0  0  0  0
  4  5  1  0  0  0  0
  4  3  1  0  0  0  0
  5 28  1  0  0  0  0
  5  6  1  6  0  0  0
  7  6  1  1  0  0  0
  8  7  1  0  0  0  0
  8  9  1  1  0  0  0
 10 11  1  1  0  0  0
 10  8  1  0  0  0  0
 12 10  1  0  0  0  0
 13 12  1  0  0  0  0
 13 15  1  0  0  0  0
 13 14  1  6  0  0  0
 15  7  1  0  0  0  0
 15 16  1  6  0  0  0
 17 16  1  6  0  0  0
 18 17  1  0  0  0  0
 19 20  1  1  0  0  0
 19 18  1  0  0  0  0
 20 21  1  0  0  0  0
 22 24  1  0  0  0  0
 22 19  1  0  0  0  0
 22 23  1  6  0  0  0
 24 25  1  1  0  0  0
 24 26  1  0  0  0  0
 26 17  1  0  0  0  0
 26 27  1  6  0  0  0
 28 29  1  1  0  0  0
 28 30  1  0  0  0  0
 30 31  1  1  0  0  0
M  END
>  <CHROM.1>
-61.21989390,175.70619797,176.60818968,-120.60782802,60.34375764,43.69521828
63.58220501,90.90313198,67.19826588,-94.98541172,31.98679248,-179.26888480
-62.02199949,-57.27452980,177.79881240,58.63836368,-0.69374461,2.00719948
3.28899802,-2.96116602,-0.75388751,-2.33051446

>  <Name>
lig.pdb

>  <RI>
2.67765e+07

>  <Rbt.Current_Directory>
/home/itssahil/PROJECTS/Mol_Feturizer/New_Systems/rnas/2n0j

>  <Rbt.Executable>
rbdock ($Id: //depot/dev/client3/rdock/2013.1/src/exe/rbdock.cxx#4 $)

>  <Rbt.Library>
libRbt.so (2013.1, Build901 2013/11/27)

>  <Rbt.Parameter_File>
/export/apps/rDock/src/rDock_2013.1_src/data/scripts/dock_solv.prm

>  <Rbt.Receptor>
prm/pocket_docking_2.prm

>  <SCORE>
-30.8616

>  <SCORE.INTER>
-32.2584

>  <SCORE.INTER.CONST>
1

>  <SCORE.INTER.POLAR>
-3.91913

>  <SCORE.INTER.ROT>
6

>  <SCORE.INTER.SOLV>
10.573

>  <SCORE.INTER.VDW>
-19.5662

>  <SCORE.INTER.norm>
-1.04059

>  <SCORE.INTRA>
0.817574

>  <SCORE.INTRA.DIHEDRAL>
-10.639

>  <SCORE.INTRA.DIHEDRAL.0>
28.0161

>  <SCORE.INTRA.POLAR>
1.03963

>  <SCORE.INTRA.POLAR.0>
-1.05798

>  <SCORE.INTRA.REPUL>
0

>  <SCORE.INTRA.REPUL.0>
0

>  <SCORE.INTRA.SOLV>
0.987139

>  <SCORE.INTRA.SOLV.lig_0>
-42.5945

>  <SCORE.INTRA.VDW>
2.10879

>  <SCORE.INTRA.VDW.0>
-5.13869

>  <SCORE.INTRA.norm>
0.0263733

>  <SCORE.RESTR>
0.579276

>  <SCORE.RESTR.CAVITY>
0.579276

>  <SCORE.RESTR.norm>
0.0186863

>  <SCORE.SYSTEM>
0

>  <SCORE.SYSTEM.CONST>
0

>  <SCORE.SYSTEM.DIHEDRAL>
0

>  <SCORE.SYSTEM.SOLV>
0

>  <SCORE.SYSTEM.norm>
0

>  <SCORE.heavy>
31

>  <SCORE.norm>
-0.995535

>  <RMSD>
1.806

$$$$
lig.pdb
 OpenBabel11021811453D
libRbt.so/2013.1/901 2013/11/27
 31 33  0  0  0  0  0  0  0  0999 V2000
   -2.6381    4.2397    7.7917 O   0  0  0  0  0  0  0  0  0  0  0  0
   -3.6744    3.7835    6.9444 C   0  0  0  0  0  0  0  0  0  0  0  0
   -3.3129    3.9708    5.4648 C   0  0  1  0  0  0  0  0  0  0  0  0
   -2.1322    3.2651    5.1168 O   0  0  0  0  0  0  0  0  0  0  0  0
   -2.1532    2.9530    3.7272 C   0  0  1  0  0  0  0  0  0  0  0  0
   -1.8114    1.5855    3.5345 O   0  0  0  0  0  0  0  0  0  0  0  0
   -1.9340    1.0669    2.2197 C   0  0  2  0  0  0  0  0  0  0  0  0
   -2.1846   -0.4451    2.3348 C   0  0  1  0  0  0  0  0  0  0  0  0
   -3.4776   -0.6758    2.8718 O   0  0  0  0  0  0  0  0  0  0  0  0
   -2.1042   -1.1970    0.9976 C   0  0  2  0  0  0  0  0  0  0  0  0
   -2.2571   -2.6465    1.1967 N   0  0  0  0  0  0  0  0  0  0  0  0
   -0.7636   -0.9154    0.3293 C   0  0  0  0  0  0  0  0  0  0  0  0
   -0.5811    0.5878    0.1586 C   0  0  2  0  0  0  0  0  0  0  0  0
    0.6893    0.8262   -0.5349 N   0  0  0  0  0  0  0  0  0  0  0  0
   -0.6265    1.2938    1.5309 C   0  0  1  0  0  0  0  0  0  0  0  0
   -0.4293    2.6883    1.2515 O   0  0  0  0  0  0  0  0  0  0  0  0
    0.1396    3.4837    2.2860 C   0  0  1  0  0  0  0  0  0  0  0  0
    1.4483    3.0239    2.6124 O   0  0  0  0  0  0  0  0  0  0  0  0
    2.4520    3.2218    1.6189 C   0  0  2  0  0  0  0  0  0  0  0  0
    3.7850    2.6709    2.1425 C   0  0  0  0  0  0  0  0  0  0  0  0
    3.6807    1.2650    2.5063 N   0  0  0  0  0  0  0  0  0  0  0  0
    2.6017    4.7169    1.2815 C   0  0  1  0  0  0  0  0  0  0  0  0
    3.5610    4.8821    0.2524 O   0  0  0  0  0  0  0  0  0  0  0  0
    1.2424    5.2567    0.8194 C   0  0  2  0  0  0  0  0  0  0  0  0
    1.3261    6.6499    0.5851 O   0  0  0  0  0  0  0  0  0  0  0  0
    0.1573    4.9567    1.8622 C   0  0  1  0  0  0  0  0  0  0  0  0
   -1.1597    5.3641    1.3521 N   0  0  0  0  0  0  0  0  0  0  0  0
   -3.5883    3.1973    3.2383 C   0  0  2  0  0  0  0  0  0  0  0  0
   -3.6250    4.3459    2.4119 O   0  0  0  0  0  0  0  0  0  0  0  0
   -4.3671    3.3682    4.5416 C   0  0  2  0  0  0  0  0  0  0  0  0
   -5.5293    4.1626    4.4096 O   0  0  0  0  0  0  0  0  0  0  0  0
  2  1  1  0  0  0  0
  3  2  1  1  0  0  0
  3 30  1  0  0  0  0
  4  5  1  0  0  0  0
  4  3  1  0  0  0  0
  5 28  1  0  0  0  0
  5  6  1  1  0  0  0
  7  6  1  1  0  0  0
  8  7  1  0  0  0  0
  8  9  1  6  0  0  0
 10 11  1  1  0  0  0
 10  8  1  0  0  0  0
 12 10  1  0  0  0  0
 13 12  1  0  0  0  0
 13 15  1  0  0  0  0
 13 14  1  1  0  0  0
 15  7  1  0  0  0  0
 15 16  1  6  0  0  0
 17 16  1  6  0  0  0
 18 17  1  0  0  0  0
 19 20  1  1  0  0  0
 19 18  1  0  0  0  0
 20 21  1  0  0  0  0
 22 24  1  0  0  0  0
 22 19  1  0  0  0  0
 22 23  1  6  0  0  0
 24 25  1  1  0  0  0
 24 26  1  0  0  0  0
 26 17  1  0  0  0  0
 26 27  1  6  0  0  0
 28 29  1  6  0  0  0
 28 30  1  0  0  0  0
 30 31  1  6  0  0  0
M  END
>  <CHROM.1>
63.60464753,59.51134803,172.93761576,-153.32278127,-158.65729957,-88.18711909
65.73436118,85.62572817,61.84288020,57.03731683,179.72782651,-179.21703259
-56.24831696,-168.09817332,86.09056727,-61.22687799,-0.87642192,2.62601297
2.48408341,-2.99399452,-0.55267963,-2.72058694

>  <Name>
lig.pdb

>  <RI>
3.50357e+07

>  <Rbt.Current_Directory>
/home/itssahil/PROJECTS/Mol_Feturizer/New_Systems/rnas/2n0j

>  <Rbt.Executable>
rbdock ($Id: //depot/dev/client3/rdock/2013.1/src/exe/rbdock.cxx#4 $)

>  <Rbt.Library>
libRbt.so (2013.1, Build901 2013/11/27)

>  <Rbt.Parameter_File>
/export/apps/rDock/src/rDock_2013.1_src/data/scripts/dock_solv.prm

>  <Rbt.Receptor>
prm/pocket_docking_3.prm

>  <SCORE>
-48.1365

>  <SCORE.INTER>
-45.4376

>  <SCORE.INTER.CONST>
1

>  <SCORE.INTER.POLAR>
-6.53999

>  <SCORE.INTER.ROT>
6

>  <SCORE.INTER.SOLV>
15.8126

>  <SCORE.INTER.VDW>
-21.3626

>  <SCORE.INTER.norm>
-1.46573

>  <SCORE.INTRA>
-2.69892

>  <SCORE.INTRA.DIHEDRAL>
-14.6079

>  <SCORE.INTRA.DIHEDRAL.0>
28.0161

>  <SCORE.INTRA.POLAR>
0.557675

>  <SCORE.INTRA.POLAR.0>
-1.05798

>  <SCORE.INTRA.REPUL>
0.0380984

>  <SCORE.INTRA.REPUL.0>
0

>  <SCORE.INTRA.SOLV>
0.425185

>  <SCORE.INTRA.SOLV.lig_0>
-42.5945

>  <SCORE.INTRA.VDW>
2.30586

>  <SCORE.INTRA.VDW.0>
-5.13869

>  <SCORE.INTRA.norm>
-0.0870621

>  <SCORE.RESTR>
0

>  <SCORE.RESTR.CAVITY>
0

>  <SCORE.RESTR.norm>
0

>  <SCORE.SYSTEM>
0

>  <SCORE.SYSTEM.CONST>
0

>  <SCORE.SYSTEM.DIHEDRAL>
0

>  <SCORE.SYSTEM.SOLV>
0

>  <SCORE.SYSTEM.norm>
0

>  <SCORE.heavy>
31

>  <SCORE.norm>
-1.55279

>  <RMSD>
1.952

$$$$
lig.pdb
 OpenBabel11021811453D
libRbt.so/2013.1/901 2013/11/27
 31 33  0  0  0  0  0  0  0  0999 V2000
   -4.0755    3.9142    7.5678 O   0  0  0  0  0  0  0  0  0  0  0  0
   -4.4440    3.4935    6.2688 C   0  0  0  0  0  0  0  0  0  0  0  0
   -3.6176    2.2823    5.8157 C   0  0  1  0  0  0  0  0  0  0  0  0
   -3.8390    1.9742    4.4486 O   0  0  0  0  0  0  0  0  0  0  0  0
   -2.6972    1.3091    3.9169 C   0  0  1  0  0  0  0  0  0  0  0  0
   -2.3306    1.8978    2.6748 O   0  0  0  0  0  0  0  0  0  0  0  0
   -1.1909    1.3662    2.0180 C   0  0  2  0  0  0  0  0  0  0  0  0
   -1.1914   -0.1548    2.2383 C   0  0  1  0  0  0  0  0  0  0  0  0
   -2.2594   -0.7427    1.5123 O   0  0  0  0  0  0  0  0  0  0  0  0
    0.1028   -0.8526    1.7928 C   0  0  2  0  0  0  0  0  0  0  0  0
    0.0700   -2.2861    2.1215 N   0  0  0  0  0  0  0  0  0  0  0  0
    1.2993   -0.2024    2.4773 C   0  0  0  0  0  0  0  0  0  0  0  0
    1.3145    1.2909    2.1746 C   0  0  2  0  0  0  0  0  0  0  0  0
    2.5041    1.8799    2.7990 N   0  0  0  0  0  0  0  0  0  0  0  0
    0.0147    1.9546    2.6781 C   0  0  1  0  0  0  0  0  0  0  0  0
    0.1462    3.3479    2.3573 O   0  0  0  0  0  0  0  0  0  0  0  0
    0.5609    4.2189    3.4042 C   0  0  1  0  0  0  0  0  0  0  0  0
    1.8671    4.7277    3.1479 O   0  0  0  0  0  0  0  0  0  0  0  0
    1.9860    5.6385    2.0571 C   0  0  2  0  0  0  0  0  0  0  0  0
    3.4510    6.0782    1.9343 C   0  0  0  0  0  0  0  0  0  0  0  0
    3.6930    6.8045    0.6958 N   0  0  0  0  0  0  0  0  0  0  0  0
    1.0875    6.8707    2.2716 C   0  0  1  0  0  0  0  0  0  0  0  0
    1.1782    7.7310    1.1499 O   0  0  0  0  0  0  0  0  0  0  0  0
   -0.3609    6.3995    2.4521 C   0  0  2  0  0  0  0  0  0  0  0  0
   -1.1996    7.5029    2.7388 O   0  0  0  0  0  0  0  0  0  0  0  0
   -0.4552    5.3543    3.5719 C   0  0  1  0  0  0  0  0  0  0  0  0
   -1.8218    4.8185    3.6488 N   0  0  0  0  0  0  0  0  0  0  0  0
   -1.5597    1.4992    4.9309 C   0  0  2  0  0  0  0  0  0  0  0  0
   -1.2820    0.2708    5.5770 O   0  0  0  0  0  0  0  0  0  0  0  0
   -2.1194    2.5627    5.8743 C   0  0  2  0  0  0  0  0  0  0  0  0
   -1.5801    2.5051    7.1801 O   0  0  0  0  0  0  0  0  0  0  0  0
  2  1  1  0  0  0  0
  3  2  1  6  0  0  0
  3 30  1  0  0  0  0
  4  5  1  0  0  0  0
  4  3  1  0  0  0  0
  5 28  1  0  0  0  0
  5  6  1  6  0  0  0
  7  6  1  1  0  0  0
  8  7  1  0  0  0  0
  8  9  1  6  0  0  0
 10 11  1  1  0  0  0
 10  8  1  0  0  0  0
 12 10  1  0  0  0  0
 13 12  1  0  0  0  0
 13 15  1  0  0  0  0
 13 14  1  1  0  0  0
 15  7  1  0  0  0  0
 15 16  1  6  0  0  0
 17 16  1  6  0  0  0
 18 17  1  0  0  0  0
 19 20  1  1  0  0  0
 19 18  1  0  0  0  0
 20 21  1  0  0  0  0
 22 24  1  0  0  0  0
 22 19  1  0  0  0  0
 22 23  1  6  0  0  0
 24 25  1  1  0  0  0
 24 26  1  0  0  0  0
 26 17  1  0  0  0  0
 26 27  1  6  0  0  0
 28 29  1  1  0  0  0
 28 30  1  0  0  0  0
 30 31  1  1  0  0  0
M  END
>  <CHROM.1>
-174.95710953,-171.41787933,178.90059854,37.38640072,62.39063617,-82.15145513
-176.98062768,140.07100323,111.82906511,169.15778224,51.95585578,-169.07023158
-60.20888018,92.06893951,176.06023582,-50.61128286,-0.54388074,3.03931722
3.35216379,2.34513489,-0.69121183,-2.99979222

>  <Name>
lig.pdb

>  <RI>
3.33129e+07

>  <Rbt.Current_Directory>
/home/itssahil/PROJECTS/Mol_Feturizer/New_Systems/rnas/2n0j

>  <Rbt.Executable>
rbdock ($Id: //depot/dev/client3/rdock/2013.1/src/exe/rbdock.cxx#4 $)

>  <Rbt.Library>
libRbt.so (2013.1, Build901 2013/11/27)

>  <Rbt.Parameter_File>
/export/apps/rDock/src/rDock_2013.1_src/data/scripts/dock_solv.prm

>  <Rbt.Receptor>
prm/pocket_docking_4.prm

>  <SCORE>
-35.097

>  <SCORE.INTER>
-29.3984

>  <SCORE.INTER.CONST>
1

>  <SCORE.INTER.POLAR>
-2.9872

>  <SCORE.INTER.ROT>
6

>  <SCORE.INTER.SOLV>
11.7678

>  <SCORE.INTER.VDW>
-21.1642

>  <SCORE.INTER.norm>
-0.948335

>  <SCORE.INTRA>
-5.69864

>  <SCORE.INTRA.DIHEDRAL>
-8.04415

>  <SCORE.INTRA.DIHEDRAL.0>
28.0161

>  <SCORE.INTRA.POLAR>
-2.06315

>  <SCORE.INTRA.POLAR.0>
-1.05798

>  <SCORE.INTRA.REPUL>
0

>  <SCORE.INTRA.REPUL.0>
0

>  <SCORE.INTRA.SOLV>
2.63538

>  <SCORE.INTRA.SOLV.lig_0>
-42.5945

>  <SCORE.INTRA.VDW>
4.02046

>  <SCORE.INTRA.VDW.0>
-5.13869

>  <SCORE.INTRA.norm>
-0.183827

>  <SCORE.RESTR>
0

>  <SCORE.RESTR.CAVITY>
0

>  <SCORE.RESTR.norm>
0

>  <SCORE.SYSTEM>
0

>  <SCORE.SYSTEM.CONST>
0

>  <SCORE.SYSTEM.DIHEDRAL>
0

>  <SCORE.SYSTEM.SOLV>
0

>  <SCORE.SYSTEM.norm>
0

>  <SCORE.heavy>
31

>  <SCORE.norm>
-1.13216

>  <RMSD>
2.028

$$$$
lig.pdb
 OpenBabel11021811453D
libRbt.so/2013.1/901 2013/11/27
 31 33  0  0  0  0  0  0  0  0999 V2000
   -2.8053   -0.4814    6.9634 O   0  0  0  0  0  0  0  0  0  0  0  0
   -3.2538    0.8001    7.3594 C   0  0  0  0  0  0  0  0  0  0  0  0
   -2.4393    1.9126    6.6856 C   0  0  1  0  0  0  0  0  0  0  0  0
   -2.1664    1.6166    5.3251 O   0  0  0  0  0  0  0  0  0  0  0  0
   -1.9776    2.8281    4.6002 C   0  0  1  0  0  0  0  0  0  0  0  0
   -2.7395    2.7956    3.3992 O   0  0  0  0  0  0  0  0  0  0  0  0
   -2.2915    1.9258    2.3719 C   0  0  2  0  0  0  0  0  0  0  0  0
   -2.6712    0.4920    2.7745 C   0  0  1  0  0  0  0  0  0  0  0  0
   -4.0799    0.3345    2.7100 O   0  0  0  0  0  0  0  0  0  0  0  0
   -2.0487   -0.5944    1.8843 C   0  0  2  0  0  0  0  0  0  0  0  0
   -2.3750   -1.9386    2.3850 N   0  0  0  0  0  0  0  0  0  0  0  0
   -0.5349   -0.4214    1.8448 C   0  0  0  0  0  0  0  0  0  0  0  0
   -0.1913    0.9841    1.3668 C   0  0  2  0  0  0  0  0  0  0  0  0
    1.2684    1.1040    1.2862 N   0  0  0  0  0  0  0  0  0  0  0  0
   -0.8017    2.0385    2.3152 C   0  0  1  0  0  0  0  0  0  0  0  0
   -0.4036    3.3106    1.7816 O   0  0  0  0  0  0  0  0  0  0  0  0
    0.2610    4.2064    2.6662 C   0  0  1  0  0  0  0  0  0  0  0  0
    1.5888    3.7611    2.9295 O   0  0  0  0  0  0  0  0  0  0  0  0
    2.5038    3.8263    1.8377 C   0  0  2  0  0  0  0  0  0  0  0  0
    3.8721    3.3122    2.3046 C   0  0  0  0  0  0  0  0  0  0  0  0
    4.3929    2.2838    1.4153 N   0  0  0  0  0  0  0  0  0  0  0  0
    2.6376    5.2706    1.3203 C   0  0  1  0  0  0  0  0  0  0  0  0
    3.5050    5.3000    0.2008 O   0  0  0  0  0  0  0  0  0  0  0  0
    1.2484    5.7810    0.9178 C   0  0  2  0  0  0  0  0  0  0  0  0
    1.3246    7.1370    0.5198 O   0  0  0  0  0  0  0  0  0  0  0  0
    0.2556    5.6216    2.0771 C   0  0  1  0  0  0  0  0  0  0  0  0
   -1.0969    5.9943    1.6386 N   0  0  0  0  0  0  0  0  0  0  0  0
   -2.4827    3.9668    5.4981 C   0  0  2  0  0  0  0  0  0  0  0  0
   -1.3870    4.7298    5.9681 O   0  0  0  0  0  0  0  0  0  0  0  0
   -3.2188    3.2217    6.6105 C   0  0  2  0  0  0  0  0  0  0  0  0
   -3.2644    3.9280    7.8345 O   0  0  0  0  0  0  0  0  0  0  0  0
  2  1  1  0  0  0  0
  3  2  1  6  0  0  0
  3 30  1  0  0  0  0
  4  5  1  0  0  0  0
  4  3  1  0  0  0  0
  5 28  1  0  0  0  0
  5  6  1  6  0  0  0
  7  6  1  1  0  0  0
  8  7  1  0  0  0  0
  8  9  1  6  0  0  0
 10 11  1  1  0  0  0
 10  8  1  0  0  0  0
 12 10  1  0  0  0  0
 13 12  1  0  0  0  0
 13 15  1  0  0  0  0
 13 14  1  1  0  0  0
 15  7  1  0  0  0  0
 15 16  1  6  0  0  0
 17 16  1  6  0  0  0
 18 17  1  0  0  0  0
 19 20  1  1  0  0  0
 19 18  1  0  0  0  0
 20 21  1  0  0  0  0
 22 24  1  0  0  0  0
 22 19  1  0  0  0  0
 22 23  1  6  0  0  0
 24 25  1  1  0  0  0
 24 26  1  0  0  0  0
 26 17  1  0  0  0  0
 26 27  1  6  0  0  0
 28 29  1  1  0  0  0
 28 30  1  0  0  0  0
 30 31  1  1  0  0  0
M  END
>  <CHROM.1>
-175.12649425,40.75525308,-71.48009777,75.90951426,-172.05729832,68.67168427
58.07824961,113.10159933,72.65226773,128.32681141,-53.60121275,-66.74675003
-59.76093367,-154.20248798,-53.82305802,-178.48636526,-0.61160341,2.73982111
3.19030830,-2.94980663,0.78957154,0.41595164

>  <Name>
lig.pdb

>  <RI>
2.67765e+07

>  <Rbt.Current_Directory>
/home/itssahil/PROJECTS/Mol_Feturizer/New_Systems/rnas/2n0j

>  <Rbt.Executable>
rbdock ($Id: //depot/dev/client3/rdock/2013.1/src/exe/rbdock.cxx#4 $)

>  <Rbt.Library>
libRbt.so (2013.1, Build901 2013/11/27)

>  <Rbt.Parameter_File>
/export/apps/rDock/src/rDock_2013.1_src/data/scripts/dock_solv.prm

>  <Rbt.Receptor>
prm/pocket_docking_2.prm

>  <SCORE>
-28.2573

>  <SCORE.INTER>
-31.5521

>  <SCORE.INTER.CONST>
1

>  <SCORE.INTER.POLAR>
-4.64349

>  <SCORE.INTER.ROT>
6

>  <SCORE.INTER.SOLV>
14.2154

>  <SCORE.INTER.VDW>
-17.8949

>  <SCORE.INTER.norm>
-1.01781

>  <SCORE.INTRA>
2.4273

>  <SCORE.INTRA.DIHEDRAL>
-9.34781

>  <SCORE.INTRA.DIHEDRAL.0>
28.0161

>  <SCORE.INTRA.POLAR>
0.915562

>  <SCORE.INTRA.POLAR.0>
-1.05798

>  <SCORE.INTRA.REPUL>
0

>  <SCORE.INTRA.REPUL.0>
0

>  <SCORE.INTRA.SOLV>
0.446367

>  <SCORE.INTRA.SOLV.lig_0>
-42.5945

>  <SCORE.INTRA.VDW>
3.76511

>  <SCORE.INTRA.VDW.0>
-5.13869

>  <SCORE.INTRA.norm>
0.0783

>  <SCORE.RESTR>
0.86748

>  <SCORE.RESTR.CAVITY>
0.86748

>  <SCORE.RESTR.norm>
0.0279832

>  <SCORE.SYSTEM>
0

>  <SCORE.SYSTEM.CONST>
0

>  <SCORE.SYSTEM.DIHEDRAL>
0

>  <SCORE.SYSTEM.SOLV>
0

>  <SCORE.SYSTEM.norm>
0

>  <SCORE.heavy>
31

>  <SCORE.norm>
-0.911526

>  <RMSD>
2.087

$$$$
lig.pdb
 OpenBabel11021811453D
libRbt.so/2013.1/901 2013/11/27
 31 33  0  0  0  0  0  0  0  0999 V2000
   -3.9760    1.8533    8.2525 O   0  0  0  0  0  0  0  0  0  0  0  0
   -3.3886    1.6782    6.9780 C   0  0  0  0  0  0  0  0  0  0  0  0
   -2.6892    2.9586    6.5019 C   0  0  1  0  0  0  0  0  0  0  0  0
   -2.1055    2.7951    5.2191 O   0  0  0  0  0  0  0  0  0  0  0  0
   -2.0172    4.0593    4.5689 C   0  0  1  0  0  0  0  0  0  0  0  0
   -2.5106    3.9535    3.2388 O   0  0  0  0  0  0  0  0  0  0  0  0
   -1.8711    3.0193    2.3837 C   0  0  2  0  0  0  0  0  0  0  0  0
   -2.2515    1.6096    2.8635 C   0  0  1  0  0  0  0  0  0  0  0  0
   -3.6248    1.3691    2.5996 O   0  0  0  0  0  0  0  0  0  0  0  0
   -1.4527    0.4824    2.1915 C   0  0  2  0  0  0  0  0  0  0  0  0
   -1.7995   -0.8263    2.7670 N   0  0  0  0  0  0  0  0  0  0  0  0
    0.0400    0.7346    2.3677 C   0  0  0  0  0  0  0  0  0  0  0  0
    0.3977    2.1072    1.8110 C   0  0  2  0  0  0  0  0  0  0  0  0
    1.8458    2.2999    1.9437 N   0  0  0  0  0  0  0  0  0  0  0  0
   -0.3969    3.2086    2.5453 C   0  0  1  0  0  0  0  0  0  0  0  0
    0.0288    4.4466    1.9555 O   0  0  0  0  0  0  0  0  0  0  0  0
    0.8972    5.2689    2.7277 C   0  0  1  0  0  0  0  0  0  0  0  0
    2.2445    4.8168    2.6219 O   0  0  0  0  0  0  0  0  0  0  0  0
    2.8685    4.9872    1.3510 C   0  0  2  0  0  0  0  0  0  0  0  0
    4.3037    4.4493    1.4260 C   0  0  0  0  0  0  0  0  0  0  0  0
    5.0689    5.1018    2.4788 N   0  0  0  0  0  0  0  0  0  0  0  0
    2.8884    6.4726    0.9450 C   0  0  1  0  0  0  0  0  0  0  0  0
    3.4592    6.6093   -0.3442 O   0  0  0  0  0  0  0  0  0  0  0  0
    1.4486    7.0010    0.9370 C   0  0  2  0  0  0  0  0  0  0  0  0
    1.4405    8.3874    0.6526 O   0  0  0  0  0  0  0  0  0  0  0  0
    0.7643    6.7300    2.2837 C   0  0  1  0  0  0  0  0  0  0  0  0
   -0.6501    7.1248    2.2199 N   0  0  0  0  0  0  0  0  0  0  0  0
   -2.8971    5.0324    5.3671 C   0  0  2  0  0  0  0  0  0  0  0  0
   -2.0818    5.9579    6.0615 O   0  0  0  0  0  0  0  0  0  0  0  0
   -3.6771    4.1024    6.2950 C   0  0  2  0  0  0  0  0  0  0  0  0
   -4.0949    4.7181    7.4973 O   0  0  0  0  0  0  0  0  0  0  0  0
  2  1  1  0  0  0  0
  3  2  1  6  0  0  0
  3 30  1  0  0  0  0
  4  5  1  0  0  0  0
  4  3  1  0  0  0  0
  5 28  1  0  0  0  0
  5  6  1  6  0  0  0
  7  6  1  1  0  0  0
  8  7  1  0  0  0  0
  8  9  1  6  0  0  0
 10 11  1  1  0  0  0
 10  8  1  0  0  0  0
 12 10  1  0  0  0  0
 13 12  1  0  0  0  0
 13 15  1  0  0  0  0
 13 14  1  1  0  0  0
 15  7  1  0  0  0  0
 15 16  1  6  0  0  0
 17 16  1  6  0  0  0
 18 17  1  0  0  0  0
 19 20  1  1  0  0  0
 19 18  1  0  0  0  0
 20 21  1  0  0  0  0
 22 24  1  0  0  0  0
 22 19  1  0  0  0  0
 22 23  1  6  0  0  0
 24 25  1  1  0  0  0
 24 26  1  0  0  0  0
 26 17  1  0  0  0  0
 26 27  1  6  0  0  0
 28 29  1  1  0  0  0
 28 30  1  0  0  0  0
 30 31  1  1  0  0  0
M  END
>  <CHROM.1>
-55.10084260,-179.55320473,-58.60185042,70.95389680,-168.13392550,70.87500809
15.02622167,133.32833921,81.45147541,-56.85746852,49.56401355,-56.13785671
-55.21697799,155.67114932,-173.78107390,-179.45026637,-0.44060231,3.97053484
3.27246585,2.89049548,-0.72266709,-2.88070047

>  <Name>
lig.pdb

>  <RI>
2.67765e+07

>  <Rbt.Current_Directory>
/home/itssahil/PROJECTS/Mol_Feturizer/New_Systems/rnas/2n0j

>  <Rbt.Executable>
rbdock ($Id: //depot/dev/client3/rdock/2013.1/src/exe/rbdock.cxx#4 $)

>  <Rbt.Library>
libRbt.so (2013.1, Build901 2013/11/27)

>  <Rbt.Parameter_File>
/export/apps/rDock/src/rDock_2013.1_src/data/scripts/dock_solv.prm

>  <Rbt.Receptor>
prm/pocket_docking_2.prm

>  <SCORE>
-22.9469

>  <SCORE.INTER>
-25.0741

>  <SCORE.INTER.CONST>
1

>  <SCORE.INTER.POLAR>
-2.65399

>  <SCORE.INTER.ROT>
6

>  <SCORE.INTER.SOLV>
11.7388

>  <SCORE.INTER.VDW>
-19.3823

>  <SCORE.INTER.norm>
-0.80884

>  <SCORE.INTRA>
1.1887

>  <SCORE.INTRA.DIHEDRAL>
-12.5837

>  <SCORE.INTRA.DIHEDRAL.0>
28.0161

>  <SCORE.INTRA.POLAR>
0.57548

>  <SCORE.INTRA.POLAR.0>
-1.05798

>  <SCORE.INTRA.REPUL>
0

>  <SCORE.INTRA.REPUL.0>
0

>  <SCORE.INTRA.SOLV>
1.01584

>  <SCORE.INTRA.SOLV.lig_0>
-42.5945

>  <SCORE.INTRA.VDW>
5.01599

>  <SCORE.INTRA.VDW.0>
-5.13869

>  <SCORE.INTRA.norm>
0.0383452

>  <SCORE.RESTR>
0.938435

>  <SCORE.RESTR.CAVITY>
0.938435

>  <SCORE.RESTR.norm>
0.0302721

>  <SCORE.SYSTEM>
0

>  <SCORE.SYSTEM.CONST>
0

>  <SCORE.SYSTEM.DIHEDRAL>
0

>  <SCORE.SYSTEM.SOLV>
0

>  <SCORE.SYSTEM.norm>
0

>  <SCORE.heavy>
31

>  <SCORE.norm>
-0.740223

>  <RMSD>
2.437

$$$$
lig.pdb
 OpenBabel11021811453D
libRbt.so/2013.1/901 2013/11/27
 31 33  0  0  0  0  0  0  0  0999 V2000
   -5.9415   -0.1814    5.2467 O   0  0  0  0  0  0  0  0  0  0  0  0
   -5.8617    1.1464    4.7663 C   0  0  0  0  0  0  0  0  0  0  0  0
   -4.4425    1.7117    4.9129 C   0  0  1  0  0  0  0  0  0  0  0  0
   -3.5230    1.0587    4.0521 O   0  0  0  0  0  0  0  0  0  0  0  0
   -2.4391    1.9343    3.7568 C   0  0  1  0  0  0  0  0  0  0  0  0
   -2.1875    1.9359    2.3566 O   0  0  0  0  0  0  0  0  0  0  0  0
   -1.3343    0.9213    1.8513 C   0  0  2  0  0  0  0  0  0  0  0  0
   -1.8635   -0.4299    2.3577 C   0  0  1  0  0  0  0  0  0  0  0  0
   -3.0966   -0.7289    1.7225 O   0  0  0  0  0  0  0  0  0  0  0  0
   -0.9166   -1.6112    2.0965 C   0  0  2  0  0  0  0  0  0  0  0  0
   -1.4410   -2.8501    2.6916 N   0  0  0  0  0  0  0  0  0  0  0  0
    0.4571   -1.3084    2.6834 C   0  0  0  0  0  0  0  0  0  0  0  0
    0.9873   -0.0036    2.1018 C   0  0  2  0  0  0  0  0  0  0  0  0
    2.3305    0.2341    2.6411 N   0  0  0  0  0  0  0  0  0  0  0  0
    0.0251    1.1595    2.4262 C   0  0  1  0  0  0  0  0  0  0  0  0
    0.6281    2.3282    1.8498 O   0  0  0  0  0  0  0  0  0  0  0  0
    1.0607    3.3452    2.7471 C   0  0  1  0  0  0  0  0  0  0  0  0
    2.4813    3.3468    2.8589 O   0  0  0  0  0  0  0  0  0  0  0  0
    3.2042    3.7648    1.7029 C   0  0  2  0  0  0  0  0  0  0  0  0
    4.7069    3.7042    2.0076 C   0  0  0  0  0  0  0  0  0  0  0  0
    5.3675    2.6503    1.2508 N   0  0  0  0  0  0  0  0  0  0  0  0
    2.8109    5.1980    1.2993 C   0  0  1  0  0  0  0  0  0  0  0  0
    3.4974    5.5681    0.1168 O   0  0  0  0  0  0  0  0  0  0  0  0
    1.2966    5.2449    1.0600 C   0  0  2  0  0  0  0  0  0  0  0  0
    0.8902    6.5697    0.7723 O   0  0  0  0  0  0  0  0  0  0  0  0
    0.5380    4.7090    2.2816 C   0  0  1  0  0  0  0  0  0  0  0  0
   -0.9014    4.6399    1.9919 N   0  0  0  0  0  0  0  0  0  0  0  0
   -2.8686    3.3396    4.2029 C   0  0  2  0  0  0  0  0  0  0  0  0
   -2.1363    3.7234    5.3518 O   0  0  0  0  0  0  0  0  0  0  0  0
   -4.3632    3.1694    4.4705 C   0  0  2  0  0  0  0  0  0  0  0  0
   -4.8782    4.0814    5.4203 O   0  0  0  0  0  0  0  0  0  0  0  0
  2  1  1  0  0  0  0
  3  2  1  6  0  0  0
  3 30  1  0  0  0  0
  4  5  1  0  0  0  0
  4  3  1  0  0  0  0
  5 28  1  0  0  0  0
  5  6  1  6  0  0  0
  7  6  1  1  0  0  0
  8  7  1  0  0  0  0
  8  9  1  6  0  0  0
 10 11  1  1  0  0  0
 10  8  1  0  0  0  0
 12 10  1  0  0  0  0
 13 12  1  0  0  0  0
 13 15  1  0  0  0  0
 13 14  1  1  0  0  0
 15  7  1  0  0  0  0
 15 16  1  6  0  0  0
 17 16  1  6  0  0  0
 18 17  1  0  0  0  0
 19 20  1  1  0  0  0
 19 18  1  0  0  0  0
 20 21  1  0  0  0  0
 22 24  1  0  0  0  0
 22 19  1  0  0  0  0
 22 23  1  6  0  0  0
 24 25  1  1  0  0  0
 24 26  1  0  0  0  0
 26 17  1  0  0  0  0
 26 27  1  6  0  0  0
 28 29  1  1  0  0  0
 28 30  1  0  0  0  0
 30 31  1  1  0  0  0
M  END
>  <CHROM.1>
-55.63391252,67.87285080,-85.68881932,51.73800944,-178.77707708,-114.14708934
-134.46409914,124.40268756,105.81702736,111.30762147,-23.48552247,-166.19914550
-178.26991704,22.81950668,-55.42433881,-168.26692128,-0.58361660,2.20818615
2.74495487,2.76221613,-0.38705310,-3.09971467

>  <Name>
lig.pdb

>  <RI>
3.33129e+07

>  <Rbt.Current_Directory>
/home/itssahil/PROJECTS/Mol_Feturizer/New_Systems/rnas/2n0j

>  <Rbt.Executable>
rbdock ($Id: //depot/dev/client3/rdock/2013.1/src/exe/rbdock.cxx#4 $)

>  <Rbt.Library>
libRbt.so (2013.1, Build901 2013/11/27)

>  <Rbt.Parameter_File>
/export/apps/rDock/src/rDock_2013.1_src/data/scripts/dock_solv.prm

>  <Rbt.Receptor>
prm/pocket_docking_4.prm

>  <SCORE>
-33.9673

>  <SCORE.INTER>
-42.0354

>  <SCORE.INTER.CONST>
1

>  <SCORE.INTER.POLAR>
-6.04441

>  <SCORE.INTER.ROT>
6

>  <SCORE.INTER.SOLV>
13.4539

>  <SCORE.INTER.VDW>
-19.9602

>  <SCORE.INTER.norm>
-1.35598

>  <SCORE.INTRA>
8.06819

>  <SCORE.INTRA.DIHEDRAL>
7.20377

>  <SCORE.INTRA.DIHEDRAL.0>
28.0161

>  <SCORE.INTRA.POLAR>
-0.407311

>  <SCORE.INTRA.POLAR.0>
-1.05798

>  <SCORE.INTRA.REPUL>
0

>  <SCORE.INTRA.REPUL.0>
0

>  <SCORE.INTRA.SOLV>
0.62045

>  <SCORE.INTRA.SOLV.lig_0>
-42.5945

>  <SCORE.INTRA.VDW>
5.54094

>  <SCORE.INTRA.VDW.0>
-5.13869

>  <SCORE.INTRA.norm>
0.260264

>  <SCORE.RESTR>
0

>  <SCORE.RESTR.CAVITY>
0

>  <SCORE.RESTR.norm>
0

>  <SCORE.SYSTEM>
0

>  <SCORE.SYSTEM.CONST>
0

>  <SCORE.SYSTEM.DIHEDRAL>
0

>  <SCORE.SYSTEM.SOLV>
0

>  <SCORE.SYSTEM.norm>
0

>  <SCORE.heavy>
31

>  <SCORE.norm>
-1.09572

>  <RMSD>
2.459

$$$$
lig.pdb
 OpenBabel11021811453D
libRbt.so/2013.1/901 2013/11/27
 31 33  0  0  0  0  0  0  0  0999 V2000
   -3.6171    7.8417    5.4568 O   0  0  0  0  0  0  0  0  0  0  0  0
   -2.6649    7.2258    4.6118 C   0  0  0  0  0  0  0  0  0  0  0  0
   -2.9449    5.7255    4.4508 C   0  0  1  0  0  0  0  0  0  0  0  0
   -2.0249    5.1093    3.5637 O   0  0  0  0  0  0  0  0  0  0  0  0
   -1.9053    3.7264    3.8828 C   0  0  1  0  0  0  0  0  0  0  0  0
   -0.5315    3.3618    3.9425 O   0  0  0  0  0  0  0  0  0  0  0  0
   -0.1303    2.2256    3.1936 C   0  0  2  0  0  0  0  0  0  0  0  0
   -0.4990    0.9751    4.0075 C   0  0  1  0  0  0  0  0  0  0  0  0
   -1.9098    0.8283    4.0457 O   0  0  0  0  0  0  0  0  0  0  0  0
    0.0814   -0.3316    3.4456 C   0  0  2  0  0  0  0  0  0  0  0  0
   -0.2295   -1.4690    4.3253 N   0  0  0  0  0  0  0  0  0  0  0  0
    1.5930   -0.2018    3.2994 C   0  0  0  0  0  0  0  0  0  0  0  0
    1.9222    1.0005    2.4230 C   0  0  2  0  0  0  0  0  0  0  0  0
    3.3779    1.0686    2.2548 N   0  0  0  0  0  0  0  0  0  0  0  0
    1.3563    2.2932    3.0493 C   0  0  1  0  0  0  0  0  0  0  0  0
    1.7373    3.3508    2.1561 O   0  0  0  0  0  0  0  0  0  0  0  0
    2.1118    4.5927    2.7426 C   0  0  1  0  0  0  0  0  0  0  0  0
    3.5169    4.6355    2.9763 O   0  0  0  0  0  0  0  0  0  0  0  0
    4.3471    4.6911    1.8182 C   0  0  2  0  0  0  0  0  0  0  0  0
    5.8157    4.7330    2.2611 C   0  0  0  0  0  0  0  0  0  0  0  0
    6.5103    3.4943    1.9401 N   0  0  0  0  0  0  0  0  0  0  0  0
    4.0221    5.9347    0.9700 C   0  0  1  0  0  0  0  0  0  0  0  0
    4.8174    5.9364   -0.2021 O   0  0  0  0  0  0  0  0  0  0  0  0
    2.5359    5.8993    0.5924 C   0  0  2  0  0  0  0  0  0  0  0  0
    2.1853    7.0743   -0.1143 O   0  0  0  0  0  0  0  0  0  0  0  0
    1.6618    5.7508    1.8449 C   0  0  1  0  0  0  0  0  0  0  0  0
    0.2521    5.5901    1.4608 N   0  0  0  0  0  0  0  0  0  0  0  0
   -2.5487    3.5314    5.2635 C   0  0  2  0  0  0  0  0  0  0  0  0
   -3.7671    2.8236    5.1299 O   0  0  0  0  0  0  0  0  0  0  0  0
   -2.7363    4.9652    5.7567 C   0  0  2  0  0  0  0  0  0  0  0  0
   -3.7979    5.1152    6.6785 O   0  0  0  0  0  0  0  0  0  0  0  0
  2  1  1  0  0  0  0
  3  2  1  1  0  0  0
  3 30  1  0  0  0  0
  4  5  1  0  0  0  0
  4  3  1  0  0  0  0
  5 28  1  0  0  0  0
  5  6  1  1  0  0  0
  7  6  1  1  0  0  0
  8  7  1  0  0  0  0
  8  9  1  6  0  0  0
 10 11  1  1  0  0  0
 10  8  1  0  0  0  0
 12 10  1  0  0  0  0
 13 12  1  0  0  0  0
 13 15  1  0  0  0  0
 13 14  1  1  0  0  0
 15  7  1  0  0  0  0
 15 16  1  6  0  0  0
 17 16  1  6  0  0  0
 18 17  1  0  0  0  0
 19 20  1  1  0  0  0
 19 18  1  0  0  0  0
 20 21  1  0  0  0  0
 22 24  1  0  0  0  0
 22 19  1  0  0  0  0
 22 23  1  6  0  0  0
 24 25  1  1  0  0  0
 24 26  1  0  0  0  0
 26 17  1  0  0  0  0
 26 27  1  6  0  0  0
 28 29  1  6  0  0  0
 28 30  1  0  0  0  0
 30 31  1  1  0  0  0
M  END
>  <CHROM.1>
173.49452241,177.73693844,-129.13310304,-80.50854651,61.68049942,-57.58439939
-41.04639736,96.79757294,91.42171069,110.22673648,-174.01631702,177.46355630
-62.07738008,-61.56218456,175.15291079,58.73364877,0.58587469,3.80292725
3.13465849,3.03062458,-0.46705909,2.97748825

>  <Name>
lig.pdb

>  <RI>
2.74555e+07

>  <Rbt.Current_Directory>
/home/itssahil/PROJECTS/Mol_Feturizer/New_Systems/rnas/2n0j

>  <Rbt.Executable>
rbdock ($Id: //depot/dev/client3/rdock/2013.1/src/exe/rbdock.cxx#4 $)

>  <Rbt.Library>
libRbt.so (2013.1, Build901 2013/11/27)

>  <Rbt.Parameter_File>
/export/apps/rDock/src/rDock_2013.1_src/data/scripts/dock_solv.prm

>  <Rbt.Receptor>
prm/pocket_docking_6.prm

>  <SCORE>
-47.6629

>  <SCORE.INTER>
-46.776

>  <SCORE.INTER.CONST>
1

>  <SCORE.INTER.POLAR>
-6.20722

>  <SCORE.INTER.ROT>
6

>  <SCORE.INTER.SOLV>
19.6202

>  <SCORE.INTER.VDW>
-24.6333

>  <SCORE.INTER.norm>
-1.5089

>  <SCORE.INTRA>
-0.886943

>  <SCORE.INTRA.DIHEDRAL>
-4.02768

>  <SCORE.INTRA.DIHEDRAL.0>
28.0161

>  <SCORE.INTRA.POLAR>
0.0901913

>  <SCORE.INTRA.POLAR.0>
-1.05798

>  <SCORE.INTRA.REPUL>
0

>  <SCORE.INTRA.REPUL.0>
0

>  <SCORE.INTRA.SOLV>
1.23195

>  <SCORE.INTRA.SOLV.lig_0>
-42.5945

>  <SCORE.INTRA.VDW>
0.204274

>  <SCORE.INTRA.VDW.0>
-5.13869

>  <SCORE.INTRA.norm>
-0.028611

>  <SCORE.RESTR>
0

>  <SCORE.RESTR.CAVITY>
0

>  <SCORE.RESTR.norm>
0

>  <SCORE.SYSTEM>
0

>  <SCORE.SYSTEM.CONST>
0

>  <SCORE.SYSTEM.DIHEDRAL>
0

>  <SCORE.SYSTEM.SOLV>
0

>  <SCORE.SYSTEM.norm>
0

>  <SCORE.heavy>
31

>  <SCORE.norm>
-1.53751

>  <RMSD>
2.563

$$$$
lig.pdb
 OpenBabel11021811453D
libRbt.so/2013.1/901 2013/11/27
 31 33  0  0  0  0  0  0  0  0999 V2000
   -4.5875    4.4349    5.9159 O   0  0  0  0  0  0  0  0  0  0  0  0
   -5.2897    3.3066    6.3994 C   0  0  0  0  0  0  0  0  0  0  0  0
   -5.1336    2.1034    5.4596 C   0  0  1  0  0  0  0  0  0  0  0  0
   -5.6831    2.3609    4.1771 O   0  0  0  0  0  0  0  0  0  0  0  0
   -5.0290    1.5514    3.2048 C   0  0  1  0  0  0  0  0  0  0  0  0
   -4.6569    2.3470    2.0857 O   0  0  0  0  0  0  0  0  0  0  0  0
   -4.2399    1.6625    0.9150 C   0  0  2  0  0  0  0  0  0  0  0  0
   -5.2159    0.4985    0.6813 C   0  0  1  0  0  0  0  0  0  0  0  0
   -6.4837    1.0073    0.2976 O   0  0  0  0  0  0  0  0  0  0  0  0
   -4.7682   -0.4845   -0.4112 C   0  0  2  0  0  0  0  0  0  0  0  0
   -5.6975   -1.6204   -0.5127 N   0  0  0  0  0  0  0  0  0  0  0  0
   -3.3690   -1.0003   -0.0967 C   0  0  0  0  0  0  0  0  0  0  0  0
   -2.4101    0.1748    0.0511 C   0  0  2  0  0  0  0  0  0  0  0  0
   -1.0637   -0.3520    0.2985 N   0  0  0  0  0  0  0  0  0  0  0  0
   -2.8775    1.1100    1.1872 C   0  0  1  0  0  0  0  0  0  0  0  0
   -1.9004    2.1604    1.2457 O   0  0  0  0  0  0  0  0  0  0  0  0
   -1.6065    2.7031    2.5285 C   0  0  1  0  0  0  0  0  0  0  0  0
   -0.2541    2.4364    2.8900 O   0  0  0  0  0  0  0  0  0  0  0  0
    0.7460    3.1205    2.1381 C   0  0  2  0  0  0  0  0  0  0  0  0
    2.1287    2.7141    2.6651 C   0  0  0  0  0  0  0  0  0  0  0  0
    2.3380    1.2762    2.5745 N   0  0  0  0  0  0  0  0  0  0  0  0
    0.5710    4.6461    2.2541 C   0  0  1  0  0  0  0  0  0  0  0  0
    1.5382    5.3016    1.4532 O   0  0  0  0  0  0  0  0  0  0  0  0
   -0.8391    5.0183    1.7789 C   0  0  2  0  0  0  0  0  0  0  0  0
   -1.0621    6.4047    1.9555 O   0  0  0  0  0  0  0  0  0  0  0  0
   -1.8983    4.2079    2.5381 C   0  0  1  0  0  0  0  0  0  0  0  0
   -3.2333    4.4796    1.9862 N   0  0  0  0  0  0  0  0  0  0  0  0
   -3.7683    0.9844    3.8737 C   0  0  2  0  0  0  0  0  0  0  0  0
   -3.9304   -0.4024    4.1062 O   0  0  0  0  0  0  0  0  0  0  0  0
   -3.6684    1.8030    5.1599 C   0  0  2  0  0  0  0  0  0  0  0  0
   -2.9984    1.1333    6.2095 O   0  0  0  0  0  0  0  0  0  0  0  0
  2  1  1  0  0  0  0
  3  2  1  1  0  0  0
  3 30  1  0  0  0  0
  4  5  1  0  0  0  0
  4  3  1  0  0  0  0
  5 28  1  0  0  0  0
  5  6  1  6  0  0  0
  7  6  1  1  0  0  0
  8  7  1  0  0  0  0
  8  9  1  6  0  0  0
 10 11  1  1  0  0  0
 10  8  1  0  0  0  0
 12 10  1  0  0  0  0
 13 12  1  0  0  0  0
 13 15  1  0  0  0  0
 13 14  1  1  0  0  0
 15  7  1  0  0  0  0
 15 16  1  6  0  0  0
 17 16  1  6  0  0  0
 18 17  1  0  0  0  0
 19 20  1  1  0  0  0
 19 18  1  0  0  0  0
 20 21  1  0  0  0  0
 22 24  1  0  0  0  0
 22 19  1  0  0  0  0
 22 23  1  6  0  0  0
 24 25  1  1  0  0  0
 24 26  1  0  0  0  0
 26 17  1  0  0  0  0
 26 27  1  6  0  0  0
 28 29  1  1  0  0  0
 28 30  1  0  0  0  0
 30 31  1  1  0  0  0
M  END
>  <CHROM.1>
86.55489327,-62.61502222,-167.64210307,44.09477035,-173.82225767,-158.13976492
56.16424480,93.33784037,115.47818231,58.45407606,-17.74625488,-71.12600255
175.68835428,172.16610546,65.01040642,177.04345168,-2.71167519,2.10218845
2.42404484,2.75248191,-0.40654381,-2.25374892

>  <Name>
lig.pdb

>  <RI>
3.32461e+07

>  <Rbt.Current_Directory>
/home/itssahil/PROJECTS/Mol_Feturizer/New_Systems/rnas/2n0j

>  <Rbt.Executable>
rbdock ($Id: //depot/dev/client3/rdock/2013.1/src/exe/rbdock.cxx#4 $)

>  <Rbt.Library>
libRbt.so (2013.1, Build901 2013/11/27)

>  <Rbt.Parameter_File>
/export/apps/rDock/src/rDock_2013.1_src/data/scripts/dock_solv.prm

>  <Rbt.Receptor>
prm/pocket_docking_7.prm

>  <SCORE>
-31.197

>  <SCORE.INTER>
-32.4134

>  <SCORE.INTER.CONST>
1

>  <SCORE.INTER.POLAR>
-4.8038

>  <SCORE.INTER.ROT>
6

>  <SCORE.INTER.SOLV>
11.1405

>  <SCORE.INTER.VDW>
-16.9097

>  <SCORE.INTER.norm>
-1.04559

>  <SCORE.INTRA>
1.21643

>  <SCORE.INTRA.DIHEDRAL>
-6.29952

>  <SCORE.INTRA.DIHEDRAL.0>
28.0161

>  <SCORE.INTRA.POLAR>
0.356601

>  <SCORE.INTRA.POLAR.0>
-1.05798

>  <SCORE.INTRA.REPUL>
0

>  <SCORE.INTRA.REPUL.0>
0

>  <SCORE.INTRA.SOLV>
0.989905

>  <SCORE.INTRA.SOLV.lig_0>
-42.5945

>  <SCORE.INTRA.VDW>
2.65879

>  <SCORE.INTRA.VDW.0>
-5.13869

>  <SCORE.INTRA.norm>
0.0392396

>  <SCORE.RESTR>
0

>  <SCORE.RESTR.CAVITY>
0

>  <SCORE.RESTR.norm>
0

>  <SCORE.SYSTEM>
0

>  <SCORE.SYSTEM.CONST>
0

>  <SCORE.SYSTEM.DIHEDRAL>
0

>  <SCORE.SYSTEM.SOLV>
0

>  <SCORE.SYSTEM.norm>
0

>  <SCORE.heavy>
31

>  <SCORE.norm>
-1.00635

>  <RMSD>
2.740

$$$$
lig.pdb
 OpenBabel11021811453D
libRbt.so/2013.1/901 2013/11/27
 31 33  0  0  0  0  0  0  0  0999 V2000
   -0.8250    1.6046    9.4908 O   0  0  0  0  0  0  0  0  0  0  0  0
    0.3523    1.2450    8.7944 C   0  0  0  0  0  0  0  0  0  0  0  0
    0.0575    0.2325    7.6794 C   0  0  1  0  0  0  0  0  0  0  0  0
   -0.7852    0.7807    6.6783 O   0  0  0  0  0  0  0  0  0  0  0  0
   -0.5583    0.1105    5.4421 C   0  0  1  0  0  0  0  0  0  0  0  0
   -0.4013    1.0639    4.3980 O   0  0  0  0  0  0  0  0  0  0  0  0
   -0.7941    0.6662    3.0940 C   0  0  2  0  0  0  0  0  0  0  0  0
   -0.6133   -0.8569    2.9953 C   0  0  1  0  0  0  0  0  0  0  0  0
   -1.5754   -1.5064    3.8113 O   0  0  0  0  0  0  0  0  0  0  0  0
   -0.7691   -1.4152    1.5726 C   0  0  2  0  0  0  0  0  0  0  0  0
   -0.4881   -2.8588    1.5380 N   0  0  0  0  0  0  0  0  0  0  0  0
    0.1832   -0.6904    0.6287 C   0  0  0  0  0  0  0  0  0  0  0  0
   -0.0752    0.8101    0.6919 C   0  0  2  0  0  0  0  0  0  0  0  0
    0.8156    1.4760   -0.2646 N   0  0  0  0  0  0  0  0  0  0  0  0
    0.1350    1.3315    2.1298 C   0  0  1  0  0  0  0  0  0  0  0  0
   -0.1168    2.7436    2.0664 O   0  0  0  0  0  0  0  0  0  0  0  0
    0.5558    3.5662    3.0138 C   0  0  1  0  0  0  0  0  0  0  0  0
    1.9649    3.5247    2.8058 O   0  0  0  0  0  0  0  0  0  0  0  0
    2.4445    4.1422    1.6132 C   0  0  2  0  0  0  0  0  0  0  0  0
    3.9717    4.0020    1.5605 C   0  0  0  0  0  0  0  0  0  0  0  0
    4.3815    2.6077    1.4719 N   0  0  0  0  0  0  0  0  0  0  0  0
    2.0554    5.6317    1.5727 C   0  0  1  0  0  0  0  0  0  0  0  0
    2.4913    6.2077    0.3542 O   0  0  0  0  0  0  0  0  0  0  0  0
    0.5303    5.7463    1.6882 C   0  0  2  0  0  0  0  0  0  0  0  0
    0.1473    7.1077    1.7422 O   0  0  0  0  0  0  0  0  0  0  0  0
    0.0233    5.0012    2.9303 C   0  0  1  0  0  0  0  0  0  0  0  0
   -1.4462    5.0103    2.9598 N   0  0  0  0  0  0  0  0  0  0  0  0
    0.7405   -0.6927    5.6037 C   0  0  2  0  0  0  0  0  0  0  0  0
    0.4457   -2.0760    5.6600 O   0  0  0  0  0  0  0  0  0  0  0  0
    1.3180   -0.1465    6.9085 C   0  0  2  0  0  0  0  0  0  0  0  0
    2.1483   -1.0649    7.5913 O   0  0  0  0  0  0  0  0  0  0  0  0
  2  1  1  0  0  0  0
  3  2  1  1  0  0  0
  3 30  1  0  0  0  0
  4  5  1  0  0  0  0
  4  3  1  0  0  0  0
  5 28  1  0  0  0  0
  5  6  1  6  0  0  0
  7  6  1  1  0  0  0
  8  7  1  0  0  0  0
  8  9  1  1  0  0  0
 10 11  1  1  0  0  0
 10  8  1  0  0  0  0
 12 10  1  0  0  0  0
 13 12  1  0  0  0  0
 13 15  1  0  0  0  0
 13 14  1  6  0  0  0
 15  7  1  0  0  0  0
 15 16  1  6  0  0  0
 17 16  1  6  0  0  0
 18 17  1  0  0  0  0
 19 20  1  1  0  0  0
 19 18  1  0  0  0  0
 20 21  1  0  0  0  0
 22 24  1  0  0  0  0
 22 19  1  0  0  0  0
 22 23  1  6  0  0  0
 24 25  1  1  0  0  0
 24 26  1  0  0  0  0
 26 17  1  0  0  0  0
 26 27  1  6  0  0  0
 28 29  1  1  0  0  0
 28 30  1  0  0  0  0
 30 31  1  1  0  0  0
M  END
>  <CHROM.1>
-54.67656532,63.82517708,-150.79445940,-28.81103593,-177.17591345,132.04148897
65.94401980,87.14806690,64.63630367,63.74487300,-146.60293385,-172.10526519
-52.92653610,-164.15677436,77.37574948,162.46610637,0.53147011,1.71698674
3.49506495,-2.78219555,-1.35243076,-1.94454794

>  <Name>
lig.pdb

>  <RI>
1.79691e+07

>  <Rbt.Current_Directory>
/home/itssahil/PROJECTS/Mol_Feturizer/New_Systems/rnas/2n0j

>  <Rbt.Executable>
rbdock ($Id: //depot/dev/client3/rdock/2013.1/src/exe/rbdock.cxx#4 $)

>  <Rbt.Library>
libRbt.so (2013.1, Build901 2013/11/27)

>  <Rbt.Parameter_File>
/export/apps/rDock/src/rDock_2013.1_src/data/scripts/dock_solv.prm

>  <Rbt.Receptor>
prm/blind_docking_20.prm

>  <SCORE>
-18.2674

>  <SCORE.INTER>
-31.1877

>  <SCORE.INTER.CONST>
1

>  <SCORE.INTER.POLAR>
-4.62341

>  <SCORE.INTER.ROT>
6

>  <SCORE.INTER.SOLV>
19.7184

>  <SCORE.INTER.VDW>
-19.5533

>  <SCORE.INTER.norm>
-1.00605

>  <SCORE.INTRA>
8.88852

>  <SCORE.INTRA.DIHEDRAL>
-7.60058

>  <SCORE.INTRA.DIHEDRAL.0>
28.0161

>  <SCORE.INTRA.POLAR>
0.941647

>  <SCORE.INTRA.POLAR.0>
-1.05798

>  <SCORE.INTRA.REPUL>
0.11091

>  <SCORE.INTRA.REPUL.0>
0

>  <SCORE.INTRA.SOLV>
0.486781

>  <SCORE.INTRA.SOLV.lig_0>
-42.5945

>  <SCORE.INTRA.VDW>
8.68926

>  <SCORE.INTRA.VDW.0>
-5.13869

>  <SCORE.INTRA.norm>
0.286726

>  <SCORE.RESTR>
4.03176

>  <SCORE.RESTR.CAVITY>
4.03176

>  <SCORE.RESTR.norm>
0.130057

>  <SCORE.SYSTEM>
0

>  <SCORE.SYSTEM.CONST>
0

>  <SCORE.SYSTEM.DIHEDRAL>
0

>  <SCORE.SYSTEM.SOLV>
0

>  <SCORE.SYSTEM.norm>
0

>  <SCORE.heavy>
31

>  <SCORE.norm>
-0.589272

>  <RMSD>
2.841

$$$$
lig.pdb
 OpenBabel11021811453D
libRbt.so/2013.1/901 2013/11/27
 31 33  0  0  0  0  0  0  0  0999 V2000
   -4.7599    3.8244    1.7969 O   0  0  0  0  0  0  0  0  0  0  0  0
   -4.2408    4.5481    2.8956 C   0  0  0  0  0  0  0  0  0  0  0  0
   -3.6500    3.6099    3.9567 C   0  0  1  0  0  0  0  0  0  0  0  0
   -2.5212    2.9036    3.4668 O   0  0  0  0  0  0  0  0  0  0  0  0
   -1.6722    2.5457    4.5530 C   0  0  1  0  0  0  0  0  0  0  0  0
   -0.3249    2.8812    4.2434 O   0  0  0  0  0  0  0  0  0  0  0  0
    0.3165    2.1182    3.2338 C   0  0  2  0  0  0  0  0  0  0  0  0
    0.6218    0.7304    3.8195 C   0  0  1  0  0  0  0  0  0  0  0  0
   -0.5890    0.0165    4.0137 O   0  0  0  0  0  0  0  0  0  0  0  0
    1.5274   -0.1382    2.9332 C   0  0  2  0  0  0  0  0  0  0  0  0
    1.8553   -1.4089    3.5980 N   0  0  0  0  0  0  0  0  0  0  0  0
    2.8137    0.6159    2.6175 C   0  0  0  0  0  0  0  0  0  0  0  0
    2.4785    1.9523    1.9666 C   0  0  2  0  0  0  0  0  0  0  0  0
    3.7333    2.6307    1.6245 N   0  0  0  0  0  0  0  0  0  0  0  0
    1.6043    2.8056    2.9107 C   0  0  1  0  0  0  0  0  0  0  0  0
    1.3671    4.0347    2.2074 O   0  0  0  0  0  0  0  0  0  0  0  0
    1.6449    5.2450    2.9035 C   0  0  1  0  0  0  0  0  0  0  0  0
    3.0393    5.5365    2.8695 O   0  0  0  0  0  0  0  0  0  0  0  0
    3.5774    5.8964    1.5989 C   0  0  2  0  0  0  0  0  0  0  0  0
    5.0784    6.1740    1.7554 C   0  0  0  0  0  0  0  0  0  0  0  0
    5.6688    5.3625    2.8102 N   0  0  0  0  0  0  0  0  0  0  0  0
    2.8713    7.1451    1.0386 C   0  0  1  0  0  0  0  0  0  0  0  0
    3.3818    7.4475   -0.2476 O   0  0  0  0  0  0  0  0  0  0  0  0
    1.3664    6.8624    0.9496 C   0  0  2  0  0  0  0  0  0  0  0  0
    0.6780    8.0220    0.5202 O   0  0  0  0  0  0  0  0  0  0  0  0
    0.8223    6.3919    2.3052 C   0  0  1  0  0  0  0  0  0  0  0  0
   -0.5893    6.0032    2.1754 N   0  0  0  0  0  0  0  0  0  0  0  0
   -2.1380    3.3603    5.7686 C   0  0  2  0  0  0  0  0  0  0  0  0
   -2.7667    2.5067    6.7064 O   0  0  0  0  0  0  0  0  0  0  0  0
   -3.0918    4.3804    5.1489 C   0  0  2  0  0  0  0  0  0  0  0  0
   -4.0848    4.8458    6.0414 O   0  0  0  0  0  0  0  0  0  0  0  0
  2  1  1  0  0  0  0
  3  2  1  6  0  0  0
  3 30  1  0  0  0  0
  4  5  1  0  0  0  0
  4  3  1  0  0  0  0
  5 28  1  0  0  0  0
  5  6  1  6  0  0  0
  7  6  1  1  0  0  0
  8  7  1  0  0  0  0
  8  9  1  6  0  0  0
 10 11  1  1  0  0  0
 10  8  1  0  0  0  0
 12 10  1  0  0  0  0
 13 12  1  0  0  0  0
 13 15  1  0  0  0  0
 13 14  1  1  0  0  0
 15  7  1  0  0  0  0
 15 16  1  6  0  0  0
 17 16  1  6  0  0  0
 18 17  1  0  0  0  0
 19 20  1  1  0  0  0
 19 18  1  0  0  0  0
 20 21  1  0  0  0  0
 22 24  1  0  0  0  0
 22 19  1  0  0  0  0
 22 23  1  6  0  0  0
 24 25  1  1  0  0  0
 24 26  1  0  0  0  0
 26 17  1  0  0  0  0
 26 27  1  6  0  0  0
 28 29  1  1  0  0  0
 28 30  1  0  0  0  0
 30 31  1  1  0  0  0
M  END
>  <CHROM.1>
59.55882177,64.87336158,-69.52615428,-73.08929465,-176.40537548,-173.32386651
-61.83944861,110.44874682,80.59837845,31.06386702,-47.75512563,-64.65669771
-179.68833452,100.85742707,178.54791423,-53.57194820,0.43680970,3.83788899
2.97384626,2.62074935,-0.30032929,2.81751144

>  <Name>
lig.pdb

>  <RI>
0

>  <Rbt.Current_Directory>
/home/itssahil/PROJECTS/Mol_Feturizer/New_Systems/rnas/2n0j

>  <Rbt.Executable>
rbdock ($Id: //depot/dev/client3/rdock/2013.1/src/exe/rbdock.cxx#4 $)

>  <Rbt.Library>
libRbt.so (2013.1, Build901 2013/11/27)

>  <Rbt.Parameter_File>
/export/apps/rDock/src/rDock_2013.1_src/data/scripts/dock_solv.prm

>  <Rbt.Receptor>
prm/pocket_docking_5.prm

>  <SCORE>
-43.196

>  <SCORE.INTER>
-42.6893

>  <SCORE.INTER.CONST>
1

>  <SCORE.INTER.POLAR>
-5.19368

>  <SCORE.INTER.ROT>
6

>  <SCORE.INTER.SOLV>
16.5652

>  <SCORE.INTER.VDW>
-24.269

>  <SCORE.INTER.norm>
-1.37707

>  <SCORE.INTRA>
-0.50669

>  <SCORE.INTRA.DIHEDRAL>
-11.5464

>  <SCORE.INTRA.DIHEDRAL.0>
28.0161

>  <SCORE.INTRA.POLAR>
0.869324

>  <SCORE.INTRA.POLAR.0>
-1.05798

>  <SCORE.INTRA.REPUL>
0.00542503

>  <SCORE.INTRA.REPUL.0>
0

>  <SCORE.INTRA.SOLV>
-0.328827

>  <SCORE.INTRA.SOLV.lig_0>
-42.5945

>  <SCORE.INTRA.VDW>
2.44811

>  <SCORE.INTRA.VDW.0>
-5.13869

>  <SCORE.INTRA.norm>
-0.0163448

>  <SCORE.RESTR>
0

>  <SCORE.RESTR.CAVITY>
0

>  <SCORE.RESTR.norm>
0

>  <SCORE.SYSTEM>
0

>  <SCORE.SYSTEM.CONST>
0

>  <SCORE.SYSTEM.DIHEDRAL>
0

>  <SCORE.SYSTEM.SOLV>
0

>  <SCORE.SYSTEM.norm>
0

>  <SCORE.heavy>
31

>  <SCORE.norm>
-1.39342

>  <RMSD>
2.850

$$$$
lig.pdb
 OpenBabel11021811453D
libRbt.so/2013.1/901 2013/11/27
 31 33  0  0  0  0  0  0  0  0999 V2000
   -4.9042    4.6525    5.8418 O   0  0  0  0  0  0  0  0  0  0  0  0
   -3.7774    4.6985    4.9885 C   0  0  0  0  0  0  0  0  0  0  0  0
   -3.1793    3.3017    4.7730 C   0  0  1  0  0  0  0  0  0  0  0  0
   -2.2577    3.2830    3.6944 O   0  0  0  0  0  0  0  0  0  0  0  0
   -1.3164    2.2316    3.8874 C   0  0  1  0  0  0  0  0  0  0  0  0
    0.0028    2.7199    3.6752 O   0  0  0  0  0  0  0  0  0  0  0  0
    0.8286    1.9872    2.7841 C   0  0  2  0  0  0  0  0  0  0  0  0
    0.9815    0.5663    3.3497 C   0  0  1  0  0  0  0  0  0  0  0  0
   -0.2548   -0.1231    3.2511 O   0  0  0  0  0  0  0  0  0  0  0  0
    2.0380   -0.2846    2.6287 C   0  0  2  0  0  0  0  0  0  0  0  0
    2.1984   -1.5928    3.2821 N   0  0  0  0  0  0  0  0  0  0  0  0
    3.3742    0.4485    2.6262 C   0  0  0  0  0  0  0  0  0  0  0  0
    3.2049    1.8219    1.9881 C   0  0  2  0  0  0  0  0  0  0  0  0
    4.5145    2.4815    1.9496 N   0  0  0  0  0  0  0  0  0  0  0  0
    2.1667    2.6540    2.7714 C   0  0  1  0  0  0  0  0  0  0  0  0
    2.1023    3.9200    2.0971 O   0  0  0  0  0  0  0  0  0  0  0  0
    2.6575    5.0439    2.7718 C   0  0  1  0  0  0  0  0  0  0  0  0
    3.8604    5.4684    2.1367 O   0  0  0  0  0  0  0  0  0  0  0  0
    3.7188    6.0492    0.8421 C   0  0  2  0  0  0  0  0  0  0  0  0
    5.1066    6.4440    0.3199 C   0  0  0  0  0  0  0  0  0  0  0  0
    5.0407    6.9795   -1.0324 N   0  0  0  0  0  0  0  0  0  0  0  0
    2.8086    7.2904    0.8949 C   0  0  1  0  0  0  0  0  0  0  0  0
    2.6363    7.8140   -0.4100 O   0  0  0  0  0  0  0  0  0  0  0  0
    1.4497    6.8810    1.4766 C   0  0  2  0  0  0  0  0  0  0  0  0
    0.6192    8.0179    1.6199 O   0  0  0  0  0  0  0  0  0  0  0  0
    1.6287    6.1788    2.8294 C   0  0  1  0  0  0  0  0  0  0  0  0
    0.3341    5.6794    3.3143 N   0  0  0  0  0  0  0  0  0  0  0  0
   -1.4632    1.7650    5.3431 C   0  0  2  0  0  0  0  0  0  0  0  0
   -2.0624    0.4831    5.3783 O   0  0  0  0  0  0  0  0  0  0  0  0
   -2.3362    2.8549    5.9631 C   0  0  2  0  0  0  0  0  0  0  0  0
   -3.0998    2.4121    7.0676 O   0  0  0  0  0  0  0  0  0  0  0  0
  2  1  1  0  0  0  0
  3  2  1  1  0  0  0
  3 30  1  0  0  0  0
  4  5  1  0  0  0  0
  4  3  1  0  0  0  0
  5 28  1  0  0  0  0
  5  6  1  1  0  0  0
  7  6  1  1  0  0  0
  8  7  1  0  0  0  0
  8  9  1  6  0  0  0
 10 11  1  1  0  0  0
 10  8  1  0  0  0  0
 12 10  1  0  0  0  0
 13 12  1  0  0  0  0
 13 15  1  0  0  0  0
 13 14  1  1  0  0  0
 15  7  1  0  0  0  0
 15 16  1  6  0  0  0
 17 16  1  6  0  0  0
 18 17  1  0  0  0  0
 19 20  1  1  0  0  0
 19 18  1  0  0  0  0
 20 21  1  0  0  0  0
 22 24  1  0  0  0  0
 22 19  1  0  0  0  0
 22 23  1  6  0  0  0
 24 25  1  1  0  0  0
 24 26  1  0  0  0  0
 26 17  1  0  0  0  0
 26 27  1  6  0  0  0
 28 29  1  6  0  0  0
 28 30  1  0  0  0  0
 30 31  1  1  0  0  0
M  END
>  <CHROM.1>
-166.80187823,166.42001750,-128.93147598,-60.39589440,59.82125478,60.04631660
101.03689692,129.99270133,109.14283603,176.92546652,-73.30551968,-178.40506340
176.64667191,134.18517277,53.05301531,63.97303317,0.83016725,3.62903660,2.96816518
2.49173127,-0.50842563,2.89503423

>  <Name>
lig.pdb

>  <RI>
3.33129e+07

>  <Rbt.Current_Directory>
/home/itssahil/PROJECTS/Mol_Feturizer/New_Systems/rnas/2n0j

>  <Rbt.Executable>
rbdock ($Id: //depot/dev/client3/rdock/2013.1/src/exe/rbdock.cxx#4 $)

>  <Rbt.Library>
libRbt.so (2013.1, Build901 2013/11/27)

>  <Rbt.Parameter_File>
/export/apps/rDock/src/rDock_2013.1_src/data/scripts/dock_solv.prm

>  <Rbt.Receptor>
prm/pocket_docking_4.prm

>  <SCORE>
-40.8966

>  <SCORE.INTER>
-38.2053

>  <SCORE.INTER.CONST>
1

>  <SCORE.INTER.POLAR>
-4.35449

>  <SCORE.INTER.ROT>
6

>  <SCORE.INTER.SOLV>
15.6368

>  <SCORE.INTER.VDW>
-23.7675

>  <SCORE.INTER.norm>
-1.23243

>  <SCORE.INTRA>
-2.89812

>  <SCORE.INTRA.DIHEDRAL>
0.553439

>  <SCORE.INTRA.DIHEDRAL.0>
28.0161

>  <SCORE.INTRA.POLAR>
-2.26515

>  <SCORE.INTRA.POLAR.0>
-1.05798

>  <SCORE.INTRA.REPUL>
0

>  <SCORE.INTRA.REPUL.0>
0

>  <SCORE.INTRA.SOLV>
1.86618

>  <SCORE.INTRA.SOLV.lig_0>
-42.5945

>  <SCORE.INTRA.VDW>
3.59357

>  <SCORE.INTRA.VDW.0>
-5.13869

>  <SCORE.INTRA.norm>
-0.0934877

>  <SCORE.RESTR>
0.20677

>  <SCORE.RESTR.CAVITY>
0.20677

>  <SCORE.RESTR.norm>
0.00666999

>  <SCORE.SYSTEM>
0

>  <SCORE.SYSTEM.CONST>
0

>  <SCORE.SYSTEM.DIHEDRAL>
0

>  <SCORE.SYSTEM.SOLV>
0

>  <SCORE.SYSTEM.norm>
0

>  <SCORE.heavy>
31

>  <SCORE.norm>
-1.31925

>  <RMSD>
2.916

$$$$
lig.pdb
 OpenBabel11021811453D
libRbt.so/2013.1/901 2013/11/27
 31 33  0  0  0  0  0  0  0  0999 V2000
   -3.1144    2.9938    9.1943 O   0  0  0  0  0  0  0  0  0  0  0  0
   -3.3956    2.9663    7.8085 C   0  0  0  0  0  0  0  0  0  0  0  0
   -2.9476    1.6441    7.1712 C   0  0  1  0  0  0  0  0  0  0  0  0
   -3.3238    1.5625    5.8056 O   0  0  0  0  0  0  0  0  0  0  0  0
   -2.4324    0.6926    5.1148 C   0  0  1  0  0  0  0  0  0  0  0  0
   -1.9981    1.3064    3.9071 O   0  0  0  0  0  0  0  0  0  0  0  0
   -1.4100    0.4645    2.9283 C   0  0  2  0  0  0  0  0  0  0  0  0
   -2.2355   -0.8306    2.8684 C   0  0  1  0  0  0  0  0  0  0  0  0
   -3.5100   -0.5595    2.3066 O   0  0  0  0  0  0  0  0  0  0  0  0
   -1.5931   -1.9446    2.0279 C   0  0  2  0  0  0  0  0  0  0  0  0
   -2.3871   -3.1812    2.0948 N   0  0  0  0  0  0  0  0  0  0  0  0
   -0.1815   -2.2201    2.5324 C   0  0  0  0  0  0  0  0  0  0  0  0
    0.6335   -0.9329    2.5050 C   0  0  2  0  0  0  0  0  0  0  0  0
    1.9999   -1.2383    2.9425 N   0  0  0  0  0  0  0  0  0  0  0  0
   -0.0274    0.1407    3.3963 C   0  0  1  0  0  0  0  0  0  0  0  0
    0.8266    1.2915    3.3078 O   0  0  0  0  0  0  0  0  0  0  0  0
    0.8383    1.9979    2.0718 C   0  0  1  0  0  0  0  0  0  0  0  0
   -0.2446    2.9222    2.0102 O   0  0  0  0  0  0  0  0  0  0  0  0
   -0.1700    4.0402    2.8921 C   0  0  2  0  0  0  0  0  0  0  0  0
   -1.4105    4.9196    2.6858 C   0  0  0  0  0  0  0  0  0  0  0  0
   -1.6041    5.2565    1.2826 N   0  0  0  0  0  0  0  0  0  0  0  0
    1.1038    4.8639    2.6263 C   0  0  1  0  0  0  0  0  0  0  0  0
    1.1846    5.9333    3.5518 O   0  0  0  0  0  0  0  0  0  0  0  0
    2.3243    3.9478    2.7793 C   0  0  2  0  0  0  0  0  0  0  0  0
    3.5070    4.6544    2.4553 O   0  0  0  0  0  0  0  0  0  0  0  0
    2.1852    2.7062    1.8881 C   0  0  1  0  0  0  0  0  0  0  0  0
    3.2966    1.7775    2.1387 N   0  0  0  0  0  0  0  0  0  0  0  0
   -1.2266    0.4665    6.0385 C   0  0  2  0  0  0  0  0  0  0  0  0
   -1.2456   -0.8579    6.5375 O   0  0  0  0  0  0  0  0  0  0  0  0
   -1.4278    1.5221    7.1246 C   0  0  2  0  0  0  0  0  0  0  0  0
   -0.8459    1.1783    8.3665 O   0  0  0  0  0  0  0  0  0  0  0  0
  2  1  1  0  0  0  0
  3  2  1  6  0  0  0
  3 30  1  0  0  0  0
  4  5  1  0  0  0  0
  4  3  1  0  0  0  0
  5 28  1  0  0  0  0
  5  6  1  6  0  0  0
  7  6  1  1  0  0  0
  8  7  1  0  0  0  0
  8  9  1  6  0  0  0
 10 11  1  1  0  0  0
 10  8  1  0  0  0  0
 12 10  1  0  0  0  0
 13 12  1  0  0  0  0
 13 15  1  0  0  0  0
 13 14  1  1  0  0  0
 15  7  1  0  0  0  0
 15 16  1  6  0  0  0
 17 16  1  1  0  0  0
 18 17  1  0  0  0  0
 19 20  1  6  0  0  0
 19 18  1  0  0  0  0
 20 21  1  0  0  0  0
 22 24  1  0  0  0  0
 22 19  1  0  0  0  0
 22 23  1  1  0  0  0
 24 25  1  6  0  0  0
 24 26  1  0  0  0  0
 26 17  1  0  0  0  0
 26 27  1  1  0  0  0
 28 29  1  1  0  0  0
 28 30  1  0  0  0  0
 30 31  1  1  0  0  0
M  END
>  <CHROM.1>
-57.75352673,175.17911412,-163.28981009,41.66498866,-59.35103498,-50.40124514
-55.31890551,-49.98028303,83.75786184,-51.99173867,-154.56379259,-58.85532277
70.81808243,-66.26198240,65.64465653,-176.60481383,-0.59868480,1.54350354
3.90043495,2.90527187,-0.88522670,-2.68514642

>  <Name>
lig.pdb

>  <RI>
2.74555e+07

>  <Rbt.Current_Directory>
/home/itssahil/PROJECTS/Mol_Feturizer/New_Systems/rnas/2n0j

>  <Rbt.Executable>
rbdock ($Id: //depot/dev/client3/rdock/2013.1/src/exe/rbdock.cxx#4 $)

>  <Rbt.Library>
libRbt.so (2013.1, Build901 2013/11/27)

>  <Rbt.Parameter_File>
/export/apps/rDock/src/rDock_2013.1_src/data/scripts/dock_solv.prm

>  <Rbt.Receptor>
prm/pocket_docking_6.prm

>  <SCORE>
-40.9086

>  <SCORE.INTER>
-39.5643

>  <SCORE.INTER.CONST>
1

>  <SCORE.INTER.POLAR>
-5.24249

>  <SCORE.INTER.ROT>
6

>  <SCORE.INTER.SOLV>
14.3647

>  <SCORE.INTER.VDW>
-21.2895

>  <SCORE.INTER.norm>
-1.27627

>  <SCORE.INTRA>
-1.34436

>  <SCORE.INTRA.DIHEDRAL>
-19.0231

>  <SCORE.INTRA.DIHEDRAL.0>
28.0161

>  <SCORE.INTRA.POLAR>
1.0531

>  <SCORE.INTRA.POLAR.0>
-1.05798

>  <SCORE.INTRA.REPUL>
0

>  <SCORE.INTRA.REPUL.0>
0

>  <SCORE.INTRA.SOLV>
0.75412

>  <SCORE.INTRA.SOLV.lig_0>
-42.5945

>  <SCORE.INTRA.VDW>
4.20957

>  <SCORE.INTRA.VDW.0>
-5.13869

>  <SCORE.INTRA.norm>
-0.0433666

>  <SCORE.RESTR>
0

>  <SCORE.RESTR.CAVITY>
0

>  <SCORE.RESTR.norm>
0

>  <SCORE.SYSTEM>
0

>  <SCORE.SYSTEM.CONST>
0

>  <SCORE.SYSTEM.DIHEDRAL>
0

>  <SCORE.SYSTEM.SOLV>
0

>  <SCORE.SYSTEM.norm>
0

>  <SCORE.heavy>
31

>  <SCORE.norm>
-1.31963

>  <RMSD>
2.981

$$$$
lig.pdb
 OpenBabel11021811453D
libRbt.so/2013.1/901 2013/11/27
 31 33  0  0  0  0  0  0  0  0999 V2000
   -3.8148    3.0067    8.8236 O   0  0  0  0  0  0  0  0  0  0  0  0
   -2.5197    2.4732    9.0185 C   0  0  0  0  0  0  0  0  0  0  0  0
   -2.2621    1.2740    8.0961 C   0  0  1  0  0  0  0  0  0  0  0  0
   -2.2989    1.6441    6.7269 O   0  0  0  0  0  0  0  0  0  0  0  0
   -1.5027    0.7413    5.9655 C   0  0  1  0  0  0  0  0  0  0  0  0
   -0.6493    1.4699    5.0910 O   0  0  0  0  0  0  0  0  0  0  0  0
   -0.5893    1.0416    3.7398 C   0  0  2  0  0  0  0  0  0  0  0  0
    0.0515   -0.3552    3.7201 C   0  0  1  0  0  0  0  0  0  0  0  0
   -0.8391   -1.2979    4.2960 O   0  0  0  0  0  0  0  0  0  0  0  0
    0.4064   -0.8617    2.3139 C   0  0  2  0  0  0  0  0  0  0  0  0
    1.1015   -2.1567    2.3787 N   0  0  0  0  0  0  0  0  0  0  0  0
    1.2956    0.1565    1.6099 C   0  0  0  0  0  0  0  0  0  0  0  0
    0.5980    1.5109    1.5771 C   0  0  2  0  0  0  0  0  0  0  0  0
    1.4506    2.4556    0.8474 N   0  0  0  0  0  0  0  0  0  0  0  0
    0.3008    1.9972    3.0119 C   0  0  1  0  0  0  0  0  0  0  0  0
   -0.3349    3.2756    2.8597 O   0  0  0  0  0  0  0  0  0  0  0  0
   -0.1656    4.2148    3.9160 C   0  0  1  0  0  0  0  0  0  0  0  0
    0.7640    5.2287    3.5438 O   0  0  0  0  0  0  0  0  0  0  0  0
    0.3378    6.1318    2.5258 C   0  0  2  0  0  0  0  0  0  0  0  0
    1.4583    7.1461    2.2604 C   0  0  0  0  0  0  0  0  0  0  0  0
    1.1546    7.9971    1.1187 N   0  0  0  0  0  0  0  0  0  0  0  0
   -0.9450    6.8705    2.9505 C   0  0  1  0  0  0  0  0  0  0  0  0
   -1.3804    7.7166    1.9012 O   0  0  0  0  0  0  0  0  0  0  0  0
   -2.0291    5.8331    3.2684 C   0  0  2  0  0  0  0  0  0  0  0  0
   -3.1947    6.4780    3.7464 O   0  0  0  0  0  0  0  0  0  0  0  0
   -1.5214    4.8176    4.3009 C   0  0  1  0  0  0  0  0  0  0  0  0
   -2.5206    3.7582    4.5008 N   0  0  0  0  0  0  0  0  0  0  0  0
   -0.6530   -0.0550    6.9665 C   0  0  2  0  0  0  0  0  0  0  0  0
   -1.1141   -1.3917    7.0312 O   0  0  0  0  0  0  0  0  0  0  0  0
   -0.8537    0.7148    8.2709 C   0  0  2  0  0  0  0  0  0  0  0  0
   -0.6965   -0.0795    9.4300 O   0  0  0  0  0  0  0  0  0  0  0  0
  2  1  1  0  0  0  0
  3  2  1  1  0  0  0
  3 30  1  0  0  0  0
  4  5  1  0  0  0  0
  4  3  1  0  0  0  0
  5 28  1  0  0  0  0
  5  6  1  6  0  0  0
  7  6  1  1  0  0  0
  8  7  1  0  0  0  0
  8  9  1  6  0  0  0
 10 11  1  1  0  0  0
 10  8  1  0  0  0  0
 12 10  1  0  0  0  0
 13 12  1  0  0  0  0
 13 15  1  0  0  0  0
 13 14  1  1  0  0  0
 15  7  1  0  0  0  0
 15 16  1  6  0  0  0
 17 16  1  6  0  0  0
 18 17  1  0  0  0  0
 19 20  1  1  0  0  0
 19 18  1  0  0  0  0
 20 21  1  0  0  0  0
 22 24  1  0  0  0  0
 22 19  1  0  0  0  0
 22 23  1  6  0  0  0
 24 25  1  1  0  0  0
 24 26  1  0  0  0  0
 26 17  1  0  0  0  0
 26 27  1  6  0  0  0
 28 29  1  1  0  0  0
 28 30  1  0  0  0  0
 30 31  1  1  0  0  0
M  END
>  <CHROM.1>
-64.22019743,63.08465449,-132.85417367,-65.88947193,57.90019836,36.07485518
-58.74691951,87.81547063,104.70260555,173.00738015,48.39219228,164.08496952
70.53098688,47.71459321,59.71573030,-62.00349296,-0.70145138,2.65130785,4.37977297
1.81630300,-1.05070837,2.73660370

>  <Name>
lig.pdb

>  <RI>
3.32461e+07

>  <Rbt.Current_Directory>
/home/itssahil/PROJECTS/Mol_Feturizer/New_Systems/rnas/2n0j

>  <Rbt.Executable>
rbdock ($Id: //depot/dev/client3/rdock/2013.1/src/exe/rbdock.cxx#4 $)

>  <Rbt.Library>
libRbt.so (2013.1, Build901 2013/11/27)

>  <Rbt.Parameter_File>
/export/apps/rDock/src/rDock_2013.1_src/data/scripts/dock_solv.prm

>  <Rbt.Receptor>
prm/pocket_docking_7.prm

>  <SCORE>
-42.3184

>  <SCORE.INTER>
-34.8382

>  <SCORE.INTER.CONST>
1

>  <SCORE.INTER.POLAR>
-3.98303

>  <SCORE.INTER.ROT>
6

>  <SCORE.INTER.SOLV>
15.0129

>  <SCORE.INTER.VDW>
-22.553

>  <SCORE.INTER.norm>
-1.12381

>  <SCORE.INTRA>
-7.48014

>  <SCORE.INTRA.DIHEDRAL>
-7.86247

>  <SCORE.INTRA.DIHEDRAL.0>
28.0161

>  <SCORE.INTRA.POLAR>
-1.91436

>  <SCORE.INTRA.POLAR.0>
-1.05798

>  <SCORE.INTRA.REPUL>
0

>  <SCORE.INTRA.REPUL.0>
0

>  <SCORE.INTRA.SOLV>
1.29771

>  <SCORE.INTRA.SOLV.lig_0>
-42.5945

>  <SCORE.INTRA.VDW>
2.31106

>  <SCORE.INTRA.VDW.0>
-5.13869

>  <SCORE.INTRA.norm>
-0.241295

>  <SCORE.RESTR>
0

>  <SCORE.RESTR.CAVITY>
0

>  <SCORE.RESTR.norm>
0

>  <SCORE.SYSTEM>
0

>  <SCORE.SYSTEM.CONST>
0

>  <SCORE.SYSTEM.DIHEDRAL>
0

>  <SCORE.SYSTEM.SOLV>
0

>  <SCORE.SYSTEM.norm>
0

>  <SCORE.heavy>
31

>  <SCORE.norm>
-1.36511

>  <RMSD>
2.989

$$$$
lig.pdb
 OpenBabel11021811453D
libRbt.so/2013.1/901 2013/11/27
 31 33  0  0  0  0  0  0  0  0999 V2000
   -3.0026    4.9959    2.0424 O   0  0  0  0  0  0  0  0  0  0  0  0
   -3.9783    4.3291    2.8193 C   0  0  0  0  0  0  0  0  0  0  0  0
   -3.3329    3.3651    3.8239 C   0  0  1  0  0  0  0  0  0  0  0  0
   -2.1905    2.7232    3.2800 O   0  0  0  0  0  0  0  0  0  0  0  0
   -1.3069    2.3466    4.3318 C   0  0  1  0  0  0  0  0  0  0  0  0
    0.0210    2.7444    4.0122 O   0  0  0  0  0  0  0  0  0  0  0  0
    0.7301    1.9433    3.0805 C   0  0  2  0  0  0  0  0  0  0  0  0
    0.8856    0.5417    3.6919 C   0  0  1  0  0  0  0  0  0  0  0  0
   -0.3784   -0.1010    3.7417 O   0  0  0  0  0  0  0  0  0  0  0  0
    1.8364   -0.3796    2.9126 C   0  0  2  0  0  0  0  0  0  0  0  0
    2.0120   -1.6653    3.6056 N   0  0  0  0  0  0  0  0  0  0  0  0
    3.1917    0.2987    2.7509 C   0  0  0  0  0  0  0  0  0  0  0  0
    3.0111    1.6504    2.0711 C   0  0  2  0  0  0  0  0  0  0  0  0
    4.3338    2.2549    1.8792 N   0  0  0  0  0  0  0  0  0  0  0  0
    2.0839    2.5549    2.9113 C   0  0  1  0  0  0  0  0  0  0  0  0
    2.0004    3.7937    2.1904 O   0  0  0  0  0  0  0  0  0  0  0  0
    2.5353    4.9509    2.8240 C   0  0  1  0  0  0  0  0  0  0  0  0
    3.8256    5.2588    2.3033 O   0  0  0  0  0  0  0  0  0  0  0  0
    3.8677    5.7192    0.9544 C   0  0  2  0  0  0  0  0  0  0  0  0
    5.3266    5.9999    0.5704 C   0  0  0  0  0  0  0  0  0  0  0  0
    5.9819    6.8649    1.5410 N   0  0  0  0  0  0  0  0  0  0  0  0
    3.0280    6.9991    0.7858 C   0  0  1  0  0  0  0  0  0  0  0  0
    3.0378    7.4031   -0.5719 O   0  0  0  0  0  0  0  0  0  0  0  0
    1.5902    6.7082    1.2335 C   0  0  2  0  0  0  0  0  0  0  0  0
    0.8132    7.8896    1.1732 O   0  0  0  0  0  0  0  0  0  0  0  0
    1.5715    6.1310    2.6553 C   0  0  1  0  0  0  0  0  0  0  0  0
    0.2036    5.7384    3.0230 N   0  0  0  0  0  0  0  0  0  0  0  0
   -1.7755    3.0873    5.5927 C   0  0  2  0  0  0  0  0  0  0  0  0
   -2.3541    2.1694    6.5017 O   0  0  0  0  0  0  0  0  0  0  0  0
   -2.7773    4.0997    5.0398 C   0  0  2  0  0  0  0  0  0  0  0  0
   -3.7672    4.4875    5.9720 O   0  0  0  0  0  0  0  0  0  0  0  0
  2  1  1  0  0  0  0
  3  2  1  6  0  0  0
  3 30  1  0  0  0  0
  4  5  1  0  0  0  0
  4  3  1  0  0  0  0
  5 28  1  0  0  0  0
  5  6  1  6  0  0  0
  7  6  1  1  0  0  0
  8  7  1  0  0  0  0
  8  9  1  6  0  0  0
 10 11  1  1  0  0  0
 10  8  1  0  0  0  0
 12 10  1  0  0  0  0
 13 12  1  0  0  0  0
 13 15  1  0  0  0  0
 13 14  1  1  0  0  0
 15  7  1  0  0  0  0
 15 16  1  6  0  0  0
 17 16  1  6  0  0  0
 18 17  1  0  0  0  0
 19 20  1  1  0  0  0
 19 18  1  0  0  0  0
 20 21  1  0  0  0  0
 22 24  1  0  0  0  0
 22 19  1  0  0  0  0
 22 23  1  6  0  0  0
 24 25  1  1  0  0  0
 24 26  1  0  0  0  0
 26 17  1  0  0  0  0
 26 27  1  6  0  0  0
 28 29  1  1  0  0  0
 28 30  1  0  0  0  0
 30 31  1  1  0  0  0
M  END
>  <CHROM.1>
91.10507138,-37.14212939,-77.55528289,-62.70988945,58.10743929,-54.91610342
-6.30717748,123.55306092,100.80598104,-51.66098019,171.47710396,-63.06271211
142.56497725,-124.17906958,-176.71094299,-177.06278175,0.86258831,3.72984490
2.86296129,2.52728455,-0.35973723,2.84877218

>  <Name>
lig.pdb

>  <RI>
0

>  <Rbt.Current_Directory>
/home/itssahil/PROJECTS/Mol_Feturizer/New_Systems/rnas/2n0j

>  <Rbt.Executable>
rbdock ($Id: //depot/dev/client3/rdock/2013.1/src/exe/rbdock.cxx#4 $)

>  <Rbt.Library>
libRbt.so (2013.1, Build901 2013/11/27)

>  <Rbt.Parameter_File>
/export/apps/rDock/src/rDock_2013.1_src/data/scripts/dock_solv.prm

>  <Rbt.Receptor>
prm/pocket_docking_8.prm

>  <SCORE>
-42.615

>  <SCORE.INTER>
-45.9519

>  <SCORE.INTER.CONST>
1

>  <SCORE.INTER.POLAR>
-5.91901

>  <SCORE.INTER.ROT>
6

>  <SCORE.INTER.SOLV>
16.4014

>  <SCORE.INTER.VDW>
-23.9717

>  <SCORE.INTER.norm>
-1.48232

>  <SCORE.INTRA>
3.3369

>  <SCORE.INTRA.DIHEDRAL>
4.50085

>  <SCORE.INTRA.DIHEDRAL.0>
28.0161

>  <SCORE.INTRA.POLAR>
-0.636388

>  <SCORE.INTRA.POLAR.0>
-1.05798

>  <SCORE.INTRA.REPUL>
0

>  <SCORE.INTRA.REPUL.0>
0

>  <SCORE.INTRA.SOLV>
1.20024

>  <SCORE.INTRA.SOLV.lig_0>
-42.5945

>  <SCORE.INTRA.VDW>
2.65007

>  <SCORE.INTRA.VDW.0>
-5.13869

>  <SCORE.INTRA.norm>
0.107642

>  <SCORE.RESTR>
0

>  <SCORE.RESTR.CAVITY>
0

>  <SCORE.RESTR.norm>
0

>  <SCORE.SYSTEM>
0

>  <SCORE.SYSTEM.CONST>
0

>  <SCORE.SYSTEM.DIHEDRAL>
0

>  <SCORE.SYSTEM.SOLV>
0

>  <SCORE.SYSTEM.norm>
0

>  <SCORE.heavy>
31

>  <SCORE.norm>
-1.37468

>  <RMSD>
3.046

$$$$
lig.pdb
 OpenBabel11021811453D
libRbt.so/2013.1/901 2013/11/27
 31 33  0  0  0  0  0  0  0  0999 V2000
   -2.1041    1.5285    7.4669 O   0  0  0  0  0  0  0  0  0  0  0  0
   -2.1351    0.1484    7.7746 C   0  0  0  0  0  0  0  0  0  0  0  0
   -0.8886   -0.5728    7.2441 C   0  0  1  0  0  0  0  0  0  0  0  0
   -0.8728   -0.6253    5.8264 O   0  0  0  0  0  0  0  0  0  0  0  0
    0.4716   -0.7224    5.3660 C   0  0  1  0  0  0  0  0  0  0  0  0
    0.6930    0.2172    4.3211 O   0  0  0  0  0  0  0  0  0  0  0  0
   -0.1677    0.1480    3.1954 C   0  0  2  0  0  0  0  0  0  0  0  0
   -0.3970   -1.3371    2.8726 C   0  0  1  0  0  0  0  0  0  0  0  0
   -1.1851   -1.9317    3.8918 O   0  0  0  0  0  0  0  0  0  0  0  0
   -1.1149   -1.5842    1.5370 C   0  0  2  0  0  0  0  0  0  0  0  0
   -1.2130   -3.0234    1.2486 N   0  0  0  0  0  0  0  0  0  0  0  0
   -0.3574   -0.8915    0.4104 C   0  0  0  0  0  0  0  0  0  0  0  0
   -0.2159    0.5929    0.7241 C   0  0  2  0  0  0  0  0  0  0  0  0
    0.4670    1.2427   -0.3998 N   0  0  0  0  0  0  0  0  0  0  0  0
    0.5479    0.7913    2.0511 C   0  0  1  0  0  0  0  0  0  0  0  0
    0.6350    2.2127    2.2347 O   0  0  0  0  0  0  0  0  0  0  0  0
    1.6059    2.6895    3.1603 C   0  0  1  0  0  0  0  0  0  0  0  0
    2.9124    2.2636    2.7833 O   0  0  0  0  0  0  0  0  0  0  0  0
    3.4481    2.8472    1.5975 C   0  0  2  0  0  0  0  0  0  0  0  0
    4.8507    2.2754    1.3520 C   0  0  0  0  0  0  0  0  0  0  0  0
    5.6286    3.1223    0.4591 N   0  0  0  0  0  0  0  0  0  0  0  0
    3.5246    4.3798    1.7274 C   0  0  1  0  0  0  0  0  0  0  0  0
    4.0038    4.9398    0.5177 O   0  0  0  0  0  0  0  0  0  0  0  0
    2.1217    4.9195    2.0326 C   0  0  2  0  0  0  0  0  0  0  0  0
    2.1737    6.3179    2.2445 O   0  0  0  0  0  0  0  0  0  0  0  0
    1.5260    4.2170    3.2601 C   0  0  1  0  0  0  0  0  0  0  0  0
    0.1364    4.6502    3.4649 N   0  0  0  0  0  0  0  0  0  0  0  0
    1.3760   -0.3849    6.5603 C   0  0  2  0  0  0  0  0  0  0  0  0
    2.0336   -1.5547    7.0104 O   0  0  0  0  0  0  0  0  0  0  0  0
    0.3923    0.1836    7.5817 C   0  0  2  0  0  0  0  0  0  0  0  0
    0.8103    0.0250    8.9231 O   0  0  0  0  0  0  0  0  0  0  0  0
  2  1  1  0  0  0  0
  3  2  1  6  0  0  0
  3 30  1  0  0  0  0
  4  5  1  0  0  0  0
  4  3  1  0  0  0  0
  5 28  1  0  0  0  0
  5  6  1  6  0  0  0
  7  6  1  1  0  0  0
  8  7  1  0  0  0  0
  8  9  1  1  0  0  0
 10 11  1  6  0  0  0
 10  8  1  0  0  0  0
 12 10  1  0  0  0  0
 13 12  1  0  0  0  0
 13 15  1  0  0  0  0
 13 14  1  6  0  0  0
 15  7  1  0  0  0  0
 15 16  1  1  0  0  0
 17 16  1  6  0  0  0
 18 17  1  0  0  0  0
 19 20  1  1  0  0  0
 19 18  1  0  0  0  0
 20 21  1  0  0  0  0
 22 24  1  0  0  0  0
 22 19  1  0  0  0  0
 22 23  1  6  0  0  0
 24 25  1  1  0  0  0
 24 26  1  0  0  0  0
 26 17  1  0  0  0  0
 26 27  1  6  0  0  0
 28 29  1  1  0  0  0
 28 30  1  0  0  0  0
 30 31  1  1  0  0  0
M  END
>  <CHROM.1>
-65.04510581,-68.44559501,-56.03997760,-40.35881429,-142.77603983,40.25779368
150.41102186,76.78680729,58.49500147,-160.56518543,-27.36518757,-173.86218018
64.19406062,58.78589635,68.41510204,39.96339358,0.94023912,1.21636786,3.49750496
-2.62868955,-0.99828918,-1.80762632

>  <Name>
lig.pdb

>  <RI>
9.20816e+06

>  <Rbt.Current_Directory>
/home/itssahil/PROJECTS/Mol_Feturizer/New_Systems/rnas/2n0j

>  <Rbt.Executable>
rbdock ($Id: //depot/dev/client3/rdock/2013.1/src/exe/rbdock.cxx#4 $)

>  <Rbt.Library>
libRbt.so (2013.1, Build901 2013/11/27)

>  <Rbt.Parameter_File>
/export/apps/rDock/src/rDock_2013.1_src/data/scripts/dock_solv.prm

>  <Rbt.Receptor>
prm/blind_docking_100.prm

>  <SCORE>
-25.1898

>  <SCORE.INTER>
-34.7078

>  <SCORE.INTER.CONST>
1

>  <SCORE.INTER.POLAR>
-4.37923

>  <SCORE.INTER.ROT>
6

>  <SCORE.INTER.SOLV>
20.6937

>  <SCORE.INTER.VDW>
-23.039

>  <SCORE.INTER.norm>
-1.11961

>  <SCORE.INTRA>
6.57007

>  <SCORE.INTRA.DIHEDRAL>
-10.9636

>  <SCORE.INTRA.DIHEDRAL.0>
28.0161

>  <SCORE.INTRA.POLAR>
0.673197

>  <SCORE.INTRA.POLAR.0>
-1.05798

>  <SCORE.INTRA.REPUL>
0.00366644

>  <SCORE.INTRA.REPUL.0>
0

>  <SCORE.INTRA.SOLV>
1.32202

>  <SCORE.INTRA.SOLV.lig_0>
-42.5945

>  <SCORE.INTRA.VDW>
9.08367

>  <SCORE.INTRA.VDW.0>
-5.13869

>  <SCORE.INTRA.norm>
0.211938

>  <SCORE.RESTR>
2.94797

>  <SCORE.RESTR.CAVITY>
2.94797

>  <SCORE.RESTR.norm>
0.0950957

>  <SCORE.SYSTEM>
0

>  <SCORE.SYSTEM.CONST>
0

>  <SCORE.SYSTEM.DIHEDRAL>
0

>  <SCORE.SYSTEM.SOLV>
0

>  <SCORE.SYSTEM.norm>
0

>  <SCORE.heavy>
31

>  <SCORE.norm>
-0.812573

>  <RMSD>
3.047

$$$$
lig.pdb
 OpenBabel11021811453D
libRbt.so/2013.1/901 2013/11/27
 31 33  0  0  0  0  0  0  0  0999 V2000
   -2.0058    6.4104    5.9955 O   0  0  0  0  0  0  0  0  0  0  0  0
   -3.1035    5.9498    5.2320 C   0  0  0  0  0  0  0  0  0  0  0  0
   -2.8806    4.5137    4.7387 C   0  0  1  0  0  0  0  0  0  0  0  0
   -1.8623    4.4466    3.7530 O   0  0  0  0  0  0  0  0  0  0  0  0
   -1.2737    3.1496    3.7606 C   0  0  1  0  0  0  0  0  0  0  0  0
    0.1444    3.2631    3.7614 O   0  0  0  0  0  0  0  0  0  0  0  0
    0.8610    2.4288    2.8651 C   0  0  2  0  0  0  0  0  0  0  0  0
    0.9746    1.0383    3.5100 C   0  0  1  0  0  0  0  0  0  0  0  0
   -0.3023    0.4203    3.5417 O   0  0  0  0  0  0  0  0  0  0  0  0
    1.9266    0.0828    2.7747 C   0  0  2  0  0  0  0  0  0  0  0  0
    2.0604   -1.1905    3.4992 N   0  0  0  0  0  0  0  0  0  0  0  0
    3.2982    0.7322    2.6327 C   0  0  0  0  0  0  0  0  0  0  0  0
    3.1603    2.0719    1.9199 C   0  0  2  0  0  0  0  0  0  0  0  0
    4.4986    2.6474    1.7485 N   0  0  0  0  0  0  0  0  0  0  0  0
    2.2299    3.0114    2.7170 C   0  0  1  0  0  0  0  0  0  0  0  0
    2.1879    4.2357    1.9679 O   0  0  0  0  0  0  0  0  0  0  0  0
    2.6938    5.4041    2.6047 C   0  0  1  0  0  0  0  0  0  0  0  0
    3.9819    5.7376    2.0946 O   0  0  0  0  0  0  0  0  0  0  0  0
    4.0260    6.1975    0.7455 C   0  0  2  0  0  0  0  0  0  0  0  0
    5.4821    6.5075    0.3735 C   0  0  0  0  0  0  0  0  0  0  0  0
    6.0297    7.5807    1.1907 N   0  0  0  0  0  0  0  0  0  0  0  0
    3.1619    7.4599    0.5684 C   0  0  1  0  0  0  0  0  0  0  0  0
    3.1749    7.8627   -0.7896 O   0  0  0  0  0  0  0  0  0  0  0  0
    1.7266    7.1402    1.0043 C   0  0  2  0  0  0  0  0  0  0  0  0
    0.9263    8.3055    0.9361 O   0  0  0  0  0  0  0  0  0  0  0  0
    1.7077    6.5641    2.4265 C   0  0  1  0  0  0  0  0  0  0  0  0
    0.3450    6.1442    2.7832 N   0  0  0  0  0  0  0  0  0  0  0  0
   -1.7344    2.4598    5.0529 C   0  0  2  0  0  0  0  0  0  0  0  0
   -2.6559    1.4303    4.7455 O   0  0  0  0  0  0  0  0  0  0  0  0
   -2.3562    3.6070    5.8476 C   0  0  2  0  0  0  0  0  0  0  0  0
   -3.3518    3.1915    6.7616 O   0  0  0  0  0  0  0  0  0  0  0  0
  2  1  1  0  0  0  0
  3  2  1  1  0  0  0
  3 30  1  0  0  0  0
  4  5  1  0  0  0  0
  4  3  1  0  0  0  0
  5 28  1  0  0  0  0
  5  6  1  1  0  0  0
  7  6  1  1  0  0  0
  8  7  1  0  0  0  0
  8  9  1  6  0  0  0
 10 11  1  1  0  0  0
 10  8  1  0  0  0  0
 12 10  1  0  0  0  0
 13 12  1  0  0  0  0
 13 15  1  0  0  0  0
 13 14  1  1  0  0  0
 15  7  1  0  0  0  0
 15 16  1  6  0  0  0
 17 16  1  6  0  0  0
 18 17  1  0  0  0  0
 19 20  1  1  0  0  0
 19 18  1  0  0  0  0
 20 21  1  0  0  0  0
 22 24  1  0  0  0  0
 22 19  1  0  0  0  0
 22 23  1  6  0  0  0
 24 25  1  1  0  0  0
 24 26  1  0  0  0  0
 26 17  1  0  0  0  0
 26 27  1  6  0  0  0
 28 29  1  6  0  0  0
 28 30  1  0  0  0  0
 30 31  1  1  0  0  0
M  END
>  <CHROM.1>
-176.57754430,-69.50439560,-134.43313337,-80.69526789,-169.96341391,65.65339433
-25.00211170,121.79570945,103.81098653,-62.82991460,57.15768129,-163.62024557
155.97661672,4.30507714,-177.33365598,58.89029863,1.05276622,4.17394952,2.94049817
2.52781625,-0.51733854,2.95012828

>  <Name>
lig.pdb

>  <RI>
0

>  <Rbt.Current_Directory>
/home/itssahil/PROJECTS/Mol_Feturizer/New_Systems/rnas/2n0j

>  <Rbt.Executable>
rbdock ($Id: //depot/dev/client3/rdock/2013.1/src/exe/rbdock.cxx#4 $)

>  <Rbt.Library>
libRbt.so (2013.1, Build901 2013/11/27)

>  <Rbt.Parameter_File>
/export/apps/rDock/src/rDock_2013.1_src/data/scripts/dock_solv.prm

>  <Rbt.Receptor>
prm/pocket_docking_8.prm

>  <SCORE>
-41.6797

>  <SCORE.INTER>
-44.668

>  <SCORE.INTER.CONST>
1

>  <SCORE.INTER.POLAR>
-5.32856

>  <SCORE.INTER.ROT>
6

>  <SCORE.INTER.SOLV>
15.7237

>  <SCORE.INTER.VDW>
-24.858

>  <SCORE.INTER.norm>
-1.4409

>  <SCORE.INTRA>
2.98826

>  <SCORE.INTRA.DIHEDRAL>
4.05813

>  <SCORE.INTRA.DIHEDRAL.0>
28.0161

>  <SCORE.INTRA.POLAR>
-0.461092

>  <SCORE.INTRA.POLAR.0>
-1.05798

>  <SCORE.INTRA.REPUL>
0

>  <SCORE.INTRA.REPUL.0>
0

>  <SCORE.INTRA.SOLV>
2.21853

>  <SCORE.INTRA.SOLV.lig_0>
-42.5945

>  <SCORE.INTRA.VDW>
1.41765

>  <SCORE.INTRA.VDW.0>
-5.13869

>  <SCORE.INTRA.norm>
0.0963956

>  <SCORE.RESTR>
0

>  <SCORE.RESTR.CAVITY>
0

>  <SCORE.RESTR.norm>
0

>  <SCORE.SYSTEM>
0

>  <SCORE.SYSTEM.CONST>
0

>  <SCORE.SYSTEM.DIHEDRAL>
0

>  <SCORE.SYSTEM.SOLV>
0

>  <SCORE.SYSTEM.norm>
0

>  <SCORE.heavy>
31

>  <SCORE.norm>
-1.34451

>  <RMSD>
3.084

$$$$
lig.pdb
 OpenBabel11021811453D
libRbt.so/2013.1/901 2013/11/27
 31 33  0  0  0  0  0  0  0  0999 V2000
   -7.2766    4.1469    4.0437 O   0  0  0  0  0  0  0  0  0  0  0  0
   -6.3309    4.4659    3.0416 C   0  0  0  0  0  0  0  0  0  0  0  0
   -5.7072    3.2013    2.4357 C   0  0  1  0  0  0  0  0  0  0  0  0
   -4.4170    3.4532    1.9019 O   0  0  0  0  0  0  0  0  0  0  0  0
   -3.6519    2.2519    1.9124 C   0  0  1  0  0  0  0  0  0  0  0  0
   -2.3629    2.5054    2.4583 O   0  0  0  0  0  0  0  0  0  0  0  0
   -1.2458    2.0108    1.7369 C   0  0  2  0  0  0  0  0  0  0  0  0
   -1.2031    0.4864    1.9285 C   0  0  1  0  0  0  0  0  0  0  0  0
   -2.2928   -0.1121    1.2446 O   0  0  0  0  0  0  0  0  0  0  0  0
    0.0821   -0.1746    1.4074 C   0  0  2  0  0  0  0  0  0  0  0  0
    0.0960   -1.6140    1.7106 N   0  0  0  0  0  0  0  0  0  0  0  0
    1.2967    0.4898    2.0448 C   0  0  0  0  0  0  0  0  0  0  0  0
    1.2654    1.9882    1.7697 C   0  0  2  0  0  0  0  0  0  0  0  0
    2.4713    2.5923    2.3462 N   0  0  0  0  0  0  0  0  0  0  0  0
   -0.0220    2.6140    2.3482 C   0  0  1  0  0  0  0  0  0  0  0  0
    0.0640    4.0153    2.0475 O   0  0  0  0  0  0  0  0  0  0  0  0
    0.2586    4.9037    3.1427 C   0  0  1  0  0  0  0  0  0  0  0  0
    1.5763    5.4459    3.1230 O   0  0  0  0  0  0  0  0  0  0  0  0
    1.8691    6.3527    2.0621 C   0  0  2  0  0  0  0  0  0  0  0  0
    3.3203    6.8308    2.2034 C   0  0  0  0  0  0  0  0  0  0  0  0
    4.2416    5.7149    2.3634 N   0  0  0  0  0  0  0  0  0  0  0  0
    0.9156    7.5616    2.0957 C   0  0  1  0  0  0  0  0  0  0  0  0
    1.1877    8.4169    0.9998 O   0  0  0  0  0  0  0  0  0  0  0  0
   -0.5290    7.0527    2.0145 C   0  0  2  0  0  0  0  0  0  0  0  0
   -1.4335    8.1349    2.1314 O   0  0  0  0  0  0  0  0  0  0  0  0
   -0.7995    6.0124    3.1099 C   0  0  1  0  0  0  0  0  0  0  0  0
   -2.1432    5.4405    2.9425 N   0  0  0  0  0  0  0  0  0  0  0  0
   -4.4018    1.2549    2.8080 C   0  0  2  0  0  0  0  0  0  0  0  0
   -4.9686    0.2289    2.0145 O   0  0  0  0  0  0  0  0  0  0  0  0
   -5.4473    2.1333    3.4933 C   0  0  2  0  0  0  0  0  0  0  0  0
   -6.6084    1.4307    3.8901 O   0  0  0  0  0  0  0  0  0  0  0  0
  2  1  1  0  0  0  0
  3  2  1  1  0  0  0
  3 30  1  0  0  0  0
  4  5  1  0  0  0  0
  4  3  1  0  0  0  0
  5 28  1  0  0  0  0
  5  6  1  1  0  0  0
  7  6  1  1  0  0  0
  8  7  1  0  0  0  0
  8  9  1  6  0  0  0
 10 11  1  1  0  0  0
 10  8  1  0  0  0  0
 12 10  1  0  0  0  0
 13 12  1  0  0  0  0
 13 15  1  0  0  0  0
 13 14  1  1  0  0  0
 15  7  1  0  0  0  0
 15 16  1  6  0  0  0
 17 16  1  6  0  0  0
 18 17  1  0  0  0  0
 19 20  1  1  0  0  0
 19 18  1  0  0  0  0
 20 21  1  0  0  0  0
 22 24  1  0  0  0  0
 22 19  1  0  0  0  0
 22 23  1  6  0  0  0
 24 25  1  1  0  0  0
 24 26  1  0  0  0  0
 26 17  1  0  0  0  0
 26 27  1  6  0  0  0
 28 29  1  6  0  0  0
 28 30  1  0  0  0  0
 30 31  1  6  0  0  0
M  END
>  <CHROM.1>
77.45766761,-154.32170262,-131.84454846,-73.37711364,64.80136115,50.07147689
-36.17393662,128.31464687,108.81365943,50.51189595,162.22353602,63.75144404
174.86863805,101.72403114,63.83869520,-52.65945307,-1.38033117,3.52194643
2.34941123,2.59933321,-0.13541429,-3.06326169

>  <Name>
lig.pdb

>  <RI>
2.74555e+07

>  <Rbt.Current_Directory>
/home/itssahil/PROJECTS/Mol_Feturizer/New_Systems/rnas/2n0j

>  <Rbt.Executable>
rbdock ($Id: //depot/dev/client3/rdock/2013.1/src/exe/rbdock.cxx#4 $)

>  <Rbt.Library>
libRbt.so (2013.1, Build901 2013/11/27)

>  <Rbt.Parameter_File>
/export/apps/rDock/src/rDock_2013.1_src/data/scripts/dock_solv.prm

>  <Rbt.Receptor>
prm/pocket_docking_6.prm

>  <SCORE>
-36.9797

>  <SCORE.INTER>
-36.0365

>  <SCORE.INTER.CONST>
1

>  <SCORE.INTER.POLAR>
-3.90379

>  <SCORE.INTER.ROT>
6

>  <SCORE.INTER.SOLV>
17.8536

>  <SCORE.INTER.VDW>
-24.5629

>  <SCORE.INTER.norm>
-1.16247

>  <SCORE.INTRA>
-0.943229

>  <SCORE.INTRA.DIHEDRAL>
2.49361

>  <SCORE.INTRA.DIHEDRAL.0>
28.0161

>  <SCORE.INTRA.POLAR>
-1.6005

>  <SCORE.INTRA.POLAR.0>
-1.05798

>  <SCORE.INTRA.REPUL>
0

>  <SCORE.INTRA.REPUL.0>
0

>  <SCORE.INTRA.SOLV>
1.71058

>  <SCORE.INTRA.SOLV.lig_0>
-42.5945

>  <SCORE.INTRA.VDW>
2.39639

>  <SCORE.INTRA.VDW.0>
-5.13869

>  <SCORE.INTRA.norm>
-0.0304267

>  <SCORE.RESTR>
0

>  <SCORE.RESTR.CAVITY>
0

>  <SCORE.RESTR.norm>
0

>  <SCORE.SYSTEM>
0

>  <SCORE.SYSTEM.CONST>
0

>  <SCORE.SYSTEM.DIHEDRAL>
0

>  <SCORE.SYSTEM.SOLV>
0

>  <SCORE.SYSTEM.norm>
0

>  <SCORE.heavy>
31

>  <SCORE.norm>
-1.19289

>  <RMSD>
3.088

$$$$
lig.pdb
 OpenBabel11021811453D
libRbt.so/2013.1/901 2013/11/27
 31 33  0  0  0  0  0  0  0  0999 V2000
   -3.5992    0.0024    9.2199 O   0  0  0  0  0  0  0  0  0  0  0  0
   -2.3306    0.6129    9.3545 C   0  0  0  0  0  0  0  0  0  0  0  0
   -1.2939   -0.0374    8.4285 C   0  0  1  0  0  0  0  0  0  0  0  0
   -1.6503    0.0958    7.0616 O   0  0  0  0  0  0  0  0  0  0  0  0
   -0.4771    0.0547    6.2550 C   0  0  1  0  0  0  0  0  0  0  0  0
   -0.5002    1.1220    5.3147 O   0  0  0  0  0  0  0  0  0  0  0  0
   -0.6181    0.7747    3.9442 C   0  0  2  0  0  0  0  0  0  0  0  0
    0.0826   -0.5782    3.7427 C   0  0  1  0  0  0  0  0  0  0  0  0
   -0.6646   -1.6031    4.3788 O   0  0  0  0  0  0  0  0  0  0  0  0
    0.2520   -0.9828    2.2703 C   0  0  2  0  0  0  0  0  0  0  0  0
    1.0136   -2.2358    2.1511 N   0  0  0  0  0  0  0  0  0  0  0  0
    0.9752    0.1245    1.5128 C   0  0  0  0  0  0  0  0  0  0  0  0
    0.2127    1.4347    1.6678 C   0  0  2  0  0  0  0  0  0  0  0  0
    0.8998    2.4679    0.8854 N   0  0  0  0  0  0  0  0  0  0  0  0
    0.1057    1.8210    3.1588 C   0  0  1  0  0  0  0  0  0  0  0  0
   -0.6093    3.0659    3.1821 O   0  0  0  0  0  0  0  0  0  0  0  0
   -0.0918    4.0964    4.0169 C   0  0  1  0  0  0  0  0  0  0  0  0
    1.2168    4.4740    3.5977 O   0  0  0  0  0  0  0  0  0  0  0  0
    1.3068    5.1519    2.3464 C   0  0  2  0  0  0  0  0  0  0  0  0
    2.7791    5.4785    2.0628 C   0  0  0  0  0  0  0  0  0  0  0  0
    3.0441    6.9061    2.1697 N   0  0  0  0  0  0  0  0  0  0  0  0
    0.4786    6.4501    2.3656 C   0  0  1  0  0  0  0  0  0  0  0  0
    0.5364    7.0742    1.0953 O   0  0  0  0  0  0  0  0  0  0  0  0
   -0.9749    6.1027    2.7109 C   0  0  2  0  0  0  0  0  0  0  0  0
   -1.7445    7.2852    2.8226 O   0  0  0  0  0  0  0  0  0  0  0  0
   -1.0444    5.2973    4.0153 C   0  0  1  0  0  0  0  0  0  0  0  0
   -2.4257    4.8623    4.2672 N   0  0  0  0  0  0  0  0  0  0  0  0
    0.7196    0.2299    7.2013 C   0  0  2  0  0  0  0  0  0  0  0  0
    1.4269   -0.9911    7.3122 O   0  0  0  0  0  0  0  0  0  0  0  0
    0.0585    0.6637    8.5086 C   0  0  2  0  0  0  0  0  0  0  0  0
    0.8054    0.3296    9.6617 O   0  0  0  0  0  0  0  0  0  0  0  0
  2  1  1  0  0  0  0
  3  2  1  1  0  0  0
  3 30  1  0  0  0  0
  4  5  1  0  0  0  0
  4  3  1  0  0  0  0
  5 28  1  0  0  0  0
  5  6  1  6  0  0  0
  7  6  1  1  0  0  0
  8  7  1  0  0  0  0
  8  9  1  1  0  0  0
 10 11  1  1  0  0  0
 10  8  1  0  0  0  0
 12 10  1  0  0  0  0
 13 12  1  0  0  0  0
 13 15  1  0  0  0  0
 13 14  1  6  0  0  0
 15  7  1  0  0  0  0
 15 16  1  6  0  0  0
 17 16  1  6  0  0  0
 18 17  1  0  0  0  0
 19 20  1  1  0  0  0
 19 18  1  0  0  0  0
 20 21  1  0  0  0  0
 22 24  1  0  0  0  0
 22 19  1  0  0  0  0
 22 23  1  6  0  0  0
 24 25  1  1  0  0  0
 24 26  1  0  0  0  0
 26 17  1  0  0  0  0
 26 27  1  6  0  0  0
 28 29  1  1  0  0  0
 28 30  1  0  0  0  0
 30 31  1  1  0  0  0
M  END
>  <CHROM.1>
-177.62615766,61.48685243,-113.28741696,-31.85662607,-166.05109800,158.49132778
48.64687004,104.75178829,61.80381679,-109.50289531,179.73172884,95.58339397
143.00332312,-58.96874560,162.51866477,-59.77796233,-0.07532495,2.25607894
4.41796750,2.00857971,-1.17345203,2.83306626

>  <Name>
lig.pdb

>  <RI>
9.20816e+06

>  <Rbt.Current_Directory>
/home/itssahil/PROJECTS/Mol_Feturizer/New_Systems/rnas/2n0j

>  <Rbt.Executable>
rbdock ($Id: //depot/dev/client3/rdock/2013.1/src/exe/rbdock.cxx#4 $)

>  <Rbt.Library>
libRbt.so (2013.1, Build901 2013/11/27)

>  <Rbt.Parameter_File>
/export/apps/rDock/src/rDock_2013.1_src/data/scripts/dock_solv.prm

>  <Rbt.Receptor>
prm/blind_docking_100.prm

>  <SCORE>
-12.5618

>  <SCORE.INTER>
-33.7292

>  <SCORE.INTER.CONST>
1

>  <SCORE.INTER.POLAR>
-5.54274

>  <SCORE.INTER.ROT>
6

>  <SCORE.INTER.SOLV>
20.4296

>  <SCORE.INTER.VDW>
-18.4202

>  <SCORE.INTER.norm>
-1.08804

>  <SCORE.INTRA>
13.62

>  <SCORE.INTRA.DIHEDRAL>
6.70738

>  <SCORE.INTRA.DIHEDRAL.0>
28.0161

>  <SCORE.INTRA.POLAR>
0.528209

>  <SCORE.INTRA.POLAR.0>
-1.05798

>  <SCORE.INTRA.REPUL>
0

>  <SCORE.INTRA.REPUL.0>
0

>  <SCORE.INTRA.SOLV>
0.688731

>  <SCORE.INTRA.SOLV.lig_0>
-42.5945

>  <SCORE.INTRA.VDW>
8.12601

>  <SCORE.INTRA.VDW.0>
-5.13869

>  <SCORE.INTRA.norm>
0.439354

>  <SCORE.RESTR>
7.54737

>  <SCORE.RESTR.CAVITY>
7.54737

>  <SCORE.RESTR.norm>
0.243464

>  <SCORE.SYSTEM>
0

>  <SCORE.SYSTEM.CONST>
0

>  <SCORE.SYSTEM.DIHEDRAL>
0

>  <SCORE.SYSTEM.SOLV>
0

>  <SCORE.SYSTEM.norm>
0

>  <SCORE.heavy>
31

>  <SCORE.norm>
-0.40522

>  <RMSD>
3.135

$$$$
lig.pdb
 OpenBabel11021811453D
libRbt.so/2013.1/901 2013/11/27
 31 33  0  0  0  0  0  0  0  0999 V2000
   -2.1055   -1.4972    8.6687 O   0  0  0  0  0  0  0  0  0  0  0  0
   -0.8963   -0.7907    8.4712 C   0  0  0  0  0  0  0  0  0  0  0  0
   -0.2732   -1.1153    7.1068 C   0  0  1  0  0  0  0  0  0  0  0  0
   -1.1876   -0.8974    6.0440 O   0  0  0  0  0  0  0  0  0  0  0  0
   -0.4706   -0.6157    4.8460 C   0  0  1  0  0  0  0  0  0  0  0  0
   -1.0269    0.5278    4.2081 O   0  0  0  0  0  0  0  0  0  0  0  0
   -1.4687    0.3711    2.8691 C   0  0  2  0  0  0  0  0  0  0  0  0
   -1.8451   -1.1058    2.6706 C   0  0  1  0  0  0  0  0  0  0  0  0
   -3.0176   -1.4042    3.4120 O   0  0  0  0  0  0  0  0  0  0  0  0
   -2.1180   -1.4917    1.2089 C   0  0  2  0  0  0  0  0  0  0  0  0
   -2.3757   -2.9345    1.0828 N   0  0  0  0  0  0  0  0  0  0  0  0
   -0.9209   -1.1127    0.3450 C   0  0  0  0  0  0  0  0  0  0  0  0
   -0.6231    0.3732    0.5042 C   0  0  2  0  0  0  0  0  0  0  0  0
    0.4962    0.7203   -0.3781 N   0  0  0  0  0  0  0  0  0  0  0  0
   -0.3136    0.7041    1.9802 C   0  0  1  0  0  0  0  0  0  0  0  0
   -0.0350    2.1124    2.0073 O   0  0  0  0  0  0  0  0  0  0  0  0
    0.7601    2.5964    3.0843 C   0  0  1  0  0  0  0  0  0  0  0  0
    2.1436    2.3679    2.8308 O   0  0  0  0  0  0  0  0  0  0  0  0
    2.7265    3.1337    1.7785 C   0  0  2  0  0  0  0  0  0  0  0  0
    4.2091    2.7582    1.6530 C   0  0  0  0  0  0  0  0  0  0  0  0
    5.0047    3.8682    1.1486 N   0  0  0  0  0  0  0  0  0  0  0  0
    2.5921    4.6420    2.0590 C   0  0  1  0  0  0  0  0  0  0  0  0
    3.1250    5.3804    0.9740 O   0  0  0  0  0  0  0  0  0  0  0  0
    1.1070    4.9793    2.2406 C   0  0  2  0  0  0  0  0  0  0  0  0
    0.9565    6.3434    2.5867 O   0  0  0  0  0  0  0  0  0  0  0  0
    0.4754    4.0847    3.3157 C   0  0  1  0  0  0  0  0  0  0  0  0
   -0.9721    4.3292    3.3897 N   0  0  0  0  0  0  0  0  0  0  0  0
    0.9799   -0.3210    5.2547 C   0  0  2  0  0  0  0  0  0  0  0  0
    1.8194   -1.3852    4.8471 O   0  0  0  0  0  0  0  0  0  0  0  0
    0.8830   -0.1781    6.7728 C   0  0  2  0  0  0  0  0  0  0  0  0
    2.0835   -0.4909    7.4512 O   0  0  0  0  0  0  0  0  0  0  0  0
  2  1  1  0  0  0  0
  3  2  1  1  0  0  0
  3 30  1  0  0  0  0
  4  5  1  0  0  0  0
  4  3  1  0  0  0  0
  5 28  1  0  0  0  0
  5  6  1  1  0  0  0
  7  6  1  1  0  0  0
  8  7  1  0  0  0  0
  8  9  1  1  0  0  0
 10 11  1  1  0  0  0
 10  8  1  0  0  0  0
 12 10  1  0  0  0  0
 13 12  1  0  0  0  0
 13 15  1  0  0  0  0
 13 14  1  6  0  0  0
 15  7  1  0  0  0  0
 15 16  1  6  0  0  0
 17 16  1  6  0  0  0
 18 17  1  0  0  0  0
 19 20  1  1  0  0  0
 19 18  1  0  0  0  0
 20 21  1  0  0  0  0
 22 24  1  0  0  0  0
 22 19  1  0  0  0  0
 22 23  1  6  0  0  0
 24 25  1  1  0  0  0
 24 26  1  0  0  0  0
 26 17  1  0  0  0  0
 26 27  1  6  0  0  0
 28 29  1  1  0  0  0
 28 30  1  0  0  0  0
 30 31  1  1  0  0  0
M  END
>  <CHROM.1>
-53.86809445,54.18017672,-123.37242350,26.66102801,59.87613697,-78.83936549
54.86465046,82.71038783,80.78822155,-150.98488690,89.33236393,82.73704942
177.88887008,-74.02639611,64.34798399,39.75437681,0.31824092,1.10579523,3.36738861
-2.38996954,-0.90019937,-1.32569557

>  <Name>
lig.pdb

>  <RI>
0

>  <Rbt.Current_Directory>
/home/itssahil/PROJECTS/Mol_Feturizer/New_Systems/rnas/2n0j

>  <Rbt.Executable>
rbdock ($Id: //depot/dev/client3/rdock/2013.1/src/exe/rbdock.cxx#4 $)

>  <Rbt.Library>
libRbt.so (2013.1, Build901 2013/11/27)

>  <Rbt.Parameter_File>
/export/apps/rDock/src/rDock_2013.1_src/data/scripts/dock_solv.prm

>  <Rbt.Receptor>
prm/blind_docking_40.prm

>  <SCORE>
-16.7945

>  <SCORE.INTER>
-29.8896

>  <SCORE.INTER.CONST>
1

>  <SCORE.INTER.POLAR>
-2.94609

>  <SCORE.INTER.ROT>
6

>  <SCORE.INTER.SOLV>
18.9671

>  <SCORE.INTER.VDW>
-24.0285

>  <SCORE.INTER.norm>
-0.964181

>  <SCORE.INTRA>
7.73574

>  <SCORE.INTRA.DIHEDRAL>
-2.11285

>  <SCORE.INTRA.DIHEDRAL.0>
28.0161

>  <SCORE.INTRA.POLAR>
0.534655

>  <SCORE.INTRA.POLAR.0>
-1.05798

>  <SCORE.INTRA.REPUL>
0

>  <SCORE.INTRA.REPUL.0>
0

>  <SCORE.INTRA.SOLV>
0.262124

>  <SCORE.INTRA.SOLV.lig_0>
-42.5945

>  <SCORE.INTRA.VDW>
6.84327

>  <SCORE.INTRA.VDW.0>
-5.13869

>  <SCORE.INTRA.norm>
0.24954

>  <SCORE.RESTR>
5.3594

>  <SCORE.RESTR.CAVITY>
5.3594

>  <SCORE.RESTR.norm>
0.172884

>  <SCORE.SYSTEM>
0

>  <SCORE.SYSTEM.CONST>
0

>  <SCORE.SYSTEM.DIHEDRAL>
0

>  <SCORE.SYSTEM.SOLV>
0

>  <SCORE.SYSTEM.norm>
0

>  <SCORE.heavy>
31

>  <SCORE.norm>
-0.541757

>  <RMSD>
3.235

$$$$
lig.pdb
 OpenBabel11021811453D
libRbt.so/2013.1/901 2013/11/27
 31 33  0  0  0  0  0  0  0  0999 V2000
   -5.4353    7.6238    8.7861 O   0  0  0  0  0  0  0  0  0  0  0  0
   -5.2989    6.5652    7.8582 C   0  0  0  0  0  0  0  0  0  0  0  0
   -4.4926    5.4011    8.4496 C   0  0  1  0  0  0  0  0  0  0  0  0
   -4.4979    4.2681    7.5955 O   0  0  0  0  0  0  0  0  0  0  0  0
   -3.3305    3.4865    7.8301 C   0  0  1  0  0  0  0  0  0  0  0  0
   -2.7176    3.1505    6.5910 O   0  0  0  0  0  0  0  0  0  0  0  0
   -3.5575    2.6275    5.5743 C   0  0  2  0  0  0  0  0  0  0  0  0
   -3.6779    1.1121    5.8009 C   0  0  1  0  0  0  0  0  0  0  0  0
   -4.4346    0.8629    6.9750 O   0  0  0  0  0  0  0  0  0  0  0  0
   -4.3603    0.3588    4.6489 C   0  0  2  0  0  0  0  0  0  0  0  0
   -4.3535   -1.0925    4.8895 N   0  0  0  0  0  0  0  0  0  0  0  0
   -3.6396    0.6593    3.3399 C   0  0  0  0  0  0  0  0  0  0  0  0
   -3.6067    2.1648    3.1063 C   0  0  2  0  0  0  0  0  0  0  0  0
   -2.9575    2.4210    1.8161 N   0  0  0  0  0  0  0  0  0  0  0  0
   -2.8750    2.8728    4.2669 C   0  0  1  0  0  0  0  0  0  0  0  0
   -2.8901    4.2695    3.9347 O   0  0  0  0  0  0  0  0  0  0  0  0
   -1.9210    5.0981    4.5678 C   0  0  1  0  0  0  0  0  0  0  0  0
   -0.6169    4.5394    4.4345 O   0  0  0  0  0  0  0  0  0  0  0  0
   -0.0639    4.5358    3.1201 C   0  0  2  0  0  0  0  0  0  0  0  0
    1.3332    3.9033    3.1705 C   0  0  0  0  0  0  0  0  0  0  0  0
    1.8665    3.6691    1.8361 N   0  0  0  0  0  0  0  0  0  0  0  0
    0.0312    5.9679    2.5617 C   0  0  1  0  0  0  0  0  0  0  0  0
    0.5277    5.9330    1.2355 O   0  0  0  0  0  0  0  0  0  0  0  0
   -1.3671    6.5979    2.5791 C   0  0  2  0  0  0  0  0  0  0  0  0
   -1.2989    7.9458    2.1533 O   0  0  0  0  0  0  0  0  0  0  0  0
   -1.9821    6.5136    3.9826 C   0  0  1  0  0  0  0  0  0  0  0  0
   -3.3677    7.0036    3.9571 N   0  0  0  0  0  0  0  0  0  0  0  0
   -2.3725    4.3555    8.6579 C   0  0  2  0  0  0  0  0  0  0  0  0
   -2.2943    3.8578    9.9807 O   0  0  0  0  0  0  0  0  0  0  0  0
   -3.0106    5.7411    8.5726 C   0  0  2  0  0  0  0  0  0  0  0  0
   -2.7075    6.5755    9.6731 O   0  0  0  0  0  0  0  0  0  0  0  0
  2  1  1  0  0  0  0
  3  2  1  6  0  0  0
  3 30  1  0  0  0  0
  4  5  1  0  0  0  0
  4  3  1  0  0  0  0
  5 28  1  0  0  0  0
  5  6  1  6  0  0  0
  7  6  1  1  0  0  0
  8  7  1  0  0  0  0
  8  9  1  1  0  0  0
 10 11  1  1  0  0  0
 10  8  1  0  0  0  0
 12 10  1  0  0  0  0
 13 12  1  0  0  0  0
 13 15  1  0  0  0  0
 13 14  1  6  0  0  0
 15  7  1  0  0  0  0
 15 16  1  6  0  0  0
 17 16  1  6  0  0  0
 18 17  1  0  0  0  0
 19 20  1  1  0  0  0
 19 18  1  0  0  0  0
 20 21  1  0  0  0  0
 22 24  1  0  0  0  0
 22 19  1  0  0  0  0
 22 23  1  6  0  0  0
 24 25  1  1  0  0  0
 24 26  1  0  0  0  0
 26 17  1  0  0  0  0
 26 27  1  6  0  0  0
 28 29  1  1  0  0  0
 28 30  1  0  0  0  0
 30 31  1  1  0  0  0
M  END
>  <CHROM.1>
85.01328700,172.33915070,-48.40559976,-85.39481382,-73.54024771,50.21203370
-82.44175729,79.91543878,50.41534256,170.68417478,-70.65700826,102.77784731
61.08049512,25.23248146,64.92069845,-65.83122070,-2.55148531,4.18331484,5.21758984
-2.74382922,-0.99547388,-2.62577344

>  <Name>
lig.pdb

>  <RI>
0

>  <Rbt.Current_Directory>
/home/itssahil/PROJECTS/Mol_Feturizer/New_Systems/rnas/2n0j

>  <Rbt.Executable>
rbdock ($Id: //depot/dev/client3/rdock/2013.1/src/exe/rbdock.cxx#4 $)

>  <Rbt.Library>
libRbt.so (2013.1, Build901 2013/11/27)

>  <Rbt.Parameter_File>
/export/apps/rDock/src/rDock_2013.1_src/data/scripts/dock_solv.prm

>  <Rbt.Receptor>
prm/pocket_docking_5.prm

>  <SCORE>
-38.3919

>  <SCORE.INTER>
-38.6831

>  <SCORE.INTER.CONST>
1

>  <SCORE.INTER.POLAR>
-5.47803

>  <SCORE.INTER.ROT>
6

>  <SCORE.INTER.SOLV>
16.2368

>  <SCORE.INTER.VDW>
-20.5409

>  <SCORE.INTER.norm>
-1.24784

>  <SCORE.INTRA>
0.29125

>  <SCORE.INTRA.DIHEDRAL>
-8.06368

>  <SCORE.INTRA.DIHEDRAL.0>
28.0161

>  <SCORE.INTRA.POLAR>
0.358398

>  <SCORE.INTRA.POLAR.0>
-1.05798

>  <SCORE.INTRA.REPUL>
0

>  <SCORE.INTRA.REPUL.0>
0

>  <SCORE.INTRA.SOLV>
0.371829

>  <SCORE.INTRA.SOLV.lig_0>
-42.5945

>  <SCORE.INTRA.VDW>
2.91862

>  <SCORE.INTRA.VDW.0>
-5.13869

>  <SCORE.INTRA.norm>
0.00939517

>  <SCORE.RESTR>
0

>  <SCORE.RESTR.CAVITY>
0

>  <SCORE.RESTR.norm>
0

>  <SCORE.SYSTEM>
0

>  <SCORE.SYSTEM.CONST>
0

>  <SCORE.SYSTEM.DIHEDRAL>
0

>  <SCORE.SYSTEM.SOLV>
0

>  <SCORE.SYSTEM.norm>
0

>  <SCORE.heavy>
31

>  <SCORE.norm>
-1.23845

>  <RMSD>
3.291

$$$$
lig.pdb
 OpenBabel11021811453D
libRbt.so/2013.1/901 2013/11/27
 31 33  0  0  0  0  0  0  0  0999 V2000
   -2.5959    7.2045    5.3388 O   0  0  0  0  0  0  0  0  0  0  0  0
   -2.3768    6.0584    6.1378 C   0  0  0  0  0  0  0  0  0  0  0  0
   -2.3253    4.7825    5.2866 C   0  0  1  0  0  0  0  0  0  0  0  0
   -1.3359    4.8641    4.2730 O   0  0  0  0  0  0  0  0  0  0  0  0
   -0.8979    3.5542    3.9251 C   0  0  1  0  0  0  0  0  0  0  0  0
    0.5238    3.5133    3.8932 O   0  0  0  0  0  0  0  0  0  0  0  0
    1.1251    2.6332    2.9568 C   0  0  2  0  0  0  0  0  0  0  0  0
    1.1996    1.2414    3.6043 C   0  0  1  0  0  0  0  0  0  0  0  0
   -0.1068    0.7018    3.7295 O   0  0  0  0  0  0  0  0  0  0  0  0
    2.0393    0.2267    2.8134 C   0  0  2  0  0  0  0  0  0  0  0  0
    2.1465   -1.0491    3.5379 N   0  0  0  0  0  0  0  0  0  0  0  0
    3.4341    0.7914    2.5714 C   0  0  0  0  0  0  0  0  0  0  0  0
    3.3276    2.1338    1.8582 C   0  0  2  0  0  0  0  0  0  0  0  0
    4.6829    2.6266    1.5899 N   0  0  0  0  0  0  0  0  0  0  0  0
    2.5129    3.1314    2.7095 C   0  0  1  0  0  0  0  0  0  0  0  0
    2.4925    4.3525    1.9545 O   0  0  0  0  0  0  0  0  0  0  0  0
    3.1944    5.4647    2.4996 C   0  0  1  0  0  0  0  0  0  0  0  0
    4.4130    5.6853    1.7947 O   0  0  0  0  0  0  0  0  0  0  0  0
    4.2895    6.1518    0.4529 C   0  0  2  0  0  0  0  0  0  0  0  0
    5.6926    6.3326   -0.1415 C   0  0  0  0  0  0  0  0  0  0  0  0
    6.5237    7.1900    0.6913 N   0  0  0  0  0  0  0  0  0  0  0  0
    3.5264    7.4886    0.4054 C   0  0  1  0  0  0  0  0  0  0  0  0
    3.3657    7.9010   -0.9402 O   0  0  0  0  0  0  0  0  0  0  0  0
    2.1527    7.2956    1.0597 C   0  0  2  0  0  0  0  0  0  0  0  0
    1.4603    8.5289    1.1106 O   0  0  0  0  0  0  0  0  0  0  0  0
    2.3017    6.7105    2.4706 C   0  0  1  0  0  0  0  0  0  0  0  0
    0.9781    6.4119    3.0359 N   0  0  0  0  0  0  0  0  0  0  0  0
   -1.4144    2.6077    5.0185 C   0  0  2  0  0  0  0  0  0  0  0  0
   -2.4510    1.7952    4.4999 O   0  0  0  0  0  0  0  0  0  0  0  0
   -1.8905    3.5707    6.1048 C   0  0  2  0  0  0  0  0  0  0  0  0
   -2.9130    3.0415    6.9256 O   0  0  0  0  0  0  0  0  0  0  0  0
  2  1  1  0  0  0  0
  3  2  1  1  0  0  0
  3 30  1  0  0  0  0
  4  5  1  0  0  0  0
  4  3  1  0  0  0  0
  5 28  1  0  0  0  0
  5  6  1  1  0  0  0
  7  6  1  1  0  0  0
  8  7  1  0  0  0  0
  8  9  1  6  0  0  0
 10 11  1  1  0  0  0
 10  8  1  0  0  0  0
 12 10  1  0  0  0  0
 13 12  1  0  0  0  0
 13 15  1  0  0  0  0
 13 14  1  1  0  0  0
 15  7  1  0  0  0  0
 15 16  1  6  0  0  0
 17 16  1  6  0  0  0
 18 17  1  0  0  0  0
 19 20  1  1  0  0  0
 19 18  1  0  0  0  0
 20 21  1  0  0  0  0
 22 24  1  0  0  0  0
 22 19  1  0  0  0  0
 22 23  1  6  0  0  0
 24 25  1  1  0  0  0
 24 26  1  0  0  0  0
 26 17  1  0  0  0  0
 26 27  1  6  0  0  0
 28 29  1  6  0  0  0
 28 30  1  0  0  0  0
 30 31  1  6  0  0  0
M  END
>  <CHROM.1>
-171.30081239,56.39225670,-147.65455510,-85.00788347,62.69330799,-178.19697227
82.64352624,126.26526613,105.21697241,-54.14928874,65.13615795,-168.31634700
-169.46783037,-100.94713137,69.68558779,-59.95395805,1.37349099,4.31307950
2.94544110,2.59264073,-0.57140340,2.95684049

>  <Name>
lig.pdb

>  <RI>
3.32461e+07

>  <Rbt.Current_Directory>
/home/itssahil/PROJECTS/Mol_Feturizer/New_Systems/rnas/2n0j

>  <Rbt.Executable>
rbdock ($Id: //depot/dev/client3/rdock/2013.1/src/exe/rbdock.cxx#4 $)

>  <Rbt.Library>
libRbt.so (2013.1, Build901 2013/11/27)

>  <Rbt.Parameter_File>
/export/apps/rDock/src/rDock_2013.1_src/data/scripts/dock_solv.prm

>  <Rbt.Receptor>
prm/pocket_docking_7.prm

>  <SCORE>
-45.8438

>  <SCORE.INTER>
-44.0913

>  <SCORE.INTER.CONST>
1

>  <SCORE.INTER.POLAR>
-4.92596

>  <SCORE.INTER.ROT>
6

>  <SCORE.INTER.SOLV>
17.6332

>  <SCORE.INTER.VDW>
-26.4521

>  <SCORE.INTER.norm>
-1.4223

>  <SCORE.INTRA>
-1.75253

>  <SCORE.INTRA.DIHEDRAL>
-1.71374

>  <SCORE.INTRA.DIHEDRAL.0>
28.0161

>  <SCORE.INTRA.POLAR>
-0.993798

>  <SCORE.INTRA.POLAR.0>
-1.05798

>  <SCORE.INTRA.REPUL>
0

>  <SCORE.INTRA.REPUL.0>
0

>  <SCORE.INTRA.SOLV>
1.20483

>  <SCORE.INTRA.SOLV.lig_0>
-42.5945

>  <SCORE.INTRA.VDW>
1.88084

>  <SCORE.INTRA.VDW.0>
-5.13869

>  <SCORE.INTRA.norm>
-0.0565333

>  <SCORE.RESTR>
0

>  <SCORE.RESTR.CAVITY>
0

>  <SCORE.RESTR.norm>
0

>  <SCORE.SYSTEM>
0

>  <SCORE.SYSTEM.CONST>
0

>  <SCORE.SYSTEM.DIHEDRAL>
0

>  <SCORE.SYSTEM.SOLV>
0

>  <SCORE.SYSTEM.norm>
0

>  <SCORE.heavy>
31

>  <SCORE.norm>
-1.47883

>  <RMSD>
3.309

$$$$
lig.pdb
 OpenBabel11021811453D
libRbt.so/2013.1/901 2013/11/27
 31 33  0  0  0  0  0  0  0  0999 V2000
   -5.2823    4.6840    2.6685 O   0  0  0  0  0  0  0  0  0  0  0  0
   -3.9285    4.3920    2.3821 C   0  0  0  0  0  0  0  0  0  0  0  0
   -3.2551    3.6539    3.5470 C   0  0  1  0  0  0  0  0  0  0  0  0
   -2.0719    2.9875    3.1358 O   0  0  0  0  0  0  0  0  0  0  0  0
   -1.1910    2.8476    4.2463 C   0  0  1  0  0  0  0  0  0  0  0  0
    0.1214    3.2524    3.8753 O   0  0  0  0  0  0  0  0  0  0  0  0
    0.8166    2.4280    2.9534 C   0  0  2  0  0  0  0  0  0  0  0  0
    0.9690    1.0382    3.5916 C   0  0  1  0  0  0  0  0  0  0  0  0
   -0.2986    0.4048    3.6662 O   0  0  0  0  0  0  0  0  0  0  0  0
    1.9066    0.0951    2.8224 C   0  0  2  0  0  0  0  0  0  0  0  0
    2.0804   -1.1775    3.5397 N   0  0  0  0  0  0  0  0  0  0  0  0
    3.2645    0.7611    2.6344 C   0  0  0  0  0  0  0  0  0  0  0  0
    3.0861    2.1000    1.9291 C   0  0  2  0  0  0  0  0  0  0  0  0
    4.4108    2.6918    1.7128 N   0  0  0  0  0  0  0  0  0  0  0  0
    2.1726    3.0272    2.7593 C   0  0  1  0  0  0  0  0  0  0  0  0
    2.0902    4.2518    2.0143 O   0  0  0  0  0  0  0  0  0  0  0  0
    2.5925    5.4277    2.6401 C   0  0  1  0  0  0  0  0  0  0  0  0
    3.8908    5.7453    2.1461 O   0  0  0  0  0  0  0  0  0  0  0  0
    3.9599    6.1828    0.7906 C   0  0  2  0  0  0  0  0  0  0  0  0
    5.4237    6.4782    0.4376 C   0  0  0  0  0  0  0  0  0  0  0  0
    5.6006    6.6900   -0.9919 N   0  0  0  0  0  0  0  0  0  0  0  0
    3.1064    7.4470    0.5785 C   0  0  1  0  0  0  0  0  0  0  0  0
    3.1442    7.8273   -0.7854 O   0  0  0  0  0  0  0  0  0  0  0  0
    1.6622    7.1428    0.9958 C   0  0  2  0  0  0  0  0  0  0  0  0
    0.8701    8.3113    0.8954 O   0  0  0  0  0  0  0  0  0  0  0  0
    1.6164    6.5902    2.4267 C   0  0  1  0  0  0  0  0  0  0  0  0
    0.2455    6.1840    2.7676 N   0  0  0  0  0  0  0  0  0  0  0  0
   -1.7199    3.7719    5.3527 C   0  0  2  0  0  0  0  0  0  0  0  0
   -2.2693    2.9982    6.4030 O   0  0  0  0  0  0  0  0  0  0  0  0
   -2.7602    4.6180    4.6204 C   0  0  2  0  0  0  0  0  0  0  0  0
   -3.7858    5.1105    5.4599 O   0  0  0  0  0  0  0  0  0  0  0  0
  2  1  1  0  0  0  0
  3  2  1  6  0  0  0
  3 30  1  0  0  0  0
  4  5  1  0  0  0  0
  4  3  1  0  0  0  0
  5 28  1  0  0  0  0
  5  6  1  6  0  0  0
  7  6  1  1  0  0  0
  8  7  1  0  0  0  0
  8  9  1  6  0  0  0
 10 11  1  1  0  0  0
 10  8  1  0  0  0  0
 12 10  1  0  0  0  0
 13 12  1  0  0  0  0
 13 15  1  0  0  0  0
 13 14  1  1  0  0  0
 15  7  1  0  0  0  0
 15 16  1  6  0  0  0
 17 16  1  6  0  0  0
 18 17  1  0  0  0  0
 19 20  1  1  0  0  0
 19 18  1  0  0  0  0
 20 21  1  0  0  0  0
 22 24  1  0  0  0  0
 22 19  1  0  0  0  0
 22 23  1  6  0  0  0
 24 25  1  1  0  0  0
 24 26  1  0  0  0  0
 26 17  1  0  0  0  0
 26 27  1  6  0  0  0
 28 29  1  1  0  0  0
 28 30  1  0  0  0  0
 30 31  1  1  0  0  0
M  END
>  <CHROM.1>
64.80388233,161.21360583,-68.91165079,-60.84663731,-169.34524839,66.40529931
-13.80320363,121.23674247,100.84697508,169.40840796,168.14552527,-163.72816020
160.40929395,119.85087293,172.94070673,-76.17867514,0.82614904,4.14805545
2.61361693,2.59789702,-0.36311408,2.79446104

>  <Name>
lig.pdb

>  <RI>
2.74555e+07

>  <Rbt.Current_Directory>
/home/itssahil/PROJECTS/Mol_Feturizer/New_Systems/rnas/2n0j

>  <Rbt.Executable>
rbdock ($Id: //depot/dev/client3/rdock/2013.1/src/exe/rbdock.cxx#4 $)

>  <Rbt.Library>
libRbt.so (2013.1, Build901 2013/11/27)

>  <Rbt.Parameter_File>
/export/apps/rDock/src/rDock_2013.1_src/data/scripts/dock_solv.prm

>  <Rbt.Receptor>
prm/pocket_docking_6.prm

>  <SCORE>
-51.4816

>  <SCORE.INTER>
-50.3903

>  <SCORE.INTER.CONST>
1

>  <SCORE.INTER.POLAR>
-6.16469

>  <SCORE.INTER.ROT>
6

>  <SCORE.INTER.SOLV>
17.2133

>  <SCORE.INTER.VDW>
-26.3823

>  <SCORE.INTER.norm>
-1.62549

>  <SCORE.INTRA>
-1.09127

>  <SCORE.INTRA.DIHEDRAL>
-0.853971

>  <SCORE.INTRA.DIHEDRAL.0>
28.0161

>  <SCORE.INTRA.POLAR>
-1.2294

>  <SCORE.INTRA.POLAR.0>
-1.05798

>  <SCORE.INTRA.REPUL>
0.00671986

>  <SCORE.INTRA.REPUL.0>
0

>  <SCORE.INTRA.SOLV>
1.09838

>  <SCORE.INTRA.SOLV.lig_0>
-42.5945

>  <SCORE.INTRA.VDW>
2.93289

>  <SCORE.INTRA.VDW.0>
-5.13869

>  <SCORE.INTRA.norm>
-0.0352024

>  <SCORE.RESTR>
0

>  <SCORE.RESTR.CAVITY>
0

>  <SCORE.RESTR.norm>
0

>  <SCORE.SYSTEM>
0

>  <SCORE.SYSTEM.CONST>
0

>  <SCORE.SYSTEM.DIHEDRAL>
0

>  <SCORE.SYSTEM.SOLV>
0

>  <SCORE.SYSTEM.norm>
0

>  <SCORE.heavy>
31

>  <SCORE.norm>
-1.6607

>  <RMSD>
3.335

$$$$
lig.pdb
 OpenBabel11021811453D
libRbt.so/2013.1/901 2013/11/27
 31 33  0  0  0  0  0  0  0  0999 V2000
   -2.0275    1.5791    7.0434 O   0  0  0  0  0  0  0  0  0  0  0  0
   -2.1377    0.2497    7.5132 C   0  0  0  0  0  0  0  0  0  0  0  0
   -0.9840   -0.6236    7.0018 C   0  0  1  0  0  0  0  0  0  0  0  0
   -1.0570   -0.8260    5.5994 O   0  0  0  0  0  0  0  0  0  0  0  0
    0.2461   -1.0815    5.0843 C   0  0  1  0  0  0  0  0  0  0  0  0
    0.4759   -0.2784    3.9327 O   0  0  0  0  0  0  0  0  0  0  0  0
   -0.5480   -0.2464    2.9512 C   0  0  2  0  0  0  0  0  0  0  0  0
   -0.8785   -1.6989    2.5727 C   0  0  1  0  0  0  0  0  0  0  0  0
   -1.5239   -2.3415    3.6608 O   0  0  0  0  0  0  0  0  0  0  0  0
   -1.7998   -1.8336    1.3507 C   0  0  2  0  0  0  0  0  0  0  0  0
   -1.9939   -3.2462    0.9888 N   0  0  0  0  0  0  0  0  0  0  0  0
   -1.1974   -1.0850    0.1677 C   0  0  0  0  0  0  0  0  0  0  0  0
   -0.9550    0.3698    0.5507 C   0  0  2  0  0  0  0  0  0  0  0  0
   -0.4275    1.0775   -0.6209 N   0  0  0  0  0  0  0  0  0  0  0  0
    0.0085    0.4553    1.7540 C   0  0  1  0  0  0  0  0  0  0  0  0
    0.1752    1.8577    2.0131 O   0  0  0  0  0  0  0  0  0  0  0  0
    0.9491    2.2202    3.1516 C   0  0  1  0  0  0  0  0  0  0  0  0
    2.0097    1.2907    3.3559 O   0  0  0  0  0  0  0  0  0  0  0  0
    3.0515    1.2990    2.3821 C   0  0  2  0  0  0  0  0  0  0  0  0
    4.0974    0.2431    2.7643 C   0  0  0  0  0  0  0  0  0  0  0  0
    3.5465   -0.7586    3.6659 N   0  0  0  0  0  0  0  0  0  0  0  0
    3.7154    2.6862    2.3018 C   0  0  1  0  0  0  0  0  0  0  0  0
    4.7055    2.6855    1.2887 O   0  0  0  0  0  0  0  0  0  0  0  0
    2.6391    3.7301    1.9790 C   0  0  2  0  0  0  0  0  0  0  0  0
    3.2029    5.0282    1.9847 O   0  0  0  0  0  0  0  0  0  0  0  0
    1.4843    3.6471    2.9863 C   0  0  1  0  0  0  0  0  0  0  0  0
    0.4038    4.5625    2.5923 N   0  0  0  0  0  0  0  0  0  0  0  0
    1.2434   -0.6960    6.1865 C   0  0  2  0  0  0  0  0  0  0  0  0
    1.8354   -1.8623    6.7278 O   0  0  0  0  0  0  0  0  0  0  0  0
    0.3689    0.0559    7.1886 C   0  0  2  0  0  0  0  0  0  0  0  0
    0.8529    0.0053    8.5161 O   0  0  0  0  0  0  0  0  0  0  0  0
  2  1  1  0  0  0  0
  3  2  1  6  0  0  0
  3 30  1  0  0  0  0
  4  5  1  0  0  0  0
  4  3  1  0  0  0  0
  5 28  1  0  0  0  0
  5  6  1  6  0  0  0
  7  6  1  1  0  0  0
  8  7  1  0  0  0  0
  8  9  1  1  0  0  0
 10 11  1  6  0  0  0
 10  8  1  0  0  0  0
 12 10  1  0  0  0  0
 13 12  1  0  0  0  0
 13 15  1  0  0  0  0
 13 14  1  6  0  0  0
 15  7  1  0  0  0  0
 15 16  1  1  0  0  0
 17 16  1  6  0  0  0
 18 17  1  0  0  0  0
 19 20  1  1  0  0  0
 19 18  1  0  0  0  0
 20 21  1  0  0  0  0
 22 24  1  0  0  0  0
 22 19  1  0  0  0  0
 22 23  1  6  0  0  0
 24 25  1  1  0  0  0
 24 26  1  0  0  0  0
 26 17  1  0  0  0  0
 26 27  1  6  0  0  0
 28 29  1  1  0  0  0
 28 30  1  0  0  0  0
 30 31  1  1  0  0  0
M  END
>  <CHROM.1>
58.97410822,-67.82114793,-47.19068075,-53.20896772,-130.74619197,48.38379973
83.24091015,54.61249210,34.52390982,20.56962121,-1.85620830,-66.72823134
75.24184287,79.89893806,81.20494497,44.05989690,0.64284297,0.53141119,3.51154881
-2.35508136,-0.81178514,-1.47117069

>  <Name>
lig.pdb

>  <RI>
0

>  <Rbt.Current_Directory>
/home/itssahil/PROJECTS/Mol_Feturizer/New_Systems/rnas/2n0j

>  <Rbt.Executable>
rbdock ($Id: //depot/dev/client3/rdock/2013.1/src/exe/rbdock.cxx#4 $)

>  <Rbt.Library>
libRbt.so (2013.1, Build901 2013/11/27)

>  <Rbt.Parameter_File>
/export/apps/rDock/src/rDock_2013.1_src/data/scripts/dock_solv.prm

>  <Rbt.Receptor>
prm/blind_docking_40.prm

>  <SCORE>
-26.8402

>  <SCORE.INTER>
-37.7378

>  <SCORE.INTER.CONST>
1

>  <SCORE.INTER.POLAR>
-4.56571

>  <SCORE.INTER.ROT>
6

>  <SCORE.INTER.SOLV>
20.6832

>  <SCORE.INTER.VDW>
-24.4339

>  <SCORE.INTER.norm>
-1.21735

>  <SCORE.INTRA>
7.30275

>  <SCORE.INTRA.DIHEDRAL>
-2.71833

>  <SCORE.INTRA.DIHEDRAL.0>
28.0161

>  <SCORE.INTRA.POLAR>
-0.444407

>  <SCORE.INTRA.POLAR.0>
-1.05798

>  <SCORE.INTRA.REPUL>
0.280052

>  <SCORE.INTRA.REPUL.0>
0

>  <SCORE.INTRA.SOLV>
1.39032

>  <SCORE.INTRA.SOLV.lig_0>
-42.5945

>  <SCORE.INTRA.VDW>
8.07747

>  <SCORE.INTRA.VDW.0>
-5.13869

>  <SCORE.INTRA.norm>
0.235572

>  <SCORE.RESTR>
3.59486

>  <SCORE.RESTR.CAVITY>
3.59486

>  <SCORE.RESTR.norm>
0.115963

>  <SCORE.SYSTEM>
0

>  <SCORE.SYSTEM.CONST>
0

>  <SCORE.SYSTEM.DIHEDRAL>
0

>  <SCORE.SYSTEM.SOLV>
0

>  <SCORE.SYSTEM.norm>
0

>  <SCORE.heavy>
31

>  <SCORE.norm>
-0.865812

>  <RMSD>
3.347

$$$$
lig.pdb
 OpenBabel11021811453D
libRbt.so/2013.1/901 2013/11/27
 31 33  0  0  0  0  0  0  0  0999 V2000
   -6.7604    5.1038    2.8820 O   0  0  0  0  0  0  0  0  0  0  0  0
   -5.3762    4.8141    2.8740 C   0  0  0  0  0  0  0  0  0  0  0  0
   -5.0688    3.5223    3.6434 C   0  0  1  0  0  0  0  0  0  0  0  0
   -4.4462    2.5515    2.8170 O   0  0  0  0  0  0  0  0  0  0  0  0
   -3.6590    1.6753    3.6179 C   0  0  1  0  0  0  0  0  0  0  0  0
   -2.3700    1.5177    3.0369 O   0  0  0  0  0  0  0  0  0  0  0  0
   -2.3007    1.4622    1.6209 C   0  0  2  0  0  0  0  0  0  0  0  0
   -3.1191    0.2456    1.1601 C   0  0  1  0  0  0  0  0  0  0  0  0
   -4.4995    0.4849    1.3853 O   0  0  0  0  0  0  0  0  0  0  0  0
   -2.9512   -0.0947   -0.3286 C   0  0  2  0  0  0  0  0  0  0  0  0
   -3.6836   -1.3224   -0.6756 N   0  0  0  0  0  0  0  0  0  0  0  0
   -1.4727   -0.2779   -0.6505 C   0  0  0  0  0  0  0  0  0  0  0  0
   -0.7022    0.9755   -0.2540 C   0  0  2  0  0  0  0  0  0  0  0  0
    0.7053    0.7928   -0.6246 N   0  0  0  0  0  0  0  0  0  0  0  0
   -0.8661    1.2520    1.2561 C   0  0  1  0  0  0  0  0  0  0  0  0
   -0.0925    2.4332    1.5160 O   0  0  0  0  0  0  0  0  0  0  0  0
    0.4148    2.5999    2.8357 C   0  0  1  0  0  0  0  0  0  0  0  0
    0.4701    1.3486    3.5153 O   0  0  0  0  0  0  0  0  0  0  0  0
    1.4339    0.4131    3.0362 C   0  0  2  0  0  0  0  0  0  0  0  0
    1.3503   -0.8641    3.8826 C   0  0  0  0  0  0  0  0  0  0  0  0
    0.0722   -1.5403    3.7121 N   0  0  0  0  0  0  0  0  0  0  0  0
    2.8551    1.0006    3.1168 C   0  0  1  0  0  0  0  0  0  0  0  0
    3.7864    0.0770    2.5819 O   0  0  0  0  0  0  0  0  0  0  0  0
    2.8951    2.3066    2.3136 C   0  0  2  0  0  0  0  0  0  0  0  0
    4.1657    2.9172    2.4403 O   0  0  0  0  0  0  0  0  0  0  0  0
    1.7942    3.2665    2.7845 C   0  0  1  0  0  0  0  0  0  0  0  0
    1.7613    4.4581    1.9245 N   0  0  0  0  0  0  0  0  0  0  0  0
   -3.5231    2.3356    4.9976 C   0  0  2  0  0  0  0  0  0  0  0  0
   -4.2860    1.6187    5.9503 O   0  0  0  0  0  0  0  0  0  0  0  0
   -4.0443    3.7504    4.7503 C   0  0  2  0  0  0  0  0  0  0  0  0
   -4.5802    4.3687    5.9034 O   0  0  0  0  0  0  0  0  0  0  0  0
  2  1  1  0  0  0  0
  3  2  1  6  0  0  0
  3 30  1  0  0  0  0
  4  5  1  0  0  0  0
  4  3  1  0  0  0  0
  5 28  1  0  0  0  0
  5  6  1  6  0  0  0
  7  6  1  1  0  0  0
  8  7  1  0  0  0  0
  8  9  1  6  0  0  0
 10 11  1  1  0  0  0
 10  8  1  0  0  0  0
 12 10  1  0  0  0  0
 13 12  1  0  0  0  0
 13 15  1  0  0  0  0
 13 14  1  1  0  0  0
 15  7  1  0  0  0  0
 15 16  1  6  0  0  0
 17 16  1  6  0  0  0
 18 17  1  0  0  0  0
 19 20  1  1  0  0  0
 19 18  1  0  0  0  0
 20 21  1  0  0  0  0
 22 24  1  0  0  0  0
 22 19  1  0  0  0  0
 22 23  1  6  0  0  0
 24 25  1  1  0  0  0
 24 26  1  0  0  0  0
 26 17  1  0  0  0  0
 26 27  1  6  0  0  0
 28 29  1  1  0  0  0
 28 30  1  0  0  0  0
 30 31  1  1  0  0  0
M  END
>  <CHROM.1>
-57.52936613,120.38608569,-37.41858651,-60.98821041,-164.26812775,-176.75316724
173.01616368,85.60563783,21.19837821,65.18143075,166.01287494,-166.10058512
44.05300916,75.74029254,-173.49827919,-57.20262279,-1.36562346,1.71427540
2.49098683,-2.83944784,0.05731728,-2.32574697

>  <Name>
lig.pdb

>  <RI>
3.32461e+07

>  <Rbt.Current_Directory>
/home/itssahil/PROJECTS/Mol_Feturizer/New_Systems/rnas/2n0j

>  <Rbt.Executable>
rbdock ($Id: //depot/dev/client3/rdock/2013.1/src/exe/rbdock.cxx#4 $)

>  <Rbt.Library>
libRbt.so (2013.1, Build901 2013/11/27)

>  <Rbt.Parameter_File>
/export/apps/rDock/src/rDock_2013.1_src/data/scripts/dock_solv.prm

>  <Rbt.Receptor>
prm/pocket_docking_7.prm

>  <SCORE>
-39.3401

>  <SCORE.INTER>
-43.3306

>  <SCORE.INTER.CONST>
1

>  <SCORE.INTER.POLAR>
-5.65797

>  <SCORE.INTER.ROT>
6

>  <SCORE.INTER.SOLV>
19.3907

>  <SCORE.INTER.VDW>
-24.0907

>  <SCORE.INTER.norm>
-1.39776

>  <SCORE.INTRA>
3.99051

>  <SCORE.INTRA.DIHEDRAL>
-7.49253

>  <SCORE.INTRA.DIHEDRAL.0>
28.0161

>  <SCORE.INTRA.POLAR>
0.960459

>  <SCORE.INTRA.POLAR.0>
-1.05798

>  <SCORE.INTRA.REPUL>
0.134906

>  <SCORE.INTRA.REPUL.0>
0

>  <SCORE.INTRA.SOLV>
0.0858254

>  <SCORE.INTRA.SOLV.lig_0>
-42.5945

>  <SCORE.INTRA.VDW>
3.75378

>  <SCORE.INTRA.VDW.0>
-5.13869

>  <SCORE.INTRA.norm>
0.128726

>  <SCORE.RESTR>
0

>  <SCORE.RESTR.CAVITY>
0

>  <SCORE.RESTR.norm>
0

>  <SCORE.SYSTEM>
0

>  <SCORE.SYSTEM.CONST>
0

>  <SCORE.SYSTEM.DIHEDRAL>
0

>  <SCORE.SYSTEM.SOLV>
0

>  <SCORE.SYSTEM.norm>
0

>  <SCORE.heavy>
31

>  <SCORE.norm>
-1.26904

>  <RMSD>
3.350

$$$$
lig.pdb
 OpenBabel11021811453D
libRbt.so/2013.1/901 2013/11/27
 31 33  0  0  0  0  0  0  0  0999 V2000
   -2.5370    7.2639    3.4065 O   0  0  0  0  0  0  0  0  0  0  0  0
   -2.3644    5.9708    3.9526 C   0  0  0  0  0  0  0  0  0  0  0  0
   -3.5671    5.0677    3.6476 C   0  0  1  0  0  0  0  0  0  0  0  0
   -3.3400    4.2537    2.5079 O   0  0  0  0  0  0  0  0  0  0  0  0
   -4.1304    3.0722    2.5985 C   0  0  1  0  0  0  0  0  0  0  0  0
   -3.3289    1.9322    2.3129 O   0  0  0  0  0  0  0  0  0  0  0  0
   -3.0426    1.6675    0.9488 C   0  0  2  0  0  0  0  0  0  0  0  0
   -4.0865    0.6614    0.4386 C   0  0  1  0  0  0  0  0  0  0  0  0
   -5.3576    1.2877    0.3640 O   0  0  0  0  0  0  0  0  0  0  0  0
   -3.7768    0.0889   -0.9529 C   0  0  2  0  0  0  0  0  0  0  0  0
   -4.7618   -0.9352   -1.3339 N   0  0  0  0  0  0  0  0  0  0  0  0
   -2.3809   -0.5232   -0.9580 C   0  0  0  0  0  0  0  0  0  0  0  0
   -1.3608    0.5220   -0.5233 C   0  0  2  0  0  0  0  0  0  0  0  0
   -0.0237   -0.0773   -0.5900 N   0  0  0  0  0  0  0  0  0  0  0  0
   -1.6887    1.0355    0.8954 C   0  0  1  0  0  0  0  0  0  0  0  0
   -0.6636    1.9924    1.2034 O   0  0  0  0  0  0  0  0  0  0  0  0
   -0.3310    2.1683    2.5764 C   0  0  1  0  0  0  0  0  0  0  0  0
    0.0517    0.9281    3.1645 O   0  0  0  0  0  0  0  0  0  0  0  0
    1.2874    0.3735    2.7183 C   0  0  2  0  0  0  0  0  0  0  0  0
    1.5336   -0.9493    3.4559 C   0  0  0  0  0  0  0  0  0  0  0  0
    1.3832   -2.0954    2.5707 N   0  0  0  0  0  0  0  0  0  0  0  0
    2.4522    1.3448    2.9856 C   0  0  1  0  0  0  0  0  0  0  0  0
    3.6576    0.7976    2.4815 O   0  0  0  0  0  0  0  0  0  0  0  0
    2.1526    2.6778    2.2885 C   0  0  2  0  0  0  0  0  0  0  0  0
    3.1638    3.6217    2.5879 O   0  0  0  0  0  0  0  0  0  0  0  0
    0.7798    3.2156    2.7144 C   0  0  1  0  0  0  0  0  0  0  0  0
    0.4501    4.4240    1.9453 N   0  0  0  0  0  0  0  0  0  0  0  0
   -4.6436    2.9902    4.0435 C   0  0  2  0  0  0  0  0  0  0  0  0
   -6.0339    3.2538    4.0751 O   0  0  0  0  0  0  0  0  0  0  0  0
   -3.8128    4.0535    4.7602 C   0  0  2  0  0  0  0  0  0  0  0  0
   -4.4487    4.6003    5.8985 O   0  0  0  0  0  0  0  0  0  0  0  0
  2  1  1  0  0  0  0
  3  2  1  1  0  0  0
  3 30  1  0  0  0  0
  4  5  1  0  0  0  0
  4  3  1  0  0  0  0
  5 28  1  0  0  0  0
  5  6  1  1  0  0  0
  7  6  1  1  0  0  0
  8  7  1  0  0  0  0
  8  9  1  6  0  0  0
 10 11  1  1  0  0  0
 10  8  1  0  0  0  0
 12 10  1  0  0  0  0
 13 12  1  0  0  0  0
 13 15  1  0  0  0  0
 13 14  1  1  0  0  0
 15  7  1  0  0  0  0
 15 16  1  6  0  0  0
 17 16  1  6  0  0  0
 18 17  1  0  0  0  0
 19 20  1  1  0  0  0
 19 18  1  0  0  0  0
 20 21  1  0  0  0  0
 22 24  1  0  0  0  0
 22 19  1  0  0  0  0
 22 23  1  6  0  0  0
 24 25  1  1  0  0  0
 24 26  1  0  0  0  0
 26 17  1  0  0  0  0
 26 27  1  6  0  0  0
 28 29  1  6  0  0  0
 28 30  1  0  0  0  0
 30 31  1  1  0  0  0
M  END
>  <CHROM.1>
-52.96833705,96.51322780,-78.06273627,-94.72066179,-59.23143727,88.25606400
-34.52257334,87.37336915,56.39484013,109.06130329,116.37076158,54.26365952
67.36063802,81.07118534,68.55707186,-172.11537406,-1.56615356,2.09232639
2.13382181,-2.62118495,0.15296879,-2.49873210

>  <Name>
lig.pdb

>  <RI>
2.74555e+07

>  <Rbt.Current_Directory>
/home/itssahil/PROJECTS/Mol_Feturizer/New_Systems/rnas/2n0j

>  <Rbt.Executable>
rbdock ($Id: //depot/dev/client3/rdock/2013.1/src/exe/rbdock.cxx#4 $)

>  <Rbt.Library>
libRbt.so (2013.1, Build901 2013/11/27)

>  <Rbt.Parameter_File>
/export/apps/rDock/src/rDock_2013.1_src/data/scripts/dock_solv.prm

>  <Rbt.Receptor>
prm/pocket_docking_6.prm

>  <SCORE>
-47.826

>  <SCORE.INTER>
-51.3227

>  <SCORE.INTER.CONST>
1

>  <SCORE.INTER.POLAR>
-6.60143

>  <SCORE.INTER.ROT>
6

>  <SCORE.INTER.SOLV>
18.1094

>  <SCORE.INTER.VDW>
-25.8469

>  <SCORE.INTER.norm>
-1.65557

>  <SCORE.INTRA>
3.49673

>  <SCORE.INTRA.DIHEDRAL>
-1.28317

>  <SCORE.INTRA.DIHEDRAL.0>
28.0161

>  <SCORE.INTRA.POLAR>
0.883575

>  <SCORE.INTRA.POLAR.0>
-1.05798

>  <SCORE.INTRA.REPUL>
0

>  <SCORE.INTRA.REPUL.0>
0

>  <SCORE.INTRA.SOLV>
-0.628667

>  <SCORE.INTRA.SOLV.lig_0>
-42.5945

>  <SCORE.INTRA.VDW>
1.44849

>  <SCORE.INTRA.VDW.0>
-5.13869

>  <SCORE.INTRA.norm>
0.112798

>  <SCORE.RESTR>
0

>  <SCORE.RESTR.CAVITY>
0

>  <SCORE.RESTR.norm>
0

>  <SCORE.SYSTEM>
0

>  <SCORE.SYSTEM.CONST>
0

>  <SCORE.SYSTEM.DIHEDRAL>
0

>  <SCORE.SYSTEM.SOLV>
0

>  <SCORE.SYSTEM.norm>
0

>  <SCORE.heavy>
31

>  <SCORE.norm>
-1.54277

>  <RMSD>
3.414

$$$$
lig.pdb
 OpenBabel11021811453D
libRbt.so/2013.1/901 2013/11/27
 31 33  0  0  0  0  0  0  0  0999 V2000
   -1.5596   -3.4332    6.8526 O   0  0  0  0  0  0  0  0  0  0  0  0
   -0.9509   -2.2162    7.2377 C   0  0  0  0  0  0  0  0  0  0  0  0
   -0.0059   -1.6920    6.1480 C   0  0  1  0  0  0  0  0  0  0  0  0
   -0.6992   -1.3960    4.9461 O   0  0  0  0  0  0  0  0  0  0  0  0
    0.0126   -0.4019    4.2154 C   0  0  1  0  0  0  0  0  0  0  0  0
   -0.8832    0.6176    3.7889 O   0  0  0  0  0  0  0  0  0  0  0  0
   -1.5925    0.3921    2.5810 C   0  0  2  0  0  0  0  0  0  0  0  0
   -1.8492   -1.1187    2.4645 C   0  0  1  0  0  0  0  0  0  0  0  0
   -2.7909   -1.5208    3.4467 O   0  0  0  0  0  0  0  0  0  0  0  0
   -2.3982   -1.5573    1.0983 C   0  0  2  0  0  0  0  0  0  0  0  0
   -2.5273   -3.0209    1.0261 N   0  0  0  0  0  0  0  0  0  0  0  0
   -1.4681   -1.0748   -0.0085 C   0  0  0  0  0  0  0  0  0  0  0  0
   -1.2972    0.4363    0.0873 C   0  0  2  0  0  0  0  0  0  0  0  0
   -0.4434    0.8789   -1.0203 N   0  0  0  0  0  0  0  0  0  0  0  0
   -0.7039    0.8242    1.4589 C   0  0  1  0  0  0  0  0  0  0  0  0
   -0.5729    2.2537    1.4298 O   0  0  0  0  0  0  0  0  0  0  0  0
   -0.0598    2.8827    2.5993 C   0  0  1  0  0  0  0  0  0  0  0  0
    1.2830    2.4729    2.8431 O   0  0  0  0  0  0  0  0  0  0  0  0
    2.2609    2.9310    1.9118 C   0  0  2  0  0  0  0  0  0  0  0  0
    3.6365    2.3969    2.3324 C   0  0  0  0  0  0  0  0  0  0  0  0
    4.6746    2.7781    1.3854 N   0  0  0  0  0  0  0  0  0  0  0  0
    2.2915    4.4699    1.8618 C   0  0  1  0  0  0  0  0  0  0  0  0
    3.2274    4.8992    0.8890 O   0  0  0  0  0  0  0  0  0  0  0  0
    0.8911    4.9795    1.4993 C   0  0  2  0  0  0  0  0  0  0  0  0
    0.8646    6.3942    1.5311 O   0  0  0  0  0  0  0  0  0  0  0  0
   -0.1598    4.4059    2.4594 C   0  0  1  0  0  0  0  0  0  0  0  0
   -1.5081    4.7982    2.0252 N   0  0  0  0  0  0  0  0  0  0  0  0
    1.0519    0.1961    5.1747 C   0  0  2  0  0  0  0  0  0  0  0  0
    2.3509   -0.2183    4.7944 O   0  0  0  0  0  0  0  0  0  0  0  0
    0.6178   -0.3540    6.5323 C   0  0  2  0  0  0  0  0  0  0  0  0
    1.6745   -0.4654    7.4650 O   0  0  0  0  0  0  0  0  0  0  0  0
  2  1  1  0  0  0  0
  3  2  1  1  0  0  0
  3 30  1  0  0  0  0
  4  5  1  0  0  0  0
  4  3  1  0  0  0  0
  5 28  1  0  0  0  0
  5  6  1  1  0  0  0
  7  6  1  1  0  0  0
  8  7  1  0  0  0  0
  8  9  1  1  0  0  0
 10 11  1  1  0  0  0
 10  8  1  0  0  0  0
 12 10  1  0  0  0  0
 13 12  1  0  0  0  0
 13 15  1  0  0  0  0
 13 14  1  6  0  0  0
 15  7  1  0  0  0  0
 15 16  1  6  0  0  0
 17 16  1  6  0  0  0
 18 17  1  0  0  0  0
 19 20  1  1  0  0  0
 19 18  1  0  0  0  0
 20 21  1  0  0  0  0
 22 24  1  0  0  0  0
 22 19  1  0  0  0  0
 22 23  1  6  0  0  0
 24 25  1  1  0  0  0
 24 26  1  0  0  0  0
 26 17  1  0  0  0  0
 26 27  1  6  0  0  0
 28 29  1  6  0  0  0
 28 30  1  0  0  0  0
 30 31  1  1  0  0  0
M  END
>  <CHROM.1>
177.12432021,62.61443509,-84.60275026,32.44278381,62.88632880,54.44810162
-137.80237102,58.23844711,64.00691695,177.34137351,177.05618222,-179.92143987
165.53736312,66.26570951,166.98879381,62.17845431,0.12593010,0.99025786,2.93469661
-2.08084143,-0.77293086,-0.90409394

>  <Name>
lig.pdb

>  <RI>
0

>  <Rbt.Current_Directory>
/home/itssahil/PROJECTS/Mol_Feturizer/New_Systems/rnas/2n0j

>  <Rbt.Executable>
rbdock ($Id: //depot/dev/client3/rdock/2013.1/src/exe/rbdock.cxx#4 $)

>  <Rbt.Library>
libRbt.so (2013.1, Build901 2013/11/27)

>  <Rbt.Parameter_File>
/export/apps/rDock/src/rDock_2013.1_src/data/scripts/dock_solv.prm

>  <Rbt.Receptor>
prm/blind_docking_40.prm

>  <SCORE>
-30.5545

>  <SCORE.INTER>
-34.9923

>  <SCORE.INTER.CONST>
1

>  <SCORE.INTER.POLAR>
-4.38199

>  <SCORE.INTER.ROT>
6

>  <SCORE.INTER.SOLV>
20.9916

>  <SCORE.INTER.VDW>
-23.3187

>  <SCORE.INTER.norm>
-1.12878

>  <SCORE.INTRA>
-0.329391

>  <SCORE.INTRA.DIHEDRAL>
-16.8186

>  <SCORE.INTRA.DIHEDRAL.0>
28.0161

>  <SCORE.INTRA.POLAR>
0.464734

>  <SCORE.INTRA.POLAR.0>
-1.05798

>  <SCORE.INTRA.REPUL>
0

>  <SCORE.INTRA.REPUL.0>
0

>  <SCORE.INTRA.SOLV>
0.906989

>  <SCORE.INTRA.SOLV.lig_0>
-42.5945

>  <SCORE.INTRA.VDW>
6.04631

>  <SCORE.INTRA.VDW.0>
-5.13869

>  <SCORE.INTRA.norm>
-0.0106255

>  <SCORE.RESTR>
4.76714

>  <SCORE.RESTR.CAVITY>
4.76714

>  <SCORE.RESTR.norm>
0.153779

>  <SCORE.SYSTEM>
0

>  <SCORE.SYSTEM.CONST>
0

>  <SCORE.SYSTEM.DIHEDRAL>
0

>  <SCORE.SYSTEM.SOLV>
0

>  <SCORE.SYSTEM.norm>
0

>  <SCORE.heavy>
31

>  <SCORE.norm>
-0.98563

>  <RMSD>
3.520

$$$$
lig.pdb
 OpenBabel11021811453D
libRbt.so/2013.1/901 2013/11/27
 31 33  0  0  0  0  0  0  0  0999 V2000
   -1.1205   -1.5281    9.5902 O   0  0  0  0  0  0  0  0  0  0  0  0
   -1.7542   -1.3623    8.3368 C   0  0  0  0  0  0  0  0  0  0  0  0
   -0.7343   -1.3465    7.1901 C   0  0  1  0  0  0  0  0  0  0  0  0
   -1.3643   -1.2175    5.9255 O   0  0  0  0  0  0  0  0  0  0  0  0
   -0.4624   -0.6178    5.0004 C   0  0  1  0  0  0  0  0  0  0  0  0
   -1.1177    0.4320    4.2989 O   0  0  0  0  0  0  0  0  0  0  0  0
   -1.7297    0.1008    3.0625 C   0  0  2  0  0  0  0  0  0  0  0  0
   -1.9425   -1.4212    3.0390 C   0  0  1  0  0  0  0  0  0  0  0  0
   -2.9454   -1.7782    3.9771 O   0  0  0  0  0  0  0  0  0  0  0  0
   -2.3781   -1.9717    1.6725 C   0  0  2  0  0  0  0  0  0  0  0  0
   -2.4680   -3.4398    1.6988 N   0  0  0  0  0  0  0  0  0  0  0  0
   -1.3793   -1.5437    0.6037 C   0  0  0  0  0  0  0  0  0  0  0  0
   -1.2505   -0.0254    0.6004 C   0  0  2  0  0  0  0  0  0  0  0  0
   -0.3269    0.3606   -0.4718 N   0  0  0  0  0  0  0  0  0  0  0  0
   -0.7701    0.4762    1.9792 C   0  0  1  0  0  0  0  0  0  0  0  0
   -0.6699    1.9031    1.8547 O   0  0  0  0  0  0  0  0  0  0  0  0
    0.0238    2.5977    2.8857 C   0  0  1  0  0  0  0  0  0  0  0  0
    1.0189    1.7637    3.4729 O   0  0  0  0  0  0  0  0  0  0  0  0
    2.1366    1.4399    2.6487 C   0  0  2  0  0  0  0  0  0  0  0  0
    3.0965    0.5437    3.4425 C   0  0  0  0  0  0  0  0  0  0  0  0
    4.0638   -0.1116    2.5738 N   0  0  0  0  0  0  0  0  0  0  0  0
    2.8697    2.7155    2.1934 C   0  0  1  0  0  0  0  0  0  0  0  0
    3.9387    2.3714    1.3301 O   0  0  0  0  0  0  0  0  0  0  0  0
    1.8741    3.6200    1.4566 C   0  0  2  0  0  0  0  0  0  0  0  0
    2.4961    4.8407    1.1015 O   0  0  0  0  0  0  0  0  0  0  0  0
    0.6375    3.8859    2.3256 C   0  0  1  0  0  0  0  0  0  0  0  0
   -0.3624    4.6460    1.5621 N   0  0  0  0  0  0  0  0  0  0  0  0
    0.6986   -0.0395    5.8226 C   0  0  2  0  0  0  0  0  0  0  0  0
    1.8677   -0.8084    5.6095 O   0  0  0  0  0  0  0  0  0  0  0  0
    0.1754   -0.1238    7.2556 C   0  0  2  0  0  0  0  0  0  0  0  0
    1.1962   -0.2253    8.2287 O   0  0  0  0  0  0  0  0  0  0  0  0
  2  1  1  0  0  0  0
  3  2  1  1  0  0  0
  3 30  1  0  0  0  0
  4  5  1  0  0  0  0
  4  3  1  0  0  0  0
  5 28  1  0  0  0  0
  5  6  1  1  0  0  0
  7  6  1  1  0  0  0
  8  7  1  0  0  0  0
  8  9  1  1  0  0  0
 10 11  1  1  0  0  0
 10  8  1  0  0  0  0
 12 10  1  0  0  0  0
 13 12  1  0  0  0  0
 13 15  1  0  0  0  0
 13 14  1  6  0  0  0
 15  7  1  0  0  0  0
 15 16  1  6  0  0  0
 17 16  1  6  0  0  0
 18 17  1  0  0  0  0
 19 20  1  1  0  0  0
 19 18  1  0  0  0  0
 20 21  1  0  0  0  0
 22 24  1  0  0  0  0
 22 19  1  0  0  0  0
 22 23  1  6  0  0  0
 24 25  1  1  0  0  0
 24 26  1  0  0  0  0
 26 17  1  0  0  0  0
 26 27  1  6  0  0  0
 28 29  1  1  0  0  0
 28 30  1  0  0  0  0
 30 31  1  1  0  0  0
M  END
>  <CHROM.1>
31.55780101,178.37960509,-92.71894816,19.66702099,-62.75057121,-66.93063387
-176.25859478,72.33007916,28.78342900,164.74631864,-111.01455728,179.95418937
-58.73814225,170.56382135,179.16530243,177.73218984,0.14368900,0.45787098
3.56567361,-2.07573268,-0.72946745,-1.27414430

>  <Name>
lig.pdb

>  <RI>
1.79691e+07

>  <Rbt.Current_Directory>
/home/itssahil/PROJECTS/Mol_Feturizer/New_Systems/rnas/2n0j

>  <Rbt.Executable>
rbdock ($Id: //depot/dev/client3/rdock/2013.1/src/exe/rbdock.cxx#4 $)

>  <Rbt.Library>
libRbt.so (2013.1, Build901 2013/11/27)

>  <Rbt.Parameter_File>
/export/apps/rDock/src/rDock_2013.1_src/data/scripts/dock_solv.prm

>  <Rbt.Receptor>
prm/blind_docking_20.prm

>  <SCORE>
-31.2287

>  <SCORE.INTER>
-37.71

>  <SCORE.INTER.CONST>
1

>  <SCORE.INTER.POLAR>
-4.99249

>  <SCORE.INTER.ROT>
6

>  <SCORE.INTER.SOLV>
20.8771

>  <SCORE.INTER.VDW>
-23.0574

>  <SCORE.INTER.norm>
-1.21645

>  <SCORE.INTRA>
1.08832

>  <SCORE.INTRA.DIHEDRAL>
-5.61948

>  <SCORE.INTRA.DIHEDRAL.0>
28.0161

>  <SCORE.INTRA.POLAR>
-1.20254

>  <SCORE.INTRA.POLAR.0>
-1.05798

>  <SCORE.INTRA.REPUL>
0

>  <SCORE.INTRA.REPUL.0>
0

>  <SCORE.INTRA.SOLV>
2.02334

>  <SCORE.INTRA.SOLV.lig_0>
-42.5945

>  <SCORE.INTRA.VDW>
6.97501

>  <SCORE.INTRA.VDW.0>
-5.13869

>  <SCORE.INTRA.norm>
0.035107

>  <SCORE.RESTR>
5.39294

>  <SCORE.RESTR.CAVITY>
5.39294

>  <SCORE.RESTR.norm>
0.173966

>  <SCORE.SYSTEM>
0

>  <SCORE.SYSTEM.CONST>
0

>  <SCORE.SYSTEM.DIHEDRAL>
0

>  <SCORE.SYSTEM.SOLV>
0

>  <SCORE.SYSTEM.norm>
0

>  <SCORE.heavy>
31

>  <SCORE.norm>
-1.00738

>  <RMSD>
3.525

$$$$
lig.pdb
 OpenBabel11021811453D
libRbt.so/2013.1/901 2013/11/27
 31 33  0  0  0  0  0  0  0  0999 V2000
   -8.1781    3.8916    4.5152 O   0  0  0  0  0  0  0  0  0  0  0  0
   -6.8086    3.7437    4.8357 C   0  0  0  0  0  0  0  0  0  0  0  0
   -6.2465    2.4203    4.2990 C   0  0  1  0  0  0  0  0  0  0  0  0
   -6.3894    2.3188    2.8910 O   0  0  0  0  0  0  0  0  0  0  0  0
   -5.3861    1.4527    2.3694 C   0  0  1  0  0  0  0  0  0  0  0  0
   -4.7634    2.0586    1.2430 O   0  0  0  0  0  0  0  0  0  0  0  0
   -4.1531    1.1941    0.2980 C   0  0  2  0  0  0  0  0  0  0  0  0
   -5.1688    0.0962   -0.0557 C   0  0  1  0  0  0  0  0  0  0  0  0
   -6.2364    0.6558   -0.8044 O   0  0  0  0  0  0  0  0  0  0  0  0
   -4.5825   -1.0555   -0.8863 C   0  0  2  0  0  0  0  0  0  0  0  0
   -5.5825   -2.1122   -1.1038 N   0  0  0  0  0  0  0  0  0  0  0  0
   -3.3722   -1.6422   -0.1694 C   0  0  0  0  0  0  0  0  0  0  0  0
   -2.3506   -0.5431    0.0962 C   0  0  2  0  0  0  0  0  0  0  0  0
   -1.1759   -1.1449    0.7362 N   0  0  0  0  0  0  0  0  0  0  0  0
   -2.9721    0.5688    0.9686 C   0  0  1  0  0  0  0  0  0  0  0  0
   -1.9253    1.5315    1.1661 O   0  0  0  0  0  0  0  0  0  0  0  0
   -1.5462    1.8120    2.5093 C   0  0  1  0  0  0  0  0  0  0  0  0
   -0.5876    0.8636    2.9702 O   0  0  0  0  0  0  0  0  0  0  0  0
    0.7038    0.9296    2.3691 C   0  0  2  0  0  0  0  0  0  0  0  0
    1.5952   -0.1566    2.9859 C   0  0  0  0  0  0  0  0  0  0  0  0
    2.9844   -0.0100    2.5757 N   0  0  0  0  0  0  0  0  0  0  0  0
    1.3406    2.3144    2.5890 C   0  0  1  0  0  0  0  0  0  0  0  0
    2.5951    2.3744    1.9339 O   0  0  0  0  0  0  0  0  0  0  0  0
    0.4020    3.3849    2.0183 C   0  0  2  0  0  0  0  0  0  0  0  0
    0.9182    4.6759    2.2830 O   0  0  0  0  0  0  0  0  0  0  0  0
   -1.0062    3.2430    2.6113 C   0  0  1  0  0  0  0  0  0  0  0  0
   -1.9249    4.1900    1.9634 N   0  0  0  0  0  0  0  0  0  0  0  0
   -4.3486    1.2522    3.4837 C   0  0  2  0  0  0  0  0  0  0  0  0
   -4.4362   -0.0667    3.9898 O   0  0  0  0  0  0  0  0  0  0  0  0
   -4.7390    2.3171    4.5074 C   0  0  2  0  0  0  0  0  0  0  0  0
   -4.3683    1.9944    5.8331 O   0  0  0  0  0  0  0  0  0  0  0  0
  2  1  1  0  0  0  0
  3  2  1  6  0  0  0
  3 30  1  0  0  0  0
  4  5  1  0  0  0  0
  4  3  1  0  0  0  0
  5 28  1  0  0  0  0
  5  6  1  6  0  0  0
  7  6  1  1  0  0  0
  8  7  1  0  0  0  0
  8  9  1  6  0  0  0
 10 11  1  1  0  0  0
 10  8  1  0  0  0  0
 12 10  1  0  0  0  0
 13 12  1  0  0  0  0
 13 15  1  0  0  0  0
 13 14  1  1  0  0  0
 15  7  1  0  0  0  0
 15 16  1  6  0  0  0
 17 16  1  6  0  0  0
 18 17  1  0  0  0  0
 19 20  1  1  0  0  0
 19 18  1  0  0  0  0
 20 21  1  0  0  0  0
 22 24  1  0  0  0  0
 22 19  1  0  0  0  0
 22 23  1  6  0  0  0
 24 25  1  1  0  0  0
 24 26  1  0  0  0  0
 26 17  1  0  0  0  0
 26 27  1  6  0  0  0
 28 29  1  1  0  0  0
 28 30  1  0  0  0  0
 30 31  1  1  0  0  0
M  END
>  <CHROM.1>
-65.52178590,58.55235443,-155.65678760,49.53564848,-55.69773797,-58.04943383
124.49626465,117.84465383,85.01315494,-170.82906406,-154.39144742,64.34872510
171.64658381,-168.64159122,-59.83418588,60.39786513,-2.82369801,1.38220450
2.10393099,-3.10691268,-0.02886923,-2.34849323

>  <Name>
lig.pdb

>  <RI>
2.74555e+07

>  <Rbt.Current_Directory>
/home/itssahil/PROJECTS/Mol_Feturizer/New_Systems/rnas/2n0j

>  <Rbt.Executable>
rbdock ($Id: //depot/dev/client3/rdock/2013.1/src/exe/rbdock.cxx#4 $)

>  <Rbt.Library>
libRbt.so (2013.1, Build901 2013/11/27)

>  <Rbt.Parameter_File>
/export/apps/rDock/src/rDock_2013.1_src/data/scripts/dock_solv.prm

>  <Rbt.Receptor>
prm/pocket_docking_6.prm

>  <SCORE>
-28.1526

>  <SCORE.INTER>
-30.723

>  <SCORE.INTER.CONST>
1

>  <SCORE.INTER.POLAR>
-4.36664

>  <SCORE.INTER.ROT>
6

>  <SCORE.INTER.SOLV>
13.9049

>  <SCORE.INTER.VDW>
-18.1615

>  <SCORE.INTER.norm>
-0.991066

>  <SCORE.INTRA>
2.5705

>  <SCORE.INTRA.DIHEDRAL>
-8.50177

>  <SCORE.INTRA.DIHEDRAL.0>
28.0161

>  <SCORE.INTRA.POLAR>
0.568255

>  <SCORE.INTRA.POLAR.0>
-1.05798

>  <SCORE.INTRA.REPUL>
0

>  <SCORE.INTRA.REPUL.0>
0

>  <SCORE.INTRA.SOLV>
1.14928

>  <SCORE.INTRA.SOLV.lig_0>
-42.5945

>  <SCORE.INTRA.VDW>
4.31467

>  <SCORE.INTRA.VDW.0>
-5.13869

>  <SCORE.INTRA.norm>
0.0829192

>  <SCORE.RESTR>
0

>  <SCORE.RESTR.CAVITY>
0

>  <SCORE.RESTR.norm>
0

>  <SCORE.SYSTEM>
0

>  <SCORE.SYSTEM.CONST>
0

>  <SCORE.SYSTEM.DIHEDRAL>
0

>  <SCORE.SYSTEM.SOLV>
0

>  <SCORE.SYSTEM.norm>
0

>  <SCORE.heavy>
31

>  <SCORE.norm>
-0.908147

>  <RMSD>
3.550

$$$$
lig.pdb
 OpenBabel11021811453D
libRbt.so/2013.1/901 2013/11/27
 31 33  0  0  0  0  0  0  0  0999 V2000
   -0.9111   -0.8321    8.7996 O   0  0  0  0  0  0  0  0  0  0  0  0
   -1.1802   -0.7486    7.4137 C   0  0  0  0  0  0  0  0  0  0  0  0
   -0.0008   -1.2687    6.5808 C   0  0  1  0  0  0  0  0  0  0  0  0
   -0.3387   -1.3941    5.2085 O   0  0  0  0  0  0  0  0  0  0  0  0
    0.8377   -1.2798    4.4136 C   0  0  1  0  0  0  0  0  0  0  0  0
    0.6092   -0.3737    3.3409 O   0  0  0  0  0  0  0  0  0  0  0  0
   -0.6655   -0.4149    2.7193 C   0  0  2  0  0  0  0  0  0  0  0  0
   -0.9195   -1.8623    2.2691 C   0  0  1  0  0  0  0  0  0  0  0  0
   -1.1114   -2.6898    3.4056 O   0  0  0  0  0  0  0  0  0  0  0  0
   -2.1522   -2.0307    1.3678 C   0  0  2  0  0  0  0  0  0  0  0  0
   -2.2774   -3.4191    0.8981 N   0  0  0  0  0  0  0  0  0  0  0  0
   -2.0432   -1.0971    0.1680 C   0  0  0  0  0  0  0  0  0  0  0  0
   -1.8710    0.3385    0.6489 C   0  0  2  0  0  0  0  0  0  0  0  0
   -1.8240    1.2191   -0.5233 N   0  0  0  0  0  0  0  0  0  0  0  0
   -0.5984    0.4666    1.5136 C   0  0  1  0  0  0  0  0  0  0  0  0
   -0.5299    1.8498    1.8928 O   0  0  0  0  0  0  0  0  0  0  0  0
    0.2037    2.1643    3.0715 C   0  0  1  0  0  0  0  0  0  0  0  0
    1.5961    1.9341    2.8741 O   0  0  0  0  0  0  0  0  0  0  0  0
    2.2593    2.8170    1.9718 C   0  0  2  0  0  0  0  0  0  0  0  0
    3.7395    2.4214    1.8872 C   0  0  0  0  0  0  0  0  0  0  0  0
    3.9543    1.0458    2.3130 N   0  0  0  0  0  0  0  0  0  0  0  0
    2.1356    4.2776    2.4439 C   0  0  1  0  0  0  0  0  0  0  0  0
    2.7505    5.1392    1.5026 O   0  0  0  0  0  0  0  0  0  0  0  0
    0.6485    4.6281    2.5786 C   0  0  2  0  0  0  0  0  0  0  0  0
    0.5019    5.9375    3.0953 O   0  0  0  0  0  0  0  0  0  0  0  0
   -0.0671    3.6158    3.4832 C   0  0  1  0  0  0  0  0  0  0  0  0
   -1.5116    3.8875    3.5013 N   0  0  0  0  0  0  0  0  0  0  0  0
    1.9400   -0.7256    5.3279 C   0  0  2  0  0  0  0  0  0  0  0  0
    2.8930   -1.7367    5.5983 O   0  0  0  0  0  0  0  0  0  0  0  0
    1.1635   -0.2833    6.5671 C   0  0  2  0  0  0  0  0  0  0  0  0
    1.9322   -0.2939    7.7537 O   0  0  0  0  0  0  0  0  0  0  0  0
  2  1  1  0  0  0  0
  3  2  1  1  0  0  0
  3 30  1  0  0  0  0
  4  5  1  0  0  0  0
  4  3  1  0  0  0  0
  5 28  1  0  0  0  0
  5  6  1  6  0  0  0
  7  6  1  6  0  0  0
  8  7  1  0  0  0  0
  8  9  1  1  0  0  0
 10 11  1  6  0  0  0
 10  8  1  0  0  0  0
 12 10  1  0  0  0  0
 13 12  1  0  0  0  0
 13 15  1  0  0  0  0
 13 14  1  6  0  0  0
 15  7  1  0  0  0  0
 15 16  1  1  0  0  0
 17 16  1  6  0  0  0
 18 17  1  0  0  0  0
 19 20  1  1  0  0  0
 19 18  1  0  0  0  0
 20 21  1  0  0  0  0
 22 24  1  0  0  0  0
 22 19  1  0  0  0  0
 22 23  1  6  0  0  0
 24 25  1  1  0  0  0
 24 26  1  0  0  0  0
 26 17  1  0  0  0  0
 26 27  1  6  0  0  0
 28 29  1  1  0  0  0
 28 30  1  0  0  0  0
 30 31  1  1  0  0  0
M  END
>  <CHROM.1>
27.68573976,170.41395549,-38.56077129,-54.59108986,59.86101776,69.45016153
153.43107560,35.44103861,68.38774163,20.90381769,-37.95722074,62.09245653
-60.63765627,-175.80743406,177.81717021,-176.02368998,0.30949564,0.69150069
3.37992984,-1.95336977,-0.95942210,-0.86662661

>  <Name>
lig.pdb

>  <RI>
0

>  <Rbt.Current_Directory>
/home/itssahil/PROJECTS/Mol_Feturizer/New_Systems/rnas/2n0j

>  <Rbt.Executable>
rbdock ($Id: //depot/dev/client3/rdock/2013.1/src/exe/rbdock.cxx#4 $)

>  <Rbt.Library>
libRbt.so (2013.1, Build901 2013/11/27)

>  <Rbt.Parameter_File>
/export/apps/rDock/src/rDock_2013.1_src/data/scripts/dock_solv.prm

>  <Rbt.Receptor>
prm/blind_docking_40.prm

>  <SCORE>
-24.8477

>  <SCORE.INTER>
-32.6264

>  <SCORE.INTER.CONST>
1

>  <SCORE.INTER.POLAR>
-2.88628

>  <SCORE.INTER.ROT>
6

>  <SCORE.INTER.SOLV>
20.7638

>  <SCORE.INTER.VDW>
-26.6512

>  <SCORE.INTER.norm>
-1.05246

>  <SCORE.INTRA>
5.47752

>  <SCORE.INTRA.DIHEDRAL>
-11.369

>  <SCORE.INTRA.DIHEDRAL.0>
28.0161

>  <SCORE.INTRA.POLAR>
0.387451

>  <SCORE.INTRA.POLAR.0>
-1.05798

>  <SCORE.INTRA.REPUL>
0.150375

>  <SCORE.INTRA.REPUL.0>
0

>  <SCORE.INTRA.SOLV>
0.583659

>  <SCORE.INTRA.SOLV.lig_0>
-42.5945

>  <SCORE.INTRA.VDW>
8.80099

>  <SCORE.INTRA.VDW.0>
-5.13869

>  <SCORE.INTRA.norm>
0.176694

>  <SCORE.RESTR>
2.30115

>  <SCORE.RESTR.CAVITY>
2.30115

>  <SCORE.RESTR.norm>
0.0742305

>  <SCORE.SYSTEM>
0

>  <SCORE.SYSTEM.CONST>
0

>  <SCORE.SYSTEM.DIHEDRAL>
0

>  <SCORE.SYSTEM.SOLV>
0

>  <SCORE.SYSTEM.norm>
0

>  <SCORE.heavy>
31

>  <SCORE.norm>
-0.80154

>  <RMSD>
3.583

$$$$
lig.pdb
 OpenBabel11021811453D
libRbt.so/2013.1/901 2013/11/27
 31 33  0  0  0  0  0  0  0  0999 V2000
   -1.6744   -3.1358    6.7349 O   0  0  0  0  0  0  0  0  0  0  0  0
   -0.7574   -2.1562    7.1816 C   0  0  0  0  0  0  0  0  0  0  0  0
    0.2148   -1.7477    6.0665 C   0  0  1  0  0  0  0  0  0  0  0  0
   -0.4702   -1.3153    4.9017 O   0  0  0  0  0  0  0  0  0  0  0  0
    0.3560   -0.4182    4.1660 C   0  0  1  0  0  0  0  0  0  0  0  0
   -0.3906    0.7365    3.8012 O   0  0  0  0  0  0  0  0  0  0  0  0
   -1.0058    0.7321    2.5228 C   0  0  2  0  0  0  0  0  0  0  0  0
   -1.6344   -0.6543    2.3111 C   0  0  1  0  0  0  0  0  0  0  0  0
   -2.7444   -0.8138    3.1805 O   0  0  0  0  0  0  0  0  0  0  0  0
   -2.1352   -0.9031    0.8802 C   0  0  2  0  0  0  0  0  0  0  0  0
   -2.6335   -2.2787    0.7267 N   0  0  0  0  0  0  0  0  0  0  0  0
   -1.0025   -0.6604   -0.1104 C   0  0  0  0  0  0  0  0  0  0  0  0
   -0.4541    0.7494    0.0727 C   0  0  2  0  0  0  0  0  0  0  0  0
    0.5949    0.9739   -0.9277 N   0  0  0  0  0  0  0  0  0  0  0  0
    0.0753    0.9376    1.5107 C   0  0  1  0  0  0  0  0  0  0  0  0
    0.5770    2.2819    1.5620 O   0  0  0  0  0  0  0  0  0  0  0  0
    1.2374    2.6834    2.7575 C   0  0  1  0  0  0  0  0  0  0  0  0
    2.6266    2.8929    2.5190 O   0  0  0  0  0  0  0  0  0  0  0  0
    2.9645    4.0142    1.7055 C   0  0  2  0  0  0  0  0  0  0  0  0
    4.4907    4.0814    1.5607 C   0  0  0  0  0  0  0  0  0  0  0  0
    5.0380    2.8342    1.0462 N   0  0  0  0  0  0  0  0  0  0  0  0
    2.4414    5.3214    2.3294 C   0  0  1  0  0  0  0  0  0  0  0  0
    2.7377    6.4120    1.4754 O   0  0  0  0  0  0  0  0  0  0  0  0
    0.9239    5.2044    2.5193 C   0  0  2  0  0  0  0  0  0  0  0  0
    0.4249    6.3568    3.1721 O   0  0  0  0  0  0  0  0  0  0  0  0
    0.5737    3.9444    3.3223 C   0  0  1  0  0  0  0  0  0  0  0  0
   -0.8850    3.7763    3.3876 N   0  0  0  0  0  0  0  0  0  0  0  0
    1.5089   -0.0118    5.0954 C   0  0  2  0  0  0  0  0  0  0  0  0
    2.7151   -0.6051    4.6521 O   0  0  0  0  0  0  0  0  0  0  0  0
    1.0474   -0.5306    6.4564 C   0  0  2  0  0  0  0  0  0  0  0  0
    2.1092   -0.8271    7.3418 O   0  0  0  0  0  0  0  0  0  0  0  0
  2  1  1  0  0  0  0
  3  2  1  1  0  0  0
  3 30  1  0  0  0  0
  4  5  1  0  0  0  0
  4  3  1  0  0  0  0
  5 28  1  0  0  0  0
  5  6  1  1  0  0  0
  7  6  1  1  0  0  0
  8  7  1  0  0  0  0
  8  9  1  1  0  0  0
 10 11  1  1  0  0  0
 10  8  1  0  0  0  0
 12 10  1  0  0  0  0
 13 12  1  0  0  0  0
 13 15  1  0  0  0  0
 13 14  1  6  0  0  0
 15  7  1  0  0  0  0
 15 16  1  6  0  0  0
 17 16  1  6  0  0  0
 18 17  1  0  0  0  0
 19 20  1  1  0  0  0
 19 18  1  0  0  0  0
 20 21  1  0  0  0  0
 22 24  1  0  0  0  0
 22 19  1  0  0  0  0
 22 23  1  6  0  0  0
 24 25  1  1  0  0  0
 24 26  1  0  0  0  0
 26 17  1  0  0  0  0
 26 27  1  6  0  0  0
 28 29  1  6  0  0  0
 28 30  1  0  0  0  0
 30 31  1  1  0  0  0
M  END
>  <CHROM.1>
-59.06113989,54.86966237,-93.91505779,42.89324451,-66.89260527,49.12091517
-99.49376919,64.55588102,111.95040721,55.12155047,-88.73346196,-174.86833960
-59.77623136,47.27367995,-178.38279623,-22.57003790,0.55037097,1.21624233
3.04002076,-2.24468734,-0.83986011,-0.98452669

>  <Name>
lig.pdb

>  <RI>
0

>  <Rbt.Current_Directory>
/home/itssahil/PROJECTS/Mol_Feturizer/New_Systems/rnas/2n0j

>  <Rbt.Executable>
rbdock ($Id: //depot/dev/client3/rdock/2013.1/src/exe/rbdock.cxx#4 $)

>  <Rbt.Library>
libRbt.so (2013.1, Build901 2013/11/27)

>  <Rbt.Parameter_File>
/export/apps/rDock/src/rDock_2013.1_src/data/scripts/dock_solv.prm

>  <Rbt.Receptor>
prm/blind_docking_60.prm

>  <SCORE>
-25.9312

>  <SCORE.INTER>
-32.4008

>  <SCORE.INTER.CONST>
1

>  <SCORE.INTER.POLAR>
-3.17118

>  <SCORE.INTER.ROT>
6

>  <SCORE.INTER.SOLV>
21.1815

>  <SCORE.INTER.VDW>
-25.6905

>  <SCORE.INTER.norm>
-1.04519

>  <SCORE.INTRA>
1.55666

>  <SCORE.INTRA.DIHEDRAL>
-4.59485

>  <SCORE.INTRA.DIHEDRAL.0>
28.0161

>  <SCORE.INTRA.POLAR>
-0.111483

>  <SCORE.INTRA.POLAR.0>
-1.05798

>  <SCORE.INTRA.REPUL>
0

>  <SCORE.INTRA.REPUL.0>
0

>  <SCORE.INTRA.SOLV>
-0.315822

>  <SCORE.INTRA.SOLV.lig_0>
-42.5945

>  <SCORE.INTRA.VDW>
4.39103

>  <SCORE.INTRA.VDW.0>
-5.13869

>  <SCORE.INTRA.norm>
0.0502148

>  <SCORE.RESTR>
4.91294

>  <SCORE.RESTR.CAVITY>
4.91294

>  <SCORE.RESTR.norm>
0.158482

>  <SCORE.SYSTEM>
0

>  <SCORE.SYSTEM.CONST>
0

>  <SCORE.SYSTEM.DIHEDRAL>
0

>  <SCORE.SYSTEM.SOLV>
0

>  <SCORE.SYSTEM.norm>
0

>  <SCORE.heavy>
31

>  <SCORE.norm>
-0.836491

>  <RMSD>
3.629

$$$$
lig.pdb
 OpenBabel11021811453D
libRbt.so/2013.1/901 2013/11/27
 31 33  0  0  0  0  0  0  0  0999 V2000
   -1.7232   -3.3316    6.6970 O   0  0  0  0  0  0  0  0  0  0  0  0
   -0.8320   -2.3580    7.2049 C   0  0  0  0  0  0  0  0  0  0  0  0
    0.1872   -1.9222    6.1435 C   0  0  1  0  0  0  0  0  0  0  0  0
   -0.4472   -1.4468    4.9668 O   0  0  0  0  0  0  0  0  0  0  0  0
    0.4145   -0.5335    4.2943 C   0  0  1  0  0  0  0  0  0  0  0  0
   -0.3085    0.6387    3.9376 O   0  0  0  0  0  0  0  0  0  0  0  0
   -0.9409    0.6476    2.6676 C   0  0  2  0  0  0  0  0  0  0  0  0
   -1.5705   -0.7372    2.4489 C   0  0  1  0  0  0  0  0  0  0  0  0
   -2.6686   -0.9079    3.3313 O   0  0  0  0  0  0  0  0  0  0  0  0
   -2.0902   -0.9709    1.0222 C   0  0  2  0  0  0  0  0  0  0  0  0
   -2.5888   -2.3453    0.8602 N   0  0  0  0  0  0  0  0  0  0  0  0
   -0.9712   -0.7156    0.0193 C   0  0  0  0  0  0  0  0  0  0  0  0
   -0.4221    0.6929    0.2107 C   0  0  2  0  0  0  0  0  0  0  0  0
    0.6132    0.9298   -0.8011 N   0  0  0  0  0  0  0  0  0  0  0  0
    0.1264    0.8658    1.6435 C   0  0  1  0  0  0  0  0  0  0  0  0
    0.6271    2.2101    1.7029 O   0  0  0  0  0  0  0  0  0  0  0  0
    1.3492    2.5829    2.8717 C   0  0  1  0  0  0  0  0  0  0  0  0
    2.7187    2.8252    2.5613 O   0  0  0  0  0  0  0  0  0  0  0  0
    2.9909    3.9791    1.7689 C   0  0  2  0  0  0  0  0  0  0  0  0
    4.5049    4.0784    1.5392 C   0  0  0  0  0  0  0  0  0  0  0  0
    5.0507    2.8390    1.0047 N   0  0  0  0  0  0  0  0  0  0  0  0
    2.4841    5.2550    2.4667 C   0  0  1  0  0  0  0  0  0  0  0  0
    2.7129    6.3788    1.6353 O   0  0  0  0  0  0  0  0  0  0  0  0
    0.9823    5.1046    2.7393 C   0  0  2  0  0  0  0  0  0  0  0  0
    0.5036    6.2252    3.4590 O   0  0  0  0  0  0  0  0  0  0  0  0
    0.6994    3.8122    3.5170 C   0  0  1  0  0  0  0  0  0  0  0  0
   -0.7503    3.6159    3.6600 N   0  0  0  0  0  0  0  0  0  0  0  0
    1.5319   -0.1670    5.2818 C   0  0  2  0  0  0  0  0  0  0  0  0
    2.7507   -0.7560    4.8680 O   0  0  0  0  0  0  0  0  0  0  0  0
    1.0123   -0.7253    6.6057 C   0  0  2  0  0  0  0  0  0  0  0  0
    2.0354   -1.0592    7.5227 O   0  0  0  0  0  0  0  0  0  0  0  0
  2  1  1  0  0  0  0
  3  2  1  1  0  0  0
  3 30  1  0  0  0  0
  4  5  1  0  0  0  0
  4  3  1  0  0  0  0
  5 28  1  0  0  0  0
  5  6  1  1  0  0  0
  7  6  1  1  0  0  0
  8  7  1  0  0  0  0
  8  9  1  1  0  0  0
 10 11  1  1  0  0  0
 10  8  1  0  0  0  0
 12 10  1  0  0  0  0
 13 12  1  0  0  0  0
 13 15  1  0  0  0  0
 13 14  1  6  0  0  0
 15  7  1  0  0  0  0
 15 16  1  6  0  0  0
 17 16  1  6  0  0  0
 18 17  1  0  0  0  0
 19 20  1  1  0  0  0
 19 18  1  0  0  0  0
 20 21  1  0  0  0  0
 22 24  1  0  0  0  0
 22 19  1  0  0  0  0
 22 23  1  6  0  0  0
 24 25  1  1  0  0  0
 24 26  1  0  0  0  0
 26 17  1  0  0  0  0
 26 27  1  6  0  0  0
 28 29  1  6  0  0  0
 28 30  1  0  0  0  0
 30 31  1  1  0  0  0
M  END
>  <CHROM.1>
-57.01345474,55.86357477,-90.15924744,41.24912854,-162.70515893,169.41860895
37.09729603,66.98756671,112.91761777,52.66992456,-81.58529793,60.49380332
64.23410659,44.57144817,67.00683162,56.01824437,0.58414310,1.11182474,3.15420258
-2.25545559,-0.85074168,-0.99769554

>  <Name>
lig.pdb

>  <RI>
9.20816e+06

>  <Rbt.Current_Directory>
/home/itssahil/PROJECTS/Mol_Feturizer/New_Systems/rnas/2n0j

>  <Rbt.Executable>
rbdock ($Id: //depot/dev/client3/rdock/2013.1/src/exe/rbdock.cxx#4 $)

>  <Rbt.Library>
libRbt.so (2013.1, Build901 2013/11/27)

>  <Rbt.Parameter_File>
/export/apps/rDock/src/rDock_2013.1_src/data/scripts/dock_solv.prm

>  <Rbt.Receptor>
prm/blind_docking_100.prm

>  <SCORE>
-23.6389

>  <SCORE.INTER>
-27.664

>  <SCORE.INTER.CONST>
1

>  <SCORE.INTER.POLAR>
-2.63967

>  <SCORE.INTER.ROT>
6

>  <SCORE.INTER.SOLV>
22.5485

>  <SCORE.INTER.VDW>
-24.7599

>  <SCORE.INTER.norm>
-0.892388

>  <SCORE.INTRA>
-0.632357

>  <SCORE.INTRA.DIHEDRAL>
-10.2439

>  <SCORE.INTRA.DIHEDRAL.0>
28.0161

>  <SCORE.INTRA.POLAR>
0.169258

>  <SCORE.INTRA.POLAR.0>
-1.05798

>  <SCORE.INTRA.REPUL>
0

>  <SCORE.INTRA.REPUL.0>
0

>  <SCORE.INTRA.SOLV>
-0.334271

>  <SCORE.INTRA.SOLV.lig_0>
-42.5945

>  <SCORE.INTRA.VDW>
4.08127

>  <SCORE.INTRA.VDW.0>
-5.13869

>  <SCORE.INTRA.norm>
-0.0203986

>  <SCORE.RESTR>
4.65746

>  <SCORE.RESTR.CAVITY>
4.65746

>  <SCORE.RESTR.norm>
0.150241

>  <SCORE.SYSTEM>
0

>  <SCORE.SYSTEM.CONST>
0

>  <SCORE.SYSTEM.DIHEDRAL>
0

>  <SCORE.SYSTEM.SOLV>
0

>  <SCORE.SYSTEM.norm>
0

>  <SCORE.heavy>
31

>  <SCORE.norm>
-0.762546

>  <RMSD>
3.699

$$$$
lig.pdb
 OpenBabel11021811453D
libRbt.so/2013.1/901 2013/11/27
 31 33  0  0  0  0  0  0  0  0999 V2000
   -1.8487   -1.6979    7.5598 O   0  0  0  0  0  0  0  0  0  0  0  0
   -0.9152   -0.6936    7.2132 C   0  0  0  0  0  0  0  0  0  0  0  0
    0.2154   -1.2556    6.3408 C   0  0  1  0  0  0  0  0  0  0  0  0
   -0.2055   -1.4650    5.0021 O   0  0  0  0  0  0  0  0  0  0  0  0
    0.9182   -1.3913    4.1300 C   0  0  1  0  0  0  0  0  0  0  0  0
    0.6149   -0.5525    3.0218 O   0  0  0  0  0  0  0  0  0  0  0  0
   -0.7300   -0.5375    2.5705 C   0  0  2  0  0  0  0  0  0  0  0  0
   -1.1227   -1.9821    2.2226 C   0  0  1  0  0  0  0  0  0  0  0  0
   -1.2120   -2.7526    3.4108 O   0  0  0  0  0  0  0  0  0  0  0  0
   -2.4698   -2.1071    1.4947 C   0  0  2  0  0  0  0  0  0  0  0  0
   -2.7340   -3.5017    1.1084 N   0  0  0  0  0  0  0  0  0  0  0  0
   -2.4647   -1.2281    0.2495 C   0  0  0  0  0  0  0  0  0  0  0  0
   -2.1498    0.2111    0.6388 C   0  0  2  0  0  0  0  0  0  0  0  0
   -2.2056    1.0422   -0.5686 N   0  0  0  0  0  0  0  0  0  0  0  0
   -0.7703    0.2920    1.3272 C   0  0  1  0  0  0  0  0  0  0  0  0
   -0.5742    1.6815    1.6313 O   0  0  0  0  0  0  0  0  0  0  0  0
    0.3115    1.9933    2.7012 C   0  0  1  0  0  0  0  0  0  0  0  0
    1.6681    1.8982    2.2755 O   0  0  0  0  0  0  0  0  0  0  0  0
    2.1074    2.8850    1.3445 C   0  0  2  0  0  0  0  0  0  0  0  0
    3.5814    2.6267    1.0050 C   0  0  0  0  0  0  0  0  0  0  0  0
    4.3988    2.5160    2.2048 N   0  0  0  0  0  0  0  0  0  0  0  0
    1.9468    4.3004    1.9297 C   0  0  1  0  0  0  0  0  0  0  0  0
    2.3340    5.2639    0.9662 O   0  0  0  0  0  0  0  0  0  0  0  0
    0.4776    4.5103    2.3165 C   0  0  2  0  0  0  0  0  0  0  0  0
    0.3134    5.7709    2.9387 O   0  0  0  0  0  0  0  0  0  0  0  0
   -0.0028    3.3901    3.2489 C   0  0  1  0  0  0  0  0  0  0  0  0
   -1.4425    3.5320    3.5088 N   0  0  0  0  0  0  0  0  0  0  0  0
    2.0696   -0.7767    4.9392 C   0  0  2  0  0  0  0  0  0  0  0  0
    3.0473   -1.7640    5.2093 O   0  0  0  0  0  0  0  0  0  0  0  0
    1.3669   -0.2656    6.1960 C   0  0  2  0  0  0  0  0  0  0  0  0
    2.2077   -0.2005    7.3309 O   0  0  0  0  0  0  0  0  0  0  0  0
  2  1  1  0  0  0  0
  3  2  1  1  0  0  0
  3 30  1  0  0  0  0
  4  5  1  0  0  0  0
  4  3  1  0  0  0  0
  5 28  1  0  0  0  0
  5  6  1  6  0  0  0
  7  6  1  6  0  0  0
  8  7  1  0  0  0  0
  8  9  1  1  0  0  0
 10 11  1  6  0  0  0
 10  8  1  0  0  0  0
 12 10  1  0  0  0  0
 13 12  1  0  0  0  0
 13 15  1  0  0  0  0
 13 14  1  6  0  0  0
 15  7  1  0  0  0  0
 15 16  1  1  0  0  0
 17 16  1  6  0  0  0
 18 17  1  0  0  0  0
 19 20  1  1  0  0  0
 19 18  1  0  0  0  0
 20 21  1  0  0  0  0
 22 24  1  0  0  0  0
 22 19  1  0  0  0  0
 22 23  1  6  0  0  0
 24 25  1  1  0  0  0
 24 26  1  0  0  0  0
 26 17  1  0  0  0  0
 26 27  1  6  0  0  0
 28 29  1  1  0  0  0
 28 30  1  0  0  0  0
 30 31  1  1  0  0  0
M  END
>  <CHROM.1>
-175.75162446,76.24988051,-32.32734599,-56.95742872,-94.18643866,-0.97166875
157.05806294,34.73841051,78.99059573,-52.31118874,-78.65024599,-66.09748561
175.46955234,-63.22559030,179.72237655,32.84110010,0.22660261,0.64203132
3.10325122,-2.07232437,-0.80843869,-0.81952627

>  <Name>
lig.pdb

>  <RI>
1.55206e+07

>  <Rbt.Current_Directory>
/home/itssahil/PROJECTS/Mol_Feturizer/New_Systems/rnas/2n0j

>  <Rbt.Executable>
rbdock ($Id: //depot/dev/client3/rdock/2013.1/src/exe/rbdock.cxx#4 $)

>  <Rbt.Library>
libRbt.so (2013.1, Build901 2013/11/27)

>  <Rbt.Parameter_File>
/export/apps/rDock/src/rDock_2013.1_src/data/scripts/dock_solv.prm

>  <Rbt.Receptor>
prm/blind_docking_80.prm

>  <SCORE>
-18.6234

>  <SCORE.INTER>
-33.2074

>  <SCORE.INTER.CONST>
1

>  <SCORE.INTER.POLAR>
-3.85695

>  <SCORE.INTER.ROT>
6

>  <SCORE.INTER.SOLV>
20.8487

>  <SCORE.INTER.VDW>
-23.8313

>  <SCORE.INTER.norm>
-1.07121

>  <SCORE.INTRA>
11.4172

>  <SCORE.INTRA.DIHEDRAL>
-5.69203

>  <SCORE.INTRA.DIHEDRAL.0>
28.0161

>  <SCORE.INTRA.POLAR>
0.978431

>  <SCORE.INTRA.POLAR.0>
-1.05798

>  <SCORE.INTRA.REPUL>
0

>  <SCORE.INTRA.REPUL.0>
0

>  <SCORE.INTRA.SOLV>
-0.0443433

>  <SCORE.INTRA.SOLV.lig_0>
-42.5945

>  <SCORE.INTRA.VDW>
10.9588

>  <SCORE.INTRA.VDW.0>
-5.13869

>  <SCORE.INTRA.norm>
0.368298

>  <SCORE.RESTR>
3.16677

>  <SCORE.RESTR.CAVITY>
3.16677

>  <SCORE.RESTR.norm>
0.102154

>  <SCORE.SYSTEM>
0

>  <SCORE.SYSTEM.CONST>
0

>  <SCORE.SYSTEM.DIHEDRAL>
0

>  <SCORE.SYSTEM.SOLV>
0

>  <SCORE.SYSTEM.norm>
0

>  <SCORE.heavy>
31

>  <SCORE.norm>
-0.600755

>  <RMSD>
3.709

$$$$
lig.pdb
 OpenBabel11021811453D
libRbt.so/2013.1/901 2013/11/27
 31 33  0  0  0  0  0  0  0  0999 V2000
   -1.4592    4.2162    7.7569 O   0  0  0  0  0  0  0  0  0  0  0  0
   -2.5925    4.9152    7.2804 C   0  0  0  0  0  0  0  0  0  0  0  0
   -3.6718    3.9516    6.7688 C   0  0  1  0  0  0  0  0  0  0  0  0
   -3.2455    3.2474    5.6132 O   0  0  0  0  0  0  0  0  0  0  0  0
   -3.9402    2.0071    5.5251 C   0  0  1  0  0  0  0  0  0  0  0  0
   -3.0187    0.9553    5.2638 O   0  0  0  0  0  0  0  0  0  0  0  0
   -3.3976   -0.0119    4.2973 C   0  0  2  0  0  0  0  0  0  0  0  0
   -4.3540   -1.0036    4.9783 C   0  0  1  0  0  0  0  0  0  0  0  0
   -5.5871   -0.3611    5.2614 O   0  0  0  0  0  0  0  0  0  0  0  0
   -4.6703   -2.2483    4.1352 C   0  0  2  0  0  0  0  0  0  0  0  0
   -5.5098   -3.1951    4.8854 N   0  0  0  0  0  0  0  0  0  0  0  0
   -3.3727   -2.9351    3.7257 C   0  0  0  0  0  0  0  0  0  0  0  0
   -2.4808   -1.9467    2.9845 C   0  0  2  0  0  0  0  0  0  0  0  0
   -1.2659   -2.6478    2.5554 N   0  0  0  0  0  0  0  0  0  0  0  0
   -2.1559   -0.7358    3.8855 C   0  0  1  0  0  0  0  0  0  0  0  0
   -1.3058    0.1116    3.0975 O   0  0  0  0  0  0  0  0  0  0  0  0
   -0.6147    1.1527    3.7795 C   0  0  1  0  0  0  0  0  0  0  0  0
    0.2591    0.6135    4.7676 O   0  0  0  0  0  0  0  0  0  0  0  0
    1.3901   -0.1075    4.2833 C   0  0  2  0  0  0  0  0  0  0  0  0
    2.2102   -0.6079    5.4798 C   0  0  0  0  0  0  0  0  0  0  0  0
    1.3647   -1.2259    6.4912 N   0  0  0  0  0  0  0  0  0  0  0  0
    2.2669    0.7864    3.3867 C   0  0  1  0  0  0  0  0  0  0  0  0
    3.3500    0.0327    2.8716 O   0  0  0  0  0  0  0  0  0  0  0  0
    1.4085    1.3218    2.2339 C   0  0  2  0  0  0  0  0  0  0  0  0
    2.1637    2.2178    1.4402 O   0  0  0  0  0  0  0  0  0  0  0  0
    0.1512    2.0178    2.7723 C   0  0  1  0  0  0  0  0  0  0  0  0
   -0.7234    2.4125    1.6588 N   0  0  0  0  0  0  0  0  0  0  0  0
   -4.6110    1.7755    6.8869 C   0  0  2  0  0  0  0  0  0  0  0  0
   -6.0125    1.9318    6.7647 O   0  0  0  0  0  0  0  0  0  0  0  0
   -3.9615    2.8389    7.7711 C   0  0  2  0  0  0  0  0  0  0  0  0
   -4.7700    3.2470    8.8569 O   0  0  0  0  0  0  0  0  0  0  0  0
  2  1  1  0  0  0  0
  3  2  1  1  0  0  0
  3 30  1  0  0  0  0
  4  5  1  0  0  0  0
  4  3  1  0  0  0  0
  5 28  1  0  0  0  0
  5  6  1  1  0  0  0
  7  6  1  1  0  0  0
  8  7  1  0  0  0  0
  8  9  1  6  0  0  0
 10 11  1  1  0  0  0
 10  8  1  0  0  0  0
 12 10  1  0  0  0  0
 13 12  1  0  0  0  0
 13 15  1  0  0  0  0
 13 14  1  1  0  0  0
 15  7  1  0  0  0  0
 15 16  1  6  0  0  0
 17 16  1  6  0  0  0
 18 17  1  0  0  0  0
 19 20  1  1  0  0  0
 19 18  1  0  0  0  0
 20 21  1  0  0  0  0
 22 24  1  0  0  0  0
 22 19  1  0  0  0  0
 22 23  1  6  0  0  0
 24 25  1  1  0  0  0
 24 26  1  0  0  0  0
 26 17  1  0  0  0  0
 26 27  1  6  0  0  0
 28 29  1  6  0  0  0
 28 30  1  0  0  0  0
 30 31  1  1  0  0  0
M  END
>  <CHROM.1>
176.52084953,-66.27556607,-136.89733429,-80.07000350,-173.81882873,75.47100363
-63.53366701,72.80276374,61.13934896,46.80926937,62.08418397,99.52111132
65.01581711,60.16620048,177.07558516,-60.41644867,-1.86844946,0.73442278
4.77012846,-2.68811819,-0.38596569,-2.62850488

>  <Name>
lig.pdb

>  <RI>
0

>  <Rbt.Current_Directory>
/home/itssahil/PROJECTS/Mol_Feturizer/New_Systems/rnas/2n0j

>  <Rbt.Executable>
rbdock ($Id: //depot/dev/client3/rdock/2013.1/src/exe/rbdock.cxx#4 $)

>  <Rbt.Library>
libRbt.so (2013.1, Build901 2013/11/27)

>  <Rbt.Parameter_File>
/export/apps/rDock/src/rDock_2013.1_src/data/scripts/dock_solv.prm

>  <Rbt.Receptor>
prm/pocket_docking_8.prm

>  <SCORE>
-31.7618

>  <SCORE.INTER>
-31.9175

>  <SCORE.INTER.CONST>
1

>  <SCORE.INTER.POLAR>
-4.36568

>  <SCORE.INTER.ROT>
6

>  <SCORE.INTER.SOLV>
12.162

>  <SCORE.INTER.VDW>
-18.3801

>  <SCORE.INTER.norm>
-1.0296

>  <SCORE.INTRA>
0.155749

>  <SCORE.INTRA.DIHEDRAL>
-12.0842

>  <SCORE.INTRA.DIHEDRAL.0>
28.0161

>  <SCORE.INTRA.POLAR>
1.05593

>  <SCORE.INTRA.POLAR.0>
-1.05798

>  <SCORE.INTRA.REPUL>
0

>  <SCORE.INTRA.REPUL.0>
0

>  <SCORE.INTRA.SOLV>
0.648239

>  <SCORE.INTRA.SOLV.lig_0>
-42.5945

>  <SCORE.INTRA.VDW>
2.28357

>  <SCORE.INTRA.VDW.0>
-5.13869

>  <SCORE.INTRA.norm>
0.00502415

>  <SCORE.RESTR>
0

>  <SCORE.RESTR.CAVITY>
0

>  <SCORE.RESTR.norm>
0

>  <SCORE.SYSTEM>
0

>  <SCORE.SYSTEM.CONST>
0

>  <SCORE.SYSTEM.DIHEDRAL>
0

>  <SCORE.SYSTEM.SOLV>
0

>  <SCORE.SYSTEM.norm>
0

>  <SCORE.heavy>
31

>  <SCORE.norm>
-1.02457

>  <RMSD>
3.736

$$$$
lig.pdb
 OpenBabel11021811453D
libRbt.so/2013.1/901 2013/11/27
 31 33  0  0  0  0  0  0  0  0999 V2000
   -5.8944    1.2550    7.4922 O   0  0  0  0  0  0  0  0  0  0  0  0
   -4.8155    1.5644    8.3527 C   0  0  0  0  0  0  0  0  0  0  0  0
   -3.6312    0.6138    8.1318 C   0  0  1  0  0  0  0  0  0  0  0  0
   -3.1951    0.6191    6.7817 O   0  0  0  0  0  0  0  0  0  0  0  0
   -1.8199    0.2530    6.7216 C   0  0  1  0  0  0  0  0  0  0  0  0
   -1.1134    1.1659    5.8901 O   0  0  0  0  0  0  0  0  0  0  0  0
   -1.1827    0.9521    4.4892 C   0  0  2  0  0  0  0  0  0  0  0  0
   -0.3572   -0.3035    4.1664 C   0  0  1  0  0  0  0  0  0  0  0  0
   -1.0136   -1.4521    4.6795 O   0  0  0  0  0  0  0  0  0  0  0  0
   -0.1341   -0.5373    2.6645 C   0  0  2  0  0  0  0  0  0  0  0  0
    0.7417   -1.6968    2.4349 N   0  0  0  0  0  0  0  0  0  0  0  0
    0.4920    0.7033    2.0385 C   0  0  0  0  0  0  0  0  0  0  0  0
   -0.3903    1.9157    2.3095 C   0  0  2  0  0  0  0  0  0  0  0  0
    0.2070    3.0822    1.6505 N   0  0  0  0  0  0  0  0  0  0  0  0
   -0.5500    2.1352    3.8294 C   0  0  1  0  0  0  0  0  0  0  0  0
   -1.3775    3.3008    3.9638 O   0  0  0  0  0  0  0  0  0  0  0  0
   -0.9096    4.3335    4.8246 C   0  0  1  0  0  0  0  0  0  0  0  0
   -0.4569    5.4529    4.0679 O   0  0  0  0  0  0  0  0  0  0  0  0
   -1.4602    6.1939    3.3767 C   0  0  2  0  0  0  0  0  0  0  0  0
   -0.7924    7.3528    2.6245 C   0  0  0  0  0  0  0  0  0  0  0  0
    0.2016    6.8758    1.6737 N   0  0  0  0  0  0  0  0  0  0  0  0
   -2.5092    6.7454    4.3600 C   0  0  1  0  0  0  0  0  0  0  0  0
   -3.5248    7.4265    3.6448 O   0  0  0  0  0  0  0  0  0  0  0  0
   -3.1170    5.5737    5.1411 C   0  0  2  0  0  0  0  0  0  0  0  0
   -4.0228    6.0562    6.1156 O   0  0  0  0  0  0  0  0  0  0  0  0
   -2.0161    4.7365    5.8060 C   0  0  1  0  0  0  0  0  0  0  0  0
   -2.6008    3.5478    6.4429 N   0  0  0  0  0  0  0  0  0  0  0  0
   -1.2745    0.3361    8.1547 C   0  0  2  0  0  0  0  0  0  0  0  0
   -1.0247   -0.9663    8.6497 O   0  0  0  0  0  0  0  0  0  0  0  0
   -2.3929    1.0602    8.9026 C   0  0  2  0  0  0  0  0  0  0  0  0
   -2.4420    0.7583   10.2830 O   0  0  0  0  0  0  0  0  0  0  0  0
  2  1  1  0  0  0  0
  3  2  1  6  0  0  0
  3 30  1  0  0  0  0
  4  5  1  0  0  0  0
  4  3  1  0  0  0  0
  5 28  1  0  0  0  0
  5  6  1  6  0  0  0
  7  6  1  1  0  0  0
  8  7  1  0  0  0  0
  8  9  1  6  0  0  0
 10 11  1  1  0  0  0
 10  8  1  0  0  0  0
 12 10  1  0  0  0  0
 13 12  1  0  0  0  0
 13 15  1  0  0  0  0
 13 14  1  6  0  0  0
 15  7  1  0  0  0  0
 15 16  1  6  0  0  0
 17 16  1  6  0  0  0
 18 17  1  0  0  0  0
 19 20  1  1  0  0  0
 19 18  1  0  0  0  0
 20 21  1  0  0  0  0
 22 24  1  0  0  0  0
 22 19  1  0  0  0  0
 22 23  1  6  0  0  0
 24 25  1  1  0  0  0
 24 26  1  0  0  0  0
 26 17  1  0  0  0  0
 26 27  1  6  0  0  0
 28 29  1  1  0  0  0
 28 30  1  0  0  0  0
 30 31  1  1  0  0  0
M  END
>  <CHROM.1>
58.00555443,56.28183785,-81.65310441,-71.17857623,62.23927635,-68.61228500
75.32823008,109.92922117,107.02896103,58.92106912,-33.92271295,163.33303320
178.95821737,157.96508162,-57.77612448,58.20491189,-1.71104843,2.54209526
5.15890305,1.80066429,-0.94680185,2.70398817

>  <Name>
lig.pdb

>  <RI>
3.33129e+07

>  <Rbt.Current_Directory>
/home/itssahil/PROJECTS/Mol_Feturizer/New_Systems/rnas/2n0j

>  <Rbt.Executable>
rbdock ($Id: //depot/dev/client3/rdock/2013.1/src/exe/rbdock.cxx#4 $)

>  <Rbt.Library>
libRbt.so (2013.1, Build901 2013/11/27)

>  <Rbt.Parameter_File>
/export/apps/rDock/src/rDock_2013.1_src/data/scripts/dock_solv.prm

>  <Rbt.Receptor>
prm/pocket_docking_4.prm

>  <SCORE>
-37.3485

>  <SCORE.INTER>
-35.1073

>  <SCORE.INTER.CONST>
1

>  <SCORE.INTER.POLAR>
-4.68535

>  <SCORE.INTER.ROT>
6

>  <SCORE.INTER.SOLV>
14.6465

>  <SCORE.INTER.VDW>
-20.2692

>  <SCORE.INTER.norm>
-1.13249

>  <SCORE.INTRA>
-2.29085

>  <SCORE.INTRA.DIHEDRAL>
-7.26531

>  <SCORE.INTRA.DIHEDRAL.0>
28.0161

>  <SCORE.INTRA.POLAR>
0.150524

>  <SCORE.INTRA.POLAR.0>
-1.05798

>  <SCORE.INTRA.REPUL>
0.0290732

>  <SCORE.INTRA.REPUL.0>
0

>  <SCORE.INTRA.SOLV>
0.554607

>  <SCORE.INTRA.SOLV.lig_0>
-42.5945

>  <SCORE.INTRA.VDW>
0.407349

>  <SCORE.INTRA.VDW.0>
-5.13869

>  <SCORE.INTRA.norm>
-0.0738984

>  <SCORE.RESTR>
0.0496789

>  <SCORE.RESTR.CAVITY>
0.0496789

>  <SCORE.RESTR.norm>
0.00160254

>  <SCORE.SYSTEM>
0

>  <SCORE.SYSTEM.CONST>
0

>  <SCORE.SYSTEM.DIHEDRAL>
0

>  <SCORE.SYSTEM.SOLV>
0

>  <SCORE.SYSTEM.norm>
0

>  <SCORE.heavy>
31

>  <SCORE.norm>
-1.20479

>  <RMSD>
3.763

$$$$
lig.pdb
 OpenBabel11021811453D
libRbt.so/2013.1/901 2013/11/27
 31 33  0  0  0  0  0  0  0  0999 V2000
   -3.3178    7.3204    5.2140 O   0  0  0  0  0  0  0  0  0  0  0  0
   -2.4000    6.2660    5.4286 C   0  0  0  0  0  0  0  0  0  0  0  0
   -1.7729    5.7911    4.1108 C   0  0  1  0  0  0  0  0  0  0  0  0
   -0.4834    5.2343    4.3107 O   0  0  0  0  0  0  0  0  0  0  0  0
   -0.1983    4.3022    3.2721 C   0  0  1  0  0  0  0  0  0  0  0  0
    0.3073    3.0959    3.8316 O   0  0  0  0  0  0  0  0  0  0  0  0
    0.9503    2.1919    2.9472 C   0  0  2  0  0  0  0  0  0  0  0  0
    1.0362    0.8291    3.6524 C   0  0  1  0  0  0  0  0  0  0  0  0
   -0.2618    0.2673    3.7668 O   0  0  0  0  0  0  0  0  0  0  0  0
    1.9165   -0.1984    2.9247 C   0  0  2  0  0  0  0  0  0  0  0  0
    2.0307   -1.4415    3.7030 N   0  0  0  0  0  0  0  0  0  0  0  0
    3.3054    0.3856    2.6949 C   0  0  0  0  0  0  0  0  0  0  0  0
    3.1902    1.6957    1.9252 C   0  0  2  0  0  0  0  0  0  0  0  0
    4.5417    2.2061    1.6710 N   0  0  0  0  0  0  0  0  0  0  0  0
    2.3337    2.7092    2.7145 C   0  0  1  0  0  0  0  0  0  0  0  0
    2.3081    3.8983    1.9102 O   0  0  0  0  0  0  0  0  0  0  0  0
    2.7133    5.1124    2.5333 C   0  0  1  0  0  0  0  0  0  0  0  0
    4.0798    5.0422    2.9312 O   0  0  0  0  0  0  0  0  0  0  0  0
    5.0421    5.0145    1.8792 C   0  0  2  0  0  0  0  0  0  0  0  0
    6.4468    4.9408    2.4923 C   0  0  0  0  0  0  0  0  0  0  0  0
    7.3885    4.2770    1.6023 N   0  0  0  0  0  0  0  0  0  0  0  0
    4.9237    6.2697    0.9949 C   0  0  1  0  0  0  0  0  0  0  0  0
    5.8486    6.1910   -0.0751 O   0  0  0  0  0  0  0  0  0  0  0  0
    3.4945    6.3522    0.4444 C   0  0  2  0  0  0  0  0  0  0  0  0
    3.3285    7.5430   -0.3022 O   0  0  0  0  0  0  0  0  0  0  0  0
    2.4699    6.2922    1.5853 C   0  0  1  0  0  0  0  0  0  0  0  0
    1.1067    6.2433    1.0378 N   0  0  0  0  0  0  0  0  0  0  0  0
   -1.5251    4.0181    2.5531 C   0  0  2  0  0  0  0  0  0  0  0  0
   -1.5101    4.6081    1.2666 O   0  0  0  0  0  0  0  0  0  0  0  0
   -2.5594    4.6413    3.4892 C   0  0  2  0  0  0  0  0  0  0  0  0
   -3.7446    5.0501    2.8357 O   0  0  0  0  0  0  0  0  0  0  0  0
  2  1  1  0  0  0  0
  3  2  1  1  0  0  0
  3 30  1  0  0  0  0
  4  5  1  0  0  0  0
  4  3  1  0  0  0  0
  5 28  1  0  0  0  0
  5  6  1  1  0  0  0
  7  6  1  1  0  0  0
  8  7  1  0  0  0  0
  8  9  1  6  0  0  0
 10 11  1  1  0  0  0
 10  8  1  0  0  0  0
 12 10  1  0  0  0  0
 13 12  1  0  0  0  0
 13 15  1  0  0  0  0
 13 14  1  1  0  0  0
 15  7  1  0  0  0  0
 15 16  1  6  0  0  0
 17 16  1  6  0  0  0
 18 17  1  0  0  0  0
 19 20  1  1  0  0  0
 19 18  1  0  0  0  0
 20 21  1  0  0  0  0
 22 24  1  0  0  0  0
 22 19  1  0  0  0  0
 22 23  1  6  0  0  0
 24 25  1  1  0  0  0
 24 26  1  0  0  0  0
 26 17  1  0  0  0  0
 26 27  1  6  0  0  0
 28 29  1  6  0  0  0
 28 30  1  0  0  0  0
 30 31  1  6  0  0  0
M  END
>  <CHROM.1>
-72.15885763,152.70978632,-164.70858713,-163.65501295,-168.61328528,-167.86086324
169.89732274,113.19751920,63.20101700,152.06480538,90.69330857,62.23352532
-61.16848192,62.82659567,64.31822045,174.05086640,1.64242062,4.08307757,2.53875619
3.10351447,-0.32128721,2.91913540

>  <Name>
lig.pdb

>  <RI>
0

>  <Rbt.Current_Directory>
/home/itssahil/PROJECTS/Mol_Feturizer/New_Systems/rnas/2n0j

>  <Rbt.Executable>
rbdock ($Id: //depot/dev/client3/rdock/2013.1/src/exe/rbdock.cxx#4 $)

>  <Rbt.Library>
libRbt.so (2013.1, Build901 2013/11/27)

>  <Rbt.Parameter_File>
/export/apps/rDock/src/rDock_2013.1_src/data/scripts/dock_solv.prm

>  <Rbt.Receptor>
prm/pocket_docking_8.prm

>  <SCORE>
-42.1781

>  <SCORE.INTER>
-42.7341

>  <SCORE.INTER.CONST>
1

>  <SCORE.INTER.POLAR>
-3.95937

>  <SCORE.INTER.ROT>
6

>  <SCORE.INTER.SOLV>
21.7466

>  <SCORE.INTER.VDW>
-30.1404

>  <SCORE.INTER.norm>
-1.37852

>  <SCORE.INTRA>
0.555988

>  <SCORE.INTRA.DIHEDRAL>
-9.59902

>  <SCORE.INTRA.DIHEDRAL.0>
28.0161

>  <SCORE.INTRA.POLAR>
1.05127

>  <SCORE.INTRA.POLAR.0>
-1.05798

>  <SCORE.INTRA.REPUL>
0

>  <SCORE.INTRA.REPUL.0>
0

>  <SCORE.INTRA.SOLV>
1.54314

>  <SCORE.INTRA.SOLV.lig_0>
-42.5945

>  <SCORE.INTRA.VDW>
1.00963

>  <SCORE.INTRA.VDW.0>
-5.13869

>  <SCORE.INTRA.norm>
0.0179351

>  <SCORE.RESTR>
0

>  <SCORE.RESTR.CAVITY>
0

>  <SCORE.RESTR.norm>
0

>  <SCORE.SYSTEM>
0

>  <SCORE.SYSTEM.CONST>
0

>  <SCORE.SYSTEM.DIHEDRAL>
0

>  <SCORE.SYSTEM.SOLV>
0

>  <SCORE.SYSTEM.norm>
0

>  <SCORE.heavy>
31

>  <SCORE.norm>
-1.36059

>  <RMSD>
3.781

$$$$
lig.pdb
 OpenBabel11021811453D
libRbt.so/2013.1/901 2013/11/27
 31 33  0  0  0  0  0  0  0  0999 V2000
   -1.8578    3.6228    9.2184 O   0  0  0  0  0  0  0  0  0  0  0  0
   -0.7948    2.6953    9.3180 C   0  0  0  0  0  0  0  0  0  0  0  0
   -1.1491    1.3615    8.6465 C   0  0  1  0  0  0  0  0  0  0  0  0
   -1.5516    1.5404    7.2978 O   0  0  0  0  0  0  0  0  0  0  0  0
   -1.2907    0.3512    6.5587 C   0  0  1  0  0  0  0  0  0  0  0  0
   -0.6313    0.6749    5.3404 O   0  0  0  0  0  0  0  0  0  0  0  0
   -1.3916    0.5754    4.1468 C   0  0  2  0  0  0  0  0  0  0  0  0
   -0.7204   -0.4780    3.2512 C   0  0  1  0  0  0  0  0  0  0  0  0
   -0.8858   -1.7664    3.8224 O   0  0  0  0  0  0  0  0  0  0  0  0
   -1.2827   -0.5358    1.8227 C   0  0  2  0  0  0  0  0  0  0  0  0
   -0.5310   -1.4941    0.9976 N   0  0  0  0  0  0  0  0  0  0  0  0
   -1.2115    0.8471    1.1859 C   0  0  0  0  0  0  0  0  0  0  0  0
   -1.9531    1.8525    2.0584 C   0  0  2  0  0  0  0  0  0  0  0  0
   -1.9152    3.1605    1.3954 N   0  0  0  0  0  0  0  0  0  0  0  0
   -1.3261    1.9061    3.4682 C   0  0  1  0  0  0  0  0  0  0  0  0
   -2.0867    2.8874    4.1893 O   0  0  0  0  0  0  0  0  0  0  0  0
   -1.3630    3.7839    5.0255 C   0  0  1  0  0  0  0  0  0  0  0  0
   -0.5928    4.6917    4.2423 O   0  0  0  0  0  0  0  0  0  0  0  0
   -1.3271    5.6539    3.4883 C   0  0  2  0  0  0  0  0  0  0  0  0
   -0.3397    6.5387    2.7158 C   0  0  0  0  0  0  0  0  0  0  0  0
   -1.0288    7.5114    1.8799 N   0  0  0  0  0  0  0  0  0  0  0  0
   -2.1970    6.5263    4.4124 C   0  0  1  0  0  0  0  0  0  0  0  0
   -2.9597    7.4334    3.6364 O   0  0  0  0  0  0  0  0  0  0  0  0
   -3.1313    5.6136    5.2164 C   0  0  2  0  0  0  0  0  0  0  0  0
   -3.8835    6.3787    6.1394 O   0  0  0  0  0  0  0  0  0  0  0  0
   -2.3303    4.5302    5.9512 C   0  0  1  0  0  0  0  0  0  0  0  0
   -3.2441    3.5879    6.6128 N   0  0  0  0  0  0  0  0  0  0  0  0
   -0.3688   -0.5182    7.4262 C   0  0  2  0  0  0  0  0  0  0  0  0
   -1.0828   -1.6404    7.9104 O   0  0  0  0  0  0  0  0  0  0  0  0
    0.0635    0.4432    8.5322 C   0  0  2  0  0  0  0  0  0  0  0  0
    0.4063   -0.2006    9.7434 O   0  0  0  0  0  0  0  0  0  0  0  0
  2  1  1  0  0  0  0
  3  2  1  6  0  0  0
  3 30  1  0  0  0  0
  4  5  1  0  0  0  0
  4  3  1  0  0  0  0
  5 28  1  0  0  0  0
  5  6  1  6  0  0  0
  7  6  1  1  0  0  0
  8  7  1  0  0  0  0
  8  9  1  1  0  0  0
 10 11  1  6  0  0  0
 10  8  1  0  0  0  0
 12 10  1  0  0  0  0
 13 12  1  0  0  0  0
 13 15  1  0  0  0  0
 13 14  1  6  0  0  0
 15  7  1  0  0  0  0
 15 16  1  1  0  0  0
 17 16  1  6  0  0  0
 18 17  1  0  0  0  0
 19 20  1  1  0  0  0
 19 18  1  0  0  0  0
 20 21  1  0  0  0  0
 22 24  1  0  0  0  0
 22 19  1  0  0  0  0
 22 23  1  6  0  0  0
 24 25  1  1  0  0  0
 24 26  1  0  0  0  0
 26 17  1  0  0  0  0
 26 27  1  6  0  0  0
 28 29  1  1  0  0  0
 28 30  1  0  0  0  0
 30 31  1  1  0  0  0
M  END
>  <CHROM.1>
-176.33115967,54.73951202,-106.81637868,-118.66467979,-62.99745201,61.16018111
75.21379088,100.63046670,69.76308813,177.67264719,1.14463995,57.04495372
72.46738872,-165.11534724,-56.84694045,60.69728569,-1.43849808,2.52122126
5.03224770,0.50454497,-1.36250672,1.59072064

>  <Name>
lig.pdb

>  <RI>
3.32461e+07

>  <Rbt.Current_Directory>
/home/itssahil/PROJECTS/Mol_Feturizer/New_Systems/rnas/2n0j

>  <Rbt.Executable>
rbdock ($Id: //depot/dev/client3/rdock/2013.1/src/exe/rbdock.cxx#4 $)

>  <Rbt.Library>
libRbt.so (2013.1, Build901 2013/11/27)

>  <Rbt.Parameter_File>
/export/apps/rDock/src/rDock_2013.1_src/data/scripts/dock_solv.prm

>  <Rbt.Receptor>
prm/pocket_docking_7.prm

>  <SCORE>
-37.774

>  <SCORE.INTER>
-36.513

>  <SCORE.INTER.CONST>
1

>  <SCORE.INTER.POLAR>
-5.01724

>  <SCORE.INTER.ROT>
6

>  <SCORE.INTER.SOLV>
17.0876

>  <SCORE.INTER.VDW>
-20.9137

>  <SCORE.INTER.norm>
-1.17784

>  <SCORE.INTRA>
-1.26099

>  <SCORE.INTRA.DIHEDRAL>
-2.4543

>  <SCORE.INTRA.DIHEDRAL.0>
28.0161

>  <SCORE.INTRA.POLAR>
-0.532669

>  <SCORE.INTRA.POLAR.0>
-1.05798

>  <SCORE.INTRA.REPUL>
0

>  <SCORE.INTRA.REPUL.0>
0

>  <SCORE.INTRA.SOLV>
1.93663

>  <SCORE.INTRA.SOLV.lig_0>
-42.5945

>  <SCORE.INTRA.VDW>
0.80892

>  <SCORE.INTRA.VDW.0>
-5.13869

>  <SCORE.INTRA.norm>
-0.0406772

>  <SCORE.RESTR>
0

>  <SCORE.RESTR.CAVITY>
0

>  <SCORE.RESTR.norm>
0

>  <SCORE.SYSTEM>
0

>  <SCORE.SYSTEM.CONST>
0

>  <SCORE.SYSTEM.DIHEDRAL>
0

>  <SCORE.SYSTEM.SOLV>
0

>  <SCORE.SYSTEM.norm>
0

>  <SCORE.heavy>
31

>  <SCORE.norm>
-1.21852

>  <RMSD>
3.808

$$$$
lig.pdb
 OpenBabel11021811453D
libRbt.so/2013.1/901 2013/11/27
 31 33  0  0  0  0  0  0  0  0999 V2000
   -6.4064    3.1408    2.7841 O   0  0  0  0  0  0  0  0  0  0  0  0
   -5.4153    2.1479    2.6051 C   0  0  0  0  0  0  0  0  0  0  0  0
   -4.0795    2.5691    3.2325 C   0  0  1  0  0  0  0  0  0  0  0  0
   -3.0556    1.6199    2.9801 O   0  0  0  0  0  0  0  0  0  0  0  0
   -1.7860    2.2646    3.0162 C   0  0  1  0  0  0  0  0  0  0  0  0
   -1.0181    1.8823    1.8813 O   0  0  0  0  0  0  0  0  0  0  0  0
   -0.1766    0.7487    2.0213 C   0  0  2  0  0  0  0  0  0  0  0  0
   -1.0776   -0.4908    2.1405 C   0  0  1  0  0  0  0  0  0  0  0  0
   -1.7148   -0.7399    0.8974 O   0  0  0  0  0  0  0  0  0  0  0  0
   -0.3297   -1.7731    2.5358 C   0  0  2  0  0  0  0  0  0  0  0  0
   -1.2648   -2.8928    2.7255 N   0  0  0  0  0  0  0  0  0  0  0  0
    0.4481   -1.5378    3.8253 C   0  0  0  0  0  0  0  0  0  0  0  0
    1.3885   -0.3520    3.6481 C   0  0  2  0  0  0  0  0  0  0  0  0
    2.1619   -0.1832    4.8831 N   0  0  0  0  0  0  0  0  0  0  0  0
    0.5885    0.9202    3.2943 C   0  0  1  0  0  0  0  0  0  0  0  0
    1.5652    1.9650    3.1689 O   0  0  0  0  0  0  0  0  0  0  0  0
    1.8829    2.4022    1.8518 C   0  0  1  0  0  0  0  0  0  0  0  0
    1.2747    3.6617    1.5792 O   0  0  0  0  0  0  0  0  0  0  0  0
    1.7881    4.7791    2.3011 C   0  0  2  0  0  0  0  0  0  0  0  0
    1.0199    6.0388    1.8796 C   0  0  0  0  0  0  0  0  0  0  0  0
    1.1494    6.2959    0.4524 N   0  0  0  0  0  0  0  0  0  0  0  0
    3.2912    4.9671    2.0236 C   0  0  1  0  0  0  0  0  0  0  0  0
    3.7898    6.0449    2.7957 O   0  0  0  0  0  0  0  0  0  0  0  0
    4.0270    3.6739    2.3960 C   0  0  2  0  0  0  0  0  0  0  0  0
    5.3998    3.7840    2.0701 O   0  0  0  0  0  0  0  0  0  0  0  0
    3.4042    2.4697    1.6769 C   0  0  1  0  0  0  0  0  0  0  0  0
    4.0339    1.2245    2.1390 N   0  0  0  0  0  0  0  0  0  0  0  0
   -2.0533    3.7761    2.9698 C   0  0  2  0  0  0  0  0  0  0  0  0
   -1.7601    4.3544    4.2280 O   0  0  0  0  0  0  0  0  0  0  0  0
   -3.5351    3.8482    2.6047 C   0  0  2  0  0  0  0  0  0  0  0  0
   -4.1764    5.0233    3.0597 O   0  0  0  0  0  0  0  0  0  0  0  0
  2  1  1  0  0  0  0
  3  2  1  6  0  0  0
  3 30  1  0  0  0  0
  4  5  1  0  0  0  0
  4  3  1  0  0  0  0
  5 28  1  0  0  0  0
  5  6  1  6  0  0  0
  7  6  1  1  0  0  0
  8  7  1  0  0  0  0
  8  9  1  6  0  0  0
 10 11  1  1  0  0  0
 10  8  1  0  0  0  0
 12 10  1  0  0  0  0
 13 12  1  0  0  0  0
 13 15  1  0  0  0  0
 13 14  1  1  0  0  0
 15  7  1  0  0  0  0
 15 16  1  6  0  0  0
 17 16  1  1  0  0  0
 18 17  1  0  0  0  0
 19 20  1  6  0  0  0
 19 18  1  0  0  0  0
 20 21  1  0  0  0  0
 22 24  1  0  0  0  0
 22 19  1  0  0  0  0
 22 23  1  1  0  0  0
 24 25  1  6  0  0  0
 24 26  1  0  0  0  0
 26 17  1  0  0  0  0
 26 27  1  1  0  0  0
 28 29  1  1  0  0  0
 28 30  1  0  0  0  0
 30 31  1  1  0  0  0
M  END
>  <CHROM.1>
176.05054256,-176.04011369,-91.01536849,69.24832483,62.50077454,85.58056175
-159.87748853,-15.43406176,104.50465465,-59.54220945,-172.62237647,-59.24297617
171.88677324,71.17838100,-58.03644561,-174.73932894,-0.02378738,2.33151238
2.56868494,2.87567473,-0.04778743,3.03939022

>  <Name>
lig.pdb

>  <RI>
0

>  <Rbt.Current_Directory>
/home/itssahil/PROJECTS/Mol_Feturizer/New_Systems/rnas/2n0j

>  <Rbt.Executable>
rbdock ($Id: //depot/dev/client3/rdock/2013.1/src/exe/rbdock.cxx#4 $)

>  <Rbt.Library>
libRbt.so (2013.1, Build901 2013/11/27)

>  <Rbt.Parameter_File>
/export/apps/rDock/src/rDock_2013.1_src/data/scripts/dock_solv.prm

>  <Rbt.Receptor>
prm/pocket_docking_8.prm

>  <SCORE>
-39.6898

>  <SCORE.INTER>
-45.4555

>  <SCORE.INTER.CONST>
1

>  <SCORE.INTER.POLAR>
-6.14809

>  <SCORE.INTER.ROT>
6

>  <SCORE.INTER.SOLV>
18.6112

>  <SCORE.INTER.VDW>
-23.6138

>  <SCORE.INTER.norm>
-1.46631

>  <SCORE.INTRA>
5.7657

>  <SCORE.INTRA.DIHEDRAL>
-7.9258

>  <SCORE.INTRA.DIHEDRAL.0>
28.0161

>  <SCORE.INTRA.POLAR>
0.969035

>  <SCORE.INTRA.POLAR.0>
-1.05798

>  <SCORE.INTRA.REPUL>
0

>  <SCORE.INTRA.REPUL.0>
0

>  <SCORE.INTRA.SOLV>
0.688089

>  <SCORE.INTRA.SOLV.lig_0>
-42.5945

>  <SCORE.INTRA.VDW>
6.08984

>  <SCORE.INTRA.VDW.0>
-5.13869

>  <SCORE.INTRA.norm>
0.18599

>  <SCORE.RESTR>
0

>  <SCORE.RESTR.CAVITY>
0

>  <SCORE.RESTR.norm>
0

>  <SCORE.SYSTEM>
0

>  <SCORE.SYSTEM.CONST>
0

>  <SCORE.SYSTEM.DIHEDRAL>
0

>  <SCORE.SYSTEM.SOLV>
0

>  <SCORE.SYSTEM.norm>
0

>  <SCORE.heavy>
31

>  <SCORE.norm>
-1.28032

>  <RMSD>
3.824

$$$$
lig.pdb
 OpenBabel11021811453D
libRbt.so/2013.1/901 2013/11/27
 31 33  0  0  0  0  0  0  0  0999 V2000
   -0.9443   -0.9345    7.3182 O   0  0  0  0  0  0  0  0  0  0  0  0
    0.2861   -0.3057    7.0168 C   0  0  0  0  0  0  0  0  0  0  0  0
    1.0534   -1.0673    5.9275 C   0  0  1  0  0  0  0  0  0  0  0  0
    0.2825   -1.2168    4.7458 O   0  0  0  0  0  0  0  0  0  0  0  0
    1.1488   -1.3514    3.6231 C   0  0  1  0  0  0  0  0  0  0  0  0
    0.7216   -0.4865    2.5775 O   0  0  0  0  0  0  0  0  0  0  0  0
   -0.6610   -0.4892    2.2595 C   0  0  2  0  0  0  0  0  0  0  0  0
   -1.0854   -1.9486    2.0309 C   0  0  1  0  0  0  0  0  0  0  0  0
   -1.0578   -2.6530    3.2624 O   0  0  0  0  0  0  0  0  0  0  0  0
   -2.4971   -2.1061    1.4458 C   0  0  2  0  0  0  0  0  0  0  0  0
   -2.7974   -3.5183    1.1638 N   0  0  0  0  0  0  0  0  0  0  0  0
   -2.6141   -1.2960    0.1601 C   0  0  0  0  0  0  0  0  0  0  0  0
   -2.2630    0.1606    0.4377 C   0  0  2  0  0  0  0  0  0  0  0  0
   -2.4368    0.9252   -0.8020 N   0  0  0  0  0  0  0  0  0  0  0  0
   -0.8228    0.2718    0.9827 C   0  0  1  0  0  0  0  0  0  0  0  0
   -0.5984    1.6747    1.1900 O   0  0  0  0  0  0  0  0  0  0  0  0
    0.1349    2.0504    2.3510 C   0  0  1  0  0  0  0  0  0  0  0  0
    1.5367    1.9577    2.1127 O   0  0  0  0  0  0  0  0  0  0  0  0
    2.0854    2.9072    1.2011 C   0  0  2  0  0  0  0  0  0  0  0  0
    3.5939    2.6575    1.0715 C   0  0  0  0  0  0  0  0  0  0  0  0
    4.2513    2.6466    2.3705 N   0  0  0  0  0  0  0  0  0  0  0  0
    1.8346    4.3455    1.6910 C   0  0  1  0  0  0  0  0  0  0  0  0
    2.3362    5.2693    0.7415 O   0  0  0  0  0  0  0  0  0  0  0  0
    0.3250    4.5492    1.8704 C   0  0  2  0  0  0  0  0  0  0  0  0
    0.0674    5.8345    2.4040 O   0  0  0  0  0  0  0  0  0  0  0  0
   -0.2632    3.4658    2.7844 C   0  0  1  0  0  0  0  0  0  0  0  0
   -1.7260    3.5961    2.8454 N   0  0  0  0  0  0  0  0  0  0  0  0
    2.5513   -0.9371    4.0915 C   0  0  2  0  0  0  0  0  0  0  0  0
    3.3876   -2.0764    4.1693 O   0  0  0  0  0  0  0  0  0  0  0  0
    2.2799   -0.2954    5.4513 C   0  0  2  0  0  0  0  0  0  0  0  0
    3.3764   -0.3638    6.3414 O   0  0  0  0  0  0  0  0  0  0  0  0
  2  1  1  0  0  0  0
  3  2  1  1  0  0  0
  3 30  1  0  0  0  0
  4  5  1  0  0  0  0
  4  3  1  0  0  0  0
  5 28  1  0  0  0  0
  5  6  1  6  0  0  0
  7  6  1  6  0  0  0
  8  7  1  0  0  0  0
  8  9  1  1  0  0  0
 10 11  1  6  0  0  0
 10  8  1  0  0  0  0
 12 10  1  0  0  0  0
 13 12  1  0  0  0  0
 13 15  1  0  0  0  0
 13 14  1  6  0  0  0
 15  7  1  0  0  0  0
 15 16  1  1  0  0  0
 17 16  1  6  0  0  0
 18 17  1  0  0  0  0
 19 20  1  1  0  0  0
 19 18  1  0  0  0  0
 20 21  1  0  0  0  0
 22 24  1  0  0  0  0
 22 19  1  0  0  0  0
 22 23  1  6  0  0  0
 24 25  1  1  0  0  0
 24 26  1  0  0  0  0
 26 17  1  0  0  0  0
 26 27  1  6  0  0  0
 28 29  1  1  0  0  0
 28 30  1  0  0  0  0
 30 31  1  1  0  0  0
M  END
>  <CHROM.1>
-57.30961981,56.41666953,-47.02719638,-51.83127455,-101.75534956,127.16396451
-79.35321113,20.08057919,83.44623239,-53.62025850,164.67681611,77.62102431
-57.55899161,75.27001381,55.14320757,-161.63144319,0.37983584,0.69357344
2.75164918,-1.91380898,-0.70021952,-0.58219642

>  <Name>
lig.pdb

>  <RI>
0

>  <Rbt.Current_Directory>
/home/itssahil/PROJECTS/Mol_Feturizer/New_Systems/rnas/2n0j

>  <Rbt.Executable>
rbdock ($Id: //depot/dev/client3/rdock/2013.1/src/exe/rbdock.cxx#4 $)

>  <Rbt.Library>
libRbt.so (2013.1, Build901 2013/11/27)

>  <Rbt.Parameter_File>
/export/apps/rDock/src/rDock_2013.1_src/data/scripts/dock_solv.prm

>  <Rbt.Receptor>
prm/blind_docking_40.prm

>  <SCORE>
-21.4949

>  <SCORE.INTER>
-34.7798

>  <SCORE.INTER.CONST>
1

>  <SCORE.INTER.POLAR>
-4.49757

>  <SCORE.INTER.ROT>
6

>  <SCORE.INTER.SOLV>
19.1213

>  <SCORE.INTER.VDW>
-22.1684

>  <SCORE.INTER.norm>
-1.12193

>  <SCORE.INTRA>
11.0997

>  <SCORE.INTRA.DIHEDRAL>
-4.43574

>  <SCORE.INTRA.DIHEDRAL.0>
28.0161

>  <SCORE.INTRA.POLAR>
0.926099

>  <SCORE.INTRA.POLAR.0>
-1.05798

>  <SCORE.INTRA.REPUL>
0.0976094

>  <SCORE.INTRA.REPUL.0>
0

>  <SCORE.INTRA.SOLV>
0.0960833

>  <SCORE.INTRA.SOLV.lig_0>
-42.5945

>  <SCORE.INTRA.VDW>
9.63275

>  <SCORE.INTRA.VDW.0>
-5.13869

>  <SCORE.INTRA.norm>
0.358055

>  <SCORE.RESTR>
2.18518

>  <SCORE.RESTR.CAVITY>
2.18518

>  <SCORE.RESTR.norm>
0.0704897

>  <SCORE.SYSTEM>
0

>  <SCORE.SYSTEM.CONST>
0

>  <SCORE.SYSTEM.DIHEDRAL>
0

>  <SCORE.SYSTEM.SOLV>
0

>  <SCORE.SYSTEM.norm>
0

>  <SCORE.heavy>
31

>  <SCORE.norm>
-0.693383

>  <RMSD>
3.941

$$$$
lig.pdb
 OpenBabel11021811453D
libRbt.so/2013.1/901 2013/11/27
 31 33  0  0  0  0  0  0  0  0999 V2000
   -3.3051    1.8420    8.7894 O   0  0  0  0  0  0  0  0  0  0  0  0
   -3.0208    0.4821    9.0537 C   0  0  0  0  0  0  0  0  0  0  0  0
   -2.3498   -0.1949    7.8509 C   0  0  1  0  0  0  0  0  0  0  0  0
   -3.1342   -0.0782    6.6745 O   0  0  0  0  0  0  0  0  0  0  0  0
   -2.2911   -0.1460    5.5284 C   0  0  1  0  0  0  0  0  0  0  0  0
   -2.6146    0.9071    4.6283 O   0  0  0  0  0  0  0  0  0  0  0  0
   -3.9582    0.9850    4.1794 C   0  0  2  0  0  0  0  0  0  0  0  0
   -4.2158   -0.2219    3.2633 C   0  0  1  0  0  0  0  0  0  0  0  0
   -4.2238   -1.4136    4.0334 O   0  0  0  0  0  0  0  0  0  0  0  0
   -5.5503   -0.1590    2.5048 C   0  0  2  0  0  0  0  0  0  0  0  0
   -5.6850   -1.2933    1.5779 N   0  0  0  0  0  0  0  0  0  0  0  0
   -5.6368    1.1472    1.7241 C   0  0  0  0  0  0  0  0  0  0  0  0
   -5.4558    2.3253    2.6733 C   0  0  2  0  0  0  0  0  0  0  0  0
   -5.5981    3.5672    1.9057 N   0  0  0  0  0  0  0  0  0  0  0  0
   -4.0851    2.2413    3.3789 C   0  0  1  0  0  0  0  0  0  0  0  0
   -4.0184    3.3984    4.2264 O   0  0  0  0  0  0  0  0  0  0  0  0
   -2.8306    3.5757    4.9908 C   0  0  1  0  0  0  0  0  0  0  0  0
   -1.6787    3.5035    4.1548 O   0  0  0  0  0  0  0  0  0  0  0  0
   -1.4992    4.5782    3.2348 C   0  0  2  0  0  0  0  0  0  0  0  0
   -0.2175    4.3324    2.4276 C   0  0  0  0  0  0  0  0  0  0  0  0
    0.9452    4.1932    3.2927 N   0  0  0  0  0  0  0  0  0  0  0  0
   -1.3987    5.9239    3.9769 C   0  0  1  0  0  0  0  0  0  0  0  0
   -1.2798    6.9798    3.0401 O   0  0  0  0  0  0  0  0  0  0  0  0
   -2.6636    6.1163    4.8226 C   0  0  2  0  0  0  0  0  0  0  0  0
   -2.5630    7.3041    5.5855 O   0  0  0  0  0  0  0  0  0  0  0  0
   -2.8886    4.9097    5.7437 C   0  0  1  0  0  0  0  0  0  0  0  0
   -4.1682    5.0479    6.4536 N   0  0  0  0  0  0  0  0  0  0  0  0
   -0.8490    0.0290    6.0263 C   0  0  2  0  0  0  0  0  0  0  0  0
   -0.1525   -1.1988    5.9215 O   0  0  0  0  0  0  0  0  0  0  0  0
   -1.0414    0.4907    7.4700 C   0  0  2  0  0  0  0  0  0  0  0  0
    0.0404    0.1650    8.3202 O   0  0  0  0  0  0  0  0  0  0  0  0
  2  1  1  0  0  0  0
  3  2  1  1  0  0  0
  3 30  1  0  0  0  0
  4  5  1  0  0  0  0
  4  3  1  0  0  0  0
  5 28  1  0  0  0  0
  5  6  1  6  0  0  0
  7  6  1  6  0  0  0
  8  7  1  0  0  0  0
  8  9  1  1  0  0  0
 10 11  1  6  0  0  0
 10  8  1  0  0  0  0
 12 10  1  0  0  0  0
 13 12  1  0  0  0  0
 13 15  1  0  0  0  0
 13 14  1  6  0  0  0
 15  7  1  0  0  0  0
 15 16  1  1  0  0  0
 17 16  1  6  0  0  0
 18 17  1  0  0  0  0
 19 20  1  1  0  0  0
 19 18  1  0  0  0  0
 20 21  1  0  0  0  0
 22 24  1  0  0  0  0
 22 19  1  0  0  0  0
 22 23  1  6  0  0  0
 24 25  1  1  0  0  0
 24 26  1  0  0  0  0
 26 17  1  0  0  0  0
 26 27  1  6  0  0  0
 28 29  1  1  0  0  0
 28 30  1  0  0  0  0
 30 31  1  1  0  0  0
M  END
>  <CHROM.1>
64.41170185,-56.15836442,-56.39155649,-68.92831633,-86.82828432,61.11259637
-174.99909304,59.93019124,52.17256188,-57.32350164,56.68615988,-162.58245844
67.12339831,-76.87782074,-60.43314147,65.97329089,-2.80186933,2.25135243
4.76903451,-1.77601309,-0.88788828,-0.43764063

>  <Name>
lig.pdb

>  <RI>
2.74555e+07

>  <Rbt.Current_Directory>
/home/itssahil/PROJECTS/Mol_Feturizer/New_Systems/rnas/2n0j

>  <Rbt.Executable>
rbdock ($Id: //depot/dev/client3/rdock/2013.1/src/exe/rbdock.cxx#4 $)

>  <Rbt.Library>
libRbt.so (2013.1, Build901 2013/11/27)

>  <Rbt.Parameter_File>
/export/apps/rDock/src/rDock_2013.1_src/data/scripts/dock_solv.prm

>  <Rbt.Receptor>
prm/pocket_docking_6.prm

>  <SCORE>
-27.7337

>  <SCORE.INTER>
-23.9141

>  <SCORE.INTER.CONST>
1

>  <SCORE.INTER.POLAR>
-3.27033

>  <SCORE.INTER.ROT>
6

>  <SCORE.INTER.SOLV>
13.8099

>  <SCORE.INTER.VDW>
-17.2449

>  <SCORE.INTER.norm>
-0.771423

>  <SCORE.INTRA>
-3.81961

>  <SCORE.INTRA.DIHEDRAL>
-21.1588

>  <SCORE.INTRA.DIHEDRAL.0>
28.0161

>  <SCORE.INTRA.POLAR>
1.04328

>  <SCORE.INTRA.POLAR.0>
-1.05798

>  <SCORE.INTRA.REPUL>
0

>  <SCORE.INTRA.REPUL.0>
0

>  <SCORE.INTRA.SOLV>
0.644007

>  <SCORE.INTRA.SOLV.lig_0>
-42.5945

>  <SCORE.INTRA.VDW>
2.89061

>  <SCORE.INTRA.VDW.0>
-5.13869

>  <SCORE.INTRA.norm>
-0.123213

>  <SCORE.RESTR>
0

>  <SCORE.RESTR.CAVITY>
0

>  <SCORE.RESTR.norm>
0

>  <SCORE.SYSTEM>
0

>  <SCORE.SYSTEM.CONST>
0

>  <SCORE.SYSTEM.DIHEDRAL>
0

>  <SCORE.SYSTEM.SOLV>
0

>  <SCORE.SYSTEM.norm>
0

>  <SCORE.heavy>
31

>  <SCORE.norm>
-0.894636

>  <RMSD>
4.050

$$$$
lig.pdb
 OpenBabel11021811453D
libRbt.so/2013.1/901 2013/11/27
 31 33  0  0  0  0  0  0  0  0999 V2000
    5.3323    0.0833    5.1939 O   0  0  0  0  0  0  0  0  0  0  0  0
    4.3608   -0.9429    5.2506 C   0  0  0  0  0  0  0  0  0  0  0  0
    2.9392   -0.3673    5.3053 C   0  0  1  0  0  0  0  0  0  0  0  0
    2.5723    0.2493    4.0813 O   0  0  0  0  0  0  0  0  0  0  0  0
    1.1555    0.2212    3.9371 C   0  0  1  0  0  0  0  0  0  0  0  0
    0.8118   -0.2388    2.6355 O   0  0  0  0  0  0  0  0  0  0  0  0
   -0.5692   -0.3117    2.3186 C   0  0  2  0  0  0  0  0  0  0  0  0
   -0.9313   -1.7951    2.1441 C   0  0  1  0  0  0  0  0  0  0  0  0
   -0.8752   -2.4519    3.4006 O   0  0  0  0  0  0  0  0  0  0  0  0
   -2.3345   -2.0336    1.5659 C   0  0  2  0  0  0  0  0  0  0  0  0
   -2.5745   -3.4667    1.3362 N   0  0  0  0  0  0  0  0  0  0  0  0
   -2.4842   -1.2770    0.2513 C   0  0  0  0  0  0  0  0  0  0  0  0
   -2.1953    0.2024    0.4749 C   0  0  2  0  0  0  0  0  0  0  0  0
   -2.4000    0.9128   -0.7920 N   0  0  0  0  0  0  0  0  0  0  0  0
   -0.7616    0.3943    1.0148 C   0  0  1  0  0  0  0  0  0  0  0  0
   -0.5969    1.8122    1.1702 O   0  0  0  0  0  0  0  0  0  0  0  0
    0.1187    2.2609    2.3160 C   0  0  1  0  0  0  0  0  0  0  0  0
    1.5192    2.0611    2.1448 O   0  0  0  0  0  0  0  0  0  0  0  0
    2.1574    2.8776    1.1653 C   0  0  2  0  0  0  0  0  0  0  0  0
    3.6506    2.5268    1.1222 C   0  0  0  0  0  0  0  0  0  0  0  0
    4.2385    2.5106    2.4540 N   0  0  0  0  0  0  0  0  0  0  0  0
    1.9815    4.3710    1.4976 C   0  0  1  0  0  0  0  0  0  0  0  0
    2.5724    5.1609    0.4811 O   0  0  0  0  0  0  0  0  0  0  0  0
    0.4826    4.6813    1.5948 C   0  0  2  0  0  0  0  0  0  0  0  0
    0.2887    6.0277    1.9858 O   0  0  0  0  0  0  0  0  0  0  0  0
   -0.2035    3.7345    2.5887 C   0  0  1  0  0  0  0  0  0  0  0  0
   -1.6564    3.9571    2.5774 N   0  0  0  0  0  0  0  0  0  0  0  0
    0.6211   -0.7634    4.9874 C   0  0  2  0  0  0  0  0  0  0  0  0
   -0.0549   -0.0551    6.0096 O   0  0  0  0  0  0  0  0  0  0  0  0
    1.8896   -1.4609    5.4760 C   0  0  2  0  0  0  0  0  0  0  0  0
    1.7934   -1.9563    6.7968 O   0  0  0  0  0  0  0  0  0  0  0  0
  2  1  1  0  0  0  0
  3  2  1  6  0  0  0
  3 30  1  0  0  0  0
  4  5  1  0  0  0  0
  4  3  1  0  0  0  0
  5 28  1  0  0  0  0
  5  6  1  6  0  0  0
  7  6  1  6  0  0  0
  8  7  1  0  0  0  0
  8  9  1  1  0  0  0
 10 11  1  6  0  0  0
 10  8  1  0  0  0  0
 12 10  1  0  0  0  0
 13 12  1  0  0  0  0
 13 15  1  0  0  0  0
 13 14  1  6  0  0  0
 15  7  1  0  0  0  0
 15 16  1  1  0  0  0
 17 16  1  6  0  0  0
 18 17  1  0  0  0  0
 19 20  1  1  0  0  0
 19 18  1  0  0  0  0
 20 21  1  0  0  0  0
 22 24  1  0  0  0  0
 22 19  1  0  0  0  0
 22 23  1  6  0  0  0
 24 25  1  1  0  0  0
 24 26  1  0  0  0  0
 26 17  1  0  0  0  0
 26 27  1  6  0  0  0
 28 29  1  1  0  0  0
 28 30  1  0  0  0  0
 30 31  1  1  0  0  0
M  END
>  <CHROM.1>
177.56482085,69.10068780,-179.24506632,-113.21213423,-89.78519071,-118.46775549
-81.83458160,20.08923871,76.11464072,-49.24795750,173.85783891,-175.69360713
173.22037374,71.32293118,-61.34373328,177.84361640,0.68946164,0.88377999
2.67976308,-1.71170028,-0.58102262,-0.49382963

>  <Name>
lig.pdb

>  <RI>
0

>  <Rbt.Current_Directory>
/home/itssahil/PROJECTS/Mol_Feturizer/New_Systems/rnas/2n0j

>  <Rbt.Executable>
rbdock ($Id: //depot/dev/client3/rdock/2013.1/src/exe/rbdock.cxx#4 $)

>  <Rbt.Library>
libRbt.so (2013.1, Build901 2013/11/27)

>  <Rbt.Parameter_File>
/export/apps/rDock/src/rDock_2013.1_src/data/scripts/dock_solv.prm

>  <Rbt.Receptor>
prm/blind_docking_60.prm

>  <SCORE>
-21.7779

>  <SCORE.INTER>
-31.4728

>  <SCORE.INTER.CONST>
1

>  <SCORE.INTER.POLAR>
-4.40894

>  <SCORE.INTER.ROT>
6

>  <SCORE.INTER.SOLV>
21.8861

>  <SCORE.INTER.VDW>
-21.1807

>  <SCORE.INTER.norm>
-1.01525

>  <SCORE.INTRA>
7.73598

>  <SCORE.INTRA.DIHEDRAL>
-4.46577

>  <SCORE.INTRA.DIHEDRAL.0>
28.0161

>  <SCORE.INTRA.POLAR>
0.264376

>  <SCORE.INTRA.POLAR.0>
-1.05798

>  <SCORE.INTRA.REPUL>
0

>  <SCORE.INTRA.REPUL.0>
0

>  <SCORE.INTRA.SOLV>
1.19656

>  <SCORE.INTRA.SOLV.lig_0>
-42.5945

>  <SCORE.INTRA.VDW>
8.4717

>  <SCORE.INTRA.VDW.0>
-5.13869

>  <SCORE.INTRA.norm>
0.249548

>  <SCORE.RESTR>
1.95888

>  <SCORE.RESTR.CAVITY>
1.95888

>  <SCORE.RESTR.norm>
0.0631895

>  <SCORE.SYSTEM>
0

>  <SCORE.SYSTEM.CONST>
0

>  <SCORE.SYSTEM.DIHEDRAL>
0

>  <SCORE.SYSTEM.SOLV>
0

>  <SCORE.SYSTEM.norm>
0

>  <SCORE.heavy>
31

>  <SCORE.norm>
-0.702514

>  <RMSD>
4.137

$$$$
lig.pdb
 OpenBabel11021811453D
libRbt.so/2013.1/901 2013/11/27
 31 33  0  0  0  0  0  0  0  0999 V2000
   -2.6398   -1.8712    5.8295 O   0  0  0  0  0  0  0  0  0  0  0  0
   -1.8644   -2.2253    6.9580 C   0  0  0  0  0  0  0  0  0  0  0  0
   -0.4229   -1.7142    6.8310 C   0  0  1  0  0  0  0  0  0  0  0  0
    0.2508   -2.3037    5.7302 O   0  0  0  0  0  0  0  0  0  0  0  0
    1.2824   -1.4320    5.2779 C   0  0  1  0  0  0  0  0  0  0  0  0
    1.2168   -1.3000    3.8629 O   0  0  0  0  0  0  0  0  0  0  0  0
   -0.0226   -0.8893    3.3079 C   0  0  2  0  0  0  0  0  0  0  0  0
   -0.8044   -2.1550    2.9220 C   0  0  1  0  0  0  0  0  0  0  0  0
   -1.2120   -2.8415    4.0951 O   0  0  0  0  0  0  0  0  0  0  0  0
   -2.0669   -1.8822    2.0903 C   0  0  2  0  0  0  0  0  0  0  0  0
   -2.7087   -3.1395    1.6763 N   0  0  0  0  0  0  0  0  0  0  0  0
   -1.7024   -1.0679    0.8545 C   0  0  0  0  0  0  0  0  0  0  0  0
   -0.9993    0.2168    1.2756 C   0  0  2  0  0  0  0  0  0  0  0  0
   -0.7099    1.0043    0.0724 N   0  0  0  0  0  0  0  0  0  0  0  0
    0.2839   -0.1086    2.0702 C   0  0  1  0  0  0  0  0  0  0  0  0
    0.8655    1.1629    2.3968 O   0  0  0  0  0  0  0  0  0  0  0  0
    1.3964    1.9295    1.3212 C   0  0  1  0  0  0  0  0  0  0  0  0
    0.5154    2.9965    0.9807 O   0  0  0  0  0  0  0  0  0  0  0  0
    0.3903    4.0420    1.9424 C   0  0  2  0  0  0  0  0  0  0  0  0
   -0.5899    5.0946    1.4076 C   0  0  0  0  0  0  0  0  0  0  0  0
   -1.7261    5.2747    2.2999 N   0  0  0  0  0  0  0  0  0  0  0  0
    1.7564    4.6955    2.2223 C   0  0  1  0  0  0  0  0  0  0  0  0
    1.6163    5.6894    3.2218 O   0  0  0  0  0  0  0  0  0  0  0  0
    2.7332    3.6123    2.6967 C   0  0  2  0  0  0  0  0  0  0  0  0
    4.0229    4.1659    2.8787 O   0  0  0  0  0  0  0  0  0  0  0  0
    2.7883    2.4542    1.6913 C   0  0  1  0  0  0  0  0  0  0  0  0
    3.6276    1.3682    2.2174 N   0  0  0  0  0  0  0  0  0  0  0  0
    1.0297   -0.0664    5.9332 C   0  0  2  0  0  0  0  0  0  0  0  0
    2.0159    0.1839    6.9172 O   0  0  0  0  0  0  0  0  0  0  0  0
   -0.3746   -0.2228    6.5144 C   0  0  2  0  0  0  0  0  0  0  0  0
   -0.6223    0.6049    7.6336 O   0  0  0  0  0  0  0  0  0  0  0  0
  2  1  1  0  0  0  0
  3  2  1  6  0  0  0
  3 30  1  0  0  0  0
  4  5  1  0  0  0  0
  4  3  1  0  0  0  0
  5 28  1  0  0  0  0
  5  6  1  6  0  0  0
  7  6  1  6  0  0  0
  8  7  1  0  0  0  0
  8  9  1  1  0  0  0
 10 11  1  6  0  0  0
 10  8  1  0  0  0  0
 12 10  1  0  0  0  0
 13 12  1  0  0  0  0
 13 15  1  0  0  0  0
 13 14  1  6  0  0  0
 15  7  1  0  0  0  0
 15 16  1  1  0  0  0
 17 16  1  1  0  0  0
 18 17  1  0  0  0  0
 19 20  1  6  0  0  0
 19 18  1  0  0  0  0
 20 21  1  0  0  0  0
 22 24  1  0  0  0  0
 22 19  1  0  0  0  0
 22 23  1  1  0  0  0
 24 25  1  6  0  0  0
 24 26  1  0  0  0  0
 26 17  1  0  0  0  0
 26 27  1  1  0  0  0
 28 29  1  1  0  0  0
 28 30  1  0  0  0  0
 30 31  1  1  0  0  0
M  END
>  <CHROM.1>
-176.72550135,-63.12224652,54.50034662,-93.92325017,-61.67539641,78.94522236
-82.60487653,170.67588874,103.69882890,120.99888231,67.04788835,52.86945171
-144.10257757,170.76103436,-52.16667357,-167.81453879,0.23077411,0.69741533
3.41319767,-2.17560746,-0.92878775,-0.97931687

>  <Name>
lig.pdb

>  <RI>
0

>  <Rbt.Current_Directory>
/home/itssahil/PROJECTS/Mol_Feturizer/New_Systems/rnas/2n0j

>  <Rbt.Executable>
rbdock ($Id: //depot/dev/client3/rdock/2013.1/src/exe/rbdock.cxx#4 $)

>  <Rbt.Library>
libRbt.so (2013.1, Build901 2013/11/27)

>  <Rbt.Parameter_File>
/export/apps/rDock/src/rDock_2013.1_src/data/scripts/dock_solv.prm

>  <Rbt.Receptor>
prm/blind_docking_40.prm

>  <SCORE>
-17.9815

>  <SCORE.INTER>
-28.7891

>  <SCORE.INTER.CONST>
1

>  <SCORE.INTER.POLAR>
-4.57195

>  <SCORE.INTER.ROT>
6

>  <SCORE.INTER.SOLV>
21.7586

>  <SCORE.INTER.VDW>
-18.8058

>  <SCORE.INTER.norm>
-0.928681

>  <SCORE.INTRA>
9.18872

>  <SCORE.INTRA.DIHEDRAL>
-3.27371

>  <SCORE.INTRA.DIHEDRAL.0>
28.0161

>  <SCORE.INTRA.POLAR>
-0.132511

>  <SCORE.INTRA.POLAR.0>
-1.05798

>  <SCORE.INTRA.REPUL>
0.00192572

>  <SCORE.INTRA.REPUL.0>
0

>  <SCORE.INTRA.SOLV>
2.71588

>  <SCORE.INTRA.SOLV.lig_0>
-42.5945

>  <SCORE.INTRA.VDW>
9.90854

>  <SCORE.INTRA.VDW.0>
-5.13869

>  <SCORE.INTRA.norm>
0.29641

>  <SCORE.RESTR>
1.61888

>  <SCORE.RESTR.CAVITY>
1.61888

>  <SCORE.RESTR.norm>
0.052222

>  <SCORE.SYSTEM>
0

>  <SCORE.SYSTEM.CONST>
0

>  <SCORE.SYSTEM.DIHEDRAL>
0

>  <SCORE.SYSTEM.SOLV>
0

>  <SCORE.SYSTEM.norm>
0

>  <SCORE.heavy>
31

>  <SCORE.norm>
-0.580049

>  <RMSD>
4.204

$$$$
lig.pdb
 OpenBabel11021811453D
libRbt.so/2013.1/901 2013/11/27
 31 33  0  0  0  0  0  0  0  0999 V2000
   -3.4599    7.6465    5.7309 O   0  0  0  0  0  0  0  0  0  0  0  0
   -2.5882    6.5456    5.5629 C   0  0  0  0  0  0  0  0  0  0  0  0
   -3.3646    5.2554    5.2660 C   0  0  1  0  0  0  0  0  0  0  0  0
   -2.5075    4.2128    4.8286 O   0  0  0  0  0  0  0  0  0  0  0  0
   -3.0925    2.9513    5.1372 C   0  0  1  0  0  0  0  0  0  0  0  0
   -2.1264    2.1094    5.7551 O   0  0  0  0  0  0  0  0  0  0  0  0
   -2.4494    0.7332    5.8752 C   0  0  2  0  0  0  0  0  0  0  0  0
   -1.8938    0.2381    7.2199 C   0  0  1  0  0  0  0  0  0  0  0  0
   -2.6333    0.8154    8.2844 O   0  0  0  0  0  0  0  0  0  0  0  0
   -1.9510   -1.2868    7.3980 C   0  0  2  0  0  0  0  0  0  0  0  0
   -1.3164   -1.6952    8.6607 N   0  0  0  0  0  0  0  0  0  0  0  0
   -1.2443   -1.9674    6.2317 C   0  0  0  0  0  0  0  0  0  0  0  0
   -1.8704   -1.5154    4.9180 C   0  0  2  0  0  0  0  0  0  0  0  0
   -1.2087   -2.2262    3.8186 N   0  0  0  0  0  0  0  0  0  0  0  0
   -1.7507    0.0162    4.7647 C   0  0  1  0  0  0  0  0  0  0  0  0
   -2.3524    0.3230    3.4976 O   0  0  0  0  0  0  0  0  0  0  0  0
   -1.8887    1.4881    2.8238 C   0  0  1  0  0  0  0  0  0  0  0  0
   -0.4718    1.5989    2.9271 O   0  0  0  0  0  0  0  0  0  0  0  0
    0.2902    0.6267    2.2146 C   0  0  2  0  0  0  0  0  0  0  0  0
    1.7828    0.9026    2.4397 C   0  0  0  0  0  0  0  0  0  0  0  0
    2.5685   -0.3225    2.4005 N   0  0  0  0  0  0  0  0  0  0  0  0
   -0.0286    0.6767    0.7087 C   0  0  1  0  0  0  0  0  0  0  0  0
    0.6954   -0.3354    0.0319 O   0  0  0  0  0  0  0  0  0  0  0  0
   -1.5345    0.4590    0.5159 C   0  0  2  0  0  0  0  0  0  0  0  0
   -1.8735    0.5866   -0.8522 O   0  0  0  0  0  0  0  0  0  0  0  0
   -2.3388    1.4578    1.3588 C   0  0  1  0  0  0  0  0  0  0  0  0
   -3.7745    1.1570    1.2648 N   0  0  0  0  0  0  0  0  0  0  0  0
   -4.2410    3.2222    6.1199 C   0  0  2  0  0  0  0  0  0  0  0  0
   -5.4838    3.0142    5.4752 O   0  0  0  0  0  0  0  0  0  0  0  0
   -4.0078    4.6775    6.5226 C   0  0  2  0  0  0  0  0  0  0  0  0
   -5.1842    5.3525    6.9220 O   0  0  0  0  0  0  0  0  0  0  0  0
  2  1  1  0  0  0  0
  3  2  1  1  0  0  0
  3 30  1  0  0  0  0
  4  5  1  0  0  0  0
  4  3  1  0  0  0  0
  5 28  1  0  0  0  0
  5  6  1  1  0  0  0
  7  6  1  6  0  0  0
  8  7  1  0  0  0  0
  8  9  1  1  0  0  0
 10 11  1  1  0  0  0
 10  8  1  0  0  0  0
 12 10  1  0  0  0  0
 13 12  1  0  0  0  0
 13 15  1  0  0  0  0
 13 14  1  6  0  0  0
 15  7  1  0  0  0  0
 15 16  1  6  0  0  0
 17 16  1  6  0  0  0
 18 17  1  0  0  0  0
 19 20  1  6  0  0  0
 19 18  1  0  0  0  0
 20 21  1  0  0  0  0
 22 24  1  0  0  0  0
 22 19  1  0  0  0  0
 22 23  1  6  0  0  0
 24 25  1  6  0  0  0
 24 26  1  0  0  0  0
 26 17  1  0  0  0  0
 26 27  1  1  0  0  0
 28 29  1  6  0  0  0
 28 30  1  0  0  0  0
 30 31  1  6  0  0  0
M  END
>  <CHROM.1>
173.91058408,167.97842545,-167.17170872,-143.03729058,-165.10807994,165.06822447
-94.51350368,86.44125854,41.33746440,149.28457309,-13.18689473,-67.32433583
-58.10269428,71.00935634,-178.14074304,37.74842269,-1.97900075,1.51448228
4.30702401,2.99908791,-1.06350249,2.16357197

>  <Name>
lig.pdb

>  <RI>
0

>  <Rbt.Current_Directory>
/home/itssahil/PROJECTS/Mol_Feturizer/New_Systems/rnas/2n0j

>  <Rbt.Executable>
rbdock ($Id: //depot/dev/client3/rdock/2013.1/src/exe/rbdock.cxx#4 $)

>  <Rbt.Library>
libRbt.so (2013.1, Build901 2013/11/27)

>  <Rbt.Parameter_File>
/export/apps/rDock/src/rDock_2013.1_src/data/scripts/dock_solv.prm

>  <Rbt.Receptor>
prm/pocket_docking_8.prm

>  <SCORE>
-33.6817

>  <SCORE.INTER>
-37.8304

>  <SCORE.INTER.CONST>
1

>  <SCORE.INTER.POLAR>
-5.43788

>  <SCORE.INTER.ROT>
6

>  <SCORE.INTER.SOLV>
19.1958

>  <SCORE.INTER.VDW>
-21.0926

>  <SCORE.INTER.norm>
-1.22033

>  <SCORE.INTRA>
4.1487

>  <SCORE.INTRA.DIHEDRAL>
-4.38663

>  <SCORE.INTRA.DIHEDRAL.0>
28.0161

>  <SCORE.INTRA.POLAR>
1.00517

>  <SCORE.INTRA.POLAR.0>
-1.05798

>  <SCORE.INTRA.REPUL>
0.0335287

>  <SCORE.INTRA.REPUL.0>
0

>  <SCORE.INTRA.SOLV>
0.26254

>  <SCORE.INTRA.SOLV.lig_0>
-42.5945

>  <SCORE.INTRA.VDW>
2.62553

>  <SCORE.INTRA.VDW.0>
-5.13869

>  <SCORE.INTRA.norm>
0.133829

>  <SCORE.RESTR>
0

>  <SCORE.RESTR.CAVITY>
0

>  <SCORE.RESTR.norm>
0

>  <SCORE.SYSTEM>
0

>  <SCORE.SYSTEM.CONST>
0

>  <SCORE.SYSTEM.DIHEDRAL>
0

>  <SCORE.SYSTEM.SOLV>
0

>  <SCORE.SYSTEM.norm>
0

>  <SCORE.heavy>
31

>  <SCORE.norm>
-1.08651

>  <RMSD>
4.223

$$$$
lig.pdb
 OpenBabel11021811453D
libRbt.so/2013.1/901 2013/11/27
 31 33  0  0  0  0  0  0  0  0999 V2000
   -4.0183    4.2403    1.9214 O   0  0  0  0  0  0  0  0  0  0  0  0
   -4.8541    4.4080    3.0499 C   0  0  0  0  0  0  0  0  0  0  0  0
   -4.0338    4.6367    4.3266 C   0  0  1  0  0  0  0  0  0  0  0  0
   -3.7196    3.4158    4.9776 O   0  0  0  0  0  0  0  0  0  0  0  0
   -2.5287    3.5740    5.7428 C   0  0  1  0  0  0  0  0  0  0  0  0
   -1.6436    2.4899    5.4877 O   0  0  0  0  0  0  0  0  0  0  0  0
   -2.1528    1.1797    5.6795 C   0  0  2  0  0  0  0  0  0  0  0  0
   -1.6771    0.6899    7.0564 C   0  0  1  0  0  0  0  0  0  0  0  0
   -2.3358    1.4220    8.0780 O   0  0  0  0  0  0  0  0  0  0  0  0
   -1.9436   -0.8003    7.3176 C   0  0  2  0  0  0  0  0  0  0  0  0
   -1.3773   -1.2197    8.6089 N   0  0  0  0  0  0  0  0  0  0  0  0
   -1.3311   -1.6358    6.1997 C   0  0  0  0  0  0  0  0  0  0  0  0
   -1.8827   -1.1773    4.8553 C   0  0  2  0  0  0  0  0  0  0  0  0
   -1.3192   -2.0327    3.8053 N   0  0  0  0  0  0  0  0  0  0  0  0
   -1.5535    0.3125    4.6192 C   0  0  1  0  0  0  0  0  0  0  0  0
   -2.1011    0.6267    3.3296 O   0  0  0  0  0  0  0  0  0  0  0  0
   -1.6045    1.7919    2.6797 C   0  0  1  0  0  0  0  0  0  0  0  0
   -0.1830    1.8475    2.7631 O   0  0  0  0  0  0  0  0  0  0  0  0
    0.5313    0.8676    2.0128 C   0  0  2  0  0  0  0  0  0  0  0  0
    2.0364    1.0821    2.2211 C   0  0  0  0  0  0  0  0  0  0  0  0
    2.4756    0.5905    3.5193 N   0  0  0  0  0  0  0  0  0  0  0  0
    0.1920    0.9704    0.5141 C   0  0  1  0  0  0  0  0  0  0  0  0
    0.8674   -0.0489   -0.2010 O   0  0  0  0  0  0  0  0  0  0  0  0
   -1.3237    0.8136    0.3398 C   0  0  2  0  0  0  0  0  0  0  0  0
   -1.6783    0.9908   -1.0188 O   0  0  0  0  0  0  0  0  0  0  0  0
   -2.0775    1.8181    1.2219 C   0  0  1  0  0  0  0  0  0  0  0  0
   -3.5246    1.5730    1.1430 N   0  0  0  0  0  0  0  0  0  0  0  0
   -1.8775    4.8873    5.2853 C   0  0  2  0  0  0  0  0  0  0  0  0
   -1.9976    5.8631    6.3035 O   0  0  0  0  0  0  0  0  0  0  0  0
   -2.6640    5.2349    4.0224 C   0  0  2  0  0  0  0  0  0  0  0  0
   -2.6981    6.6193    3.7367 O   0  0  0  0  0  0  0  0  0  0  0  0
  2  1  1  0  0  0  0
  3  2  1  6  0  0  0
  3 30  1  0  0  0  0
  4  5  1  0  0  0  0
  4  3  1  0  0  0  0
  5 28  1  0  0  0  0
  5  6  1  6  0  0  0
  7  6  1  6  0  0  0
  8  7  1  0  0  0  0
  8  9  1  1  0  0  0
 10 11  1  1  0  0  0
 10  8  1  0  0  0  0
 12 10  1  0  0  0  0
 13 12  1  0  0  0  0
 13 15  1  0  0  0  0
 13 14  1  6  0  0  0
 15  7  1  0  0  0  0
 15 16  1  6  0  0  0
 17 16  1  6  0  0  0
 18 17  1  0  0  0  0
 19 20  1  6  0  0  0
 19 18  1  0  0  0  0
 20 21  1  0  0  0  0
 22 24  1  0  0  0  0
 22 19  1  0  0  0  0
 22 23  1  6  0  0  0
 24 25  1  6  0  0  0
 24 26  1  0  0  0  0
 26 17  1  0  0  0  0
 26 27  1  1  0  0  0
 28 29  1  1  0  0  0
 28 30  1  0  0  0  0
 30 31  1  1  0  0  0
M  END
>  <CHROM.1>
-75.47005795,-89.81780231,-54.60287901,-99.23374749,63.75241075,-80.42265370
-17.45064338,77.91543105,45.30832818,76.45630054,161.73887186,-170.60476245
63.55249882,-138.02725563,-58.92436046,-61.60286491,-1.67488792,1.77982853
3.83888347,2.54047288,-1.06500904,1.93452931

>  <Name>
lig.pdb

>  <RI>
3.33129e+07

>  <Rbt.Current_Directory>
/home/itssahil/PROJECTS/Mol_Feturizer/New_Systems/rnas/2n0j

>  <Rbt.Executable>
rbdock ($Id: //depot/dev/client3/rdock/2013.1/src/exe/rbdock.cxx#4 $)

>  <Rbt.Library>
libRbt.so (2013.1, Build901 2013/11/27)

>  <Rbt.Parameter_File>
/export/apps/rDock/src/rDock_2013.1_src/data/scripts/dock_solv.prm

>  <Rbt.Receptor>
prm/pocket_docking_4.prm

>  <SCORE>
-40.7966

>  <SCORE.INTER>
-40.8705

>  <SCORE.INTER.CONST>
1

>  <SCORE.INTER.POLAR>
-6.14889

>  <SCORE.INTER.ROT>
6

>  <SCORE.INTER.SOLV>
18.6728

>  <SCORE.INTER.VDW>
-20.5749

>  <SCORE.INTER.norm>
-1.3184

>  <SCORE.INTRA>
-0.126772

>  <SCORE.INTRA.DIHEDRAL>
-7.2178

>  <SCORE.INTRA.DIHEDRAL.0>
28.0161

>  <SCORE.INTRA.POLAR>
0.178801

>  <SCORE.INTRA.POLAR.0>
-1.05798

>  <SCORE.INTRA.REPUL>
0

>  <SCORE.INTRA.REPUL.0>
0

>  <SCORE.INTRA.SOLV>
1.44885

>  <SCORE.INTRA.SOLV.lig_0>
-42.5945

>  <SCORE.INTRA.VDW>
2.14978

>  <SCORE.INTRA.VDW.0>
-5.13869

>  <SCORE.INTRA.norm>
-0.00408941

>  <SCORE.RESTR>
0.200643

>  <SCORE.RESTR.CAVITY>
0.200643

>  <SCORE.RESTR.norm>
0.00647234

>  <SCORE.SYSTEM>
0

>  <SCORE.SYSTEM.CONST>
0

>  <SCORE.SYSTEM.DIHEDRAL>
0

>  <SCORE.SYSTEM.SOLV>
0

>  <SCORE.SYSTEM.norm>
0

>  <SCORE.heavy>
31

>  <SCORE.norm>
-1.31602

>  <RMSD>
4.433

$$$$
lig.pdb
 OpenBabel11021811453D
libRbt.so/2013.1/901 2013/11/27
 31 33  0  0  0  0  0  0  0  0999 V2000
    1.5890   -1.0552    7.1515 O   0  0  0  0  0  0  0  0  0  0  0  0
    2.4975   -1.9411    6.5271 C   0  0  0  0  0  0  0  0  0  0  0  0
    2.7580   -1.5416    5.0684 C   0  0  1  0  0  0  0  0  0  0  0  0
    1.5558   -1.2215    4.3864 O   0  0  0  0  0  0  0  0  0  0  0  0
    1.8365   -0.3213    3.3188 C   0  0  1  0  0  0  0  0  0  0  0  0
    0.9154    0.7624    3.3464 O   0  0  0  0  0  0  0  0  0  0  0  0
   -0.3349    0.5656    2.7054 C   0  0  2  0  0  0  0  0  0  0  0  0
   -0.6939   -0.9238    2.8280 C   0  0  1  0  0  0  0  0  0  0  0  0
   -0.9959   -1.2332    4.1795 O   0  0  0  0  0  0  0  0  0  0  0  0
   -1.9030   -1.3485    1.9808 C   0  0  2  0  0  0  0  0  0  0  0  0
   -2.1279   -2.7995    2.0713 N   0  0  0  0  0  0  0  0  0  0  0  0
   -1.6723   -0.9608    0.5249 C   0  0  0  0  0  0  0  0  0  0  0  0
   -1.3970    0.5349    0.4297 C   0  0  2  0  0  0  0  0  0  0  0  0
   -1.2335    0.8885   -0.9845 N   0  0  0  0  0  0  0  0  0  0  0  0
   -0.1502    0.9058    1.2613 C   0  0  1  0  0  0  0  0  0  0  0  0
    0.0211    2.3205    1.0856 O   0  0  0  0  0  0  0  0  0  0  0  0
    0.4603    3.0666    2.2156 C   0  0  1  0  0  0  0  0  0  0  0  0
    1.8068    2.7360    2.5447 O   0  0  0  0  0  0  0  0  0  0  0  0
    2.8039    3.1552    1.6155 C   0  0  2  0  0  0  0  0  0  0  0  0
    4.1806    2.7169    2.1324 C   0  0  0  0  0  0  0  0  0  0  0  0
    5.2170    2.9011    1.1266 N   0  0  0  0  0  0  0  0  0  0  0  0
    2.7767    4.6844    1.4351 C   0  0  1  0  0  0  0  0  0  0  0  0
    3.7348    5.0695    0.4655 O   0  0  0  0  0  0  0  0  0  0  0  0
    1.3737    5.1020    0.9771 C   0  0  2  0  0  0  0  0  0  0  0  0
    1.2909    6.5119    0.8866 O   0  0  0  0  0  0  0  0  0  0  0  0
    0.3070    4.5671    1.9421 C   0  0  1  0  0  0  0  0  0  0  0  0
   -1.0364    4.8641    1.4248 N   0  0  0  0  0  0  0  0  0  0  0  0
    3.2597    0.2085    3.5464 C   0  0  2  0  0  0  0  0  0  0  0  0
    4.1357   -0.3361    2.5771 O   0  0  0  0  0  0  0  0  0  0  0  0
    3.5719   -0.2554    4.9683 C   0  0  2  0  0  0  0  0  0  0  0  0
    4.9520   -0.4341    5.2181 O   0  0  0  0  0  0  0  0  0  0  0  0
  2  1  1  0  0  0  0
  3  2  1  1  0  0  0
  3 30  1  0  0  0  0
  4  5  1  0  0  0  0
  4  3  1  0  0  0  0
  5 28  1  0  0  0  0
  5  6  1  1  0  0  0
  7  6  1  1  0  0  0
  8  7  1  0  0  0  0
  8  9  1  1  0  0  0
 10 11  1  6  0  0  0
 10  8  1  0  0  0  0
 12 10  1  0  0  0  0
 13 12  1  0  0  0  0
 13 15  1  0  0  0  0
 13 14  1  6  0  0  0
 15  7  1  0  0  0  0
 15 16  1  1  0  0  0
 17 16  1  6  0  0  0
 18 17  1  0  0  0  0
 19 20  1  1  0  0  0
 19 18  1  0  0  0  0
 20 21  1  0  0  0  0
 22 24  1  0  0  0  0
 22 19  1  0  0  0  0
 22 23  1  6  0  0  0
 24 25  1  1  0  0  0
 24 26  1  0  0  0  0
 26 17  1  0  0  0  0
 26 27  1  6  0  0  0
 28 29  1  6  0  0  0
 28 30  1  0  0  0  0
 30 31  1  6  0  0  0
M  END
>  <CHROM.1>
71.11976866,-45.14795144,-84.68934918,31.31103537,-164.41196592,-175.39496578
-32.89755270,21.72198379,68.49296095,169.87777764,67.66927910,-169.07566972
-53.32583365,-42.21271767,178.46007976,-144.24003988,1.29664277,1.21284073
2.54423344,-1.67501451,-0.44621288,-0.56534373

>  <Name>
lig.pdb

>  <RI>
0

>  <Rbt.Current_Directory>
/home/itssahil/PROJECTS/Mol_Feturizer/New_Systems/rnas/2n0j

>  <Rbt.Executable>
rbdock ($Id: //depot/dev/client3/rdock/2013.1/src/exe/rbdock.cxx#4 $)

>  <Rbt.Library>
libRbt.so (2013.1, Build901 2013/11/27)

>  <Rbt.Parameter_File>
/export/apps/rDock/src/rDock_2013.1_src/data/scripts/dock_solv.prm

>  <Rbt.Receptor>
prm/blind_docking_60.prm

>  <SCORE>
-20.5189

>  <SCORE.INTER>
-32.5441

>  <SCORE.INTER.CONST>
1

>  <SCORE.INTER.POLAR>
-3.64547

>  <SCORE.INTER.ROT>
6

>  <SCORE.INTER.SOLV>
23.3718

>  <SCORE.INTER.VDW>
-24.9351

>  <SCORE.INTER.norm>
-1.04981

>  <SCORE.INTRA>
10.2269

>  <SCORE.INTRA.DIHEDRAL>
-5.51945

>  <SCORE.INTRA.DIHEDRAL.0>
28.0161

>  <SCORE.INTRA.POLAR>
0.499206

>  <SCORE.INTRA.POLAR.0>
-1.05798

>  <SCORE.INTRA.REPUL>
0.115868

>  <SCORE.INTRA.REPUL.0>
0

>  <SCORE.INTRA.SOLV>
2.23834

>  <SCORE.INTRA.SOLV.lig_0>
-42.5945

>  <SCORE.INTRA.VDW>
9.59078

>  <SCORE.INTRA.VDW.0>
-5.13869

>  <SCORE.INTRA.norm>
0.329899

>  <SCORE.RESTR>
1.79831

>  <SCORE.RESTR.CAVITY>
1.79831

>  <SCORE.RESTR.norm>
0.05801

>  <SCORE.SYSTEM>
0

>  <SCORE.SYSTEM.CONST>
0

>  <SCORE.SYSTEM.DIHEDRAL>
0

>  <SCORE.SYSTEM.SOLV>
0

>  <SCORE.SYSTEM.norm>
0

>  <SCORE.heavy>
31

>  <SCORE.norm>
-0.6619

>  <RMSD>
4.464

$$$$
lig.pdb
 OpenBabel11021811453D
libRbt.so/2013.1/901 2013/11/27
 31 33  0  0  0  0  0  0  0  0999 V2000
    2.6960   -0.4788    4.0756 O   0  0  0  0  0  0  0  0  0  0  0  0
    1.5115   -1.2515    4.0829 C   0  0  0  0  0  0  0  0  0  0  0  0
    0.4985   -0.7160    5.1038 C   0  0  1  0  0  0  0  0  0  0  0  0
    0.1228    0.6228    4.8217 O   0  0  0  0  0  0  0  0  0  0  0  0
   -1.1756    0.8768    5.3494 C   0  0  1  0  0  0  0  0  0  0  0  0
   -1.9799    1.5161    4.3654 O   0  0  0  0  0  0  0  0  0  0  0  0
   -2.8065    2.5844    4.7995 C   0  0  2  0  0  0  0  0  0  0  0  0
   -3.9485    1.9827    5.6339 C   0  0  1  0  0  0  0  0  0  0  0  0
   -3.4340    1.4828    6.8582 O   0  0  0  0  0  0  0  0  0  0  0  0
   -5.0640    2.9805    5.9803 C   0  0  2  0  0  0  0  0  0  0  0  0
   -6.1653    2.3149    6.6933 N   0  0  0  0  0  0  0  0  0  0  0  0
   -5.5985    3.6179    4.7032 C   0  0  0  0  0  0  0  0  0  0  0  0
   -4.4544    4.2730    3.9391 C   0  0  2  0  0  0  0  0  0  0  0  0
   -5.0050    4.9240    2.7454 N   0  0  0  0  0  0  0  0  0  0  0  0
   -3.3806    3.2247    3.5765 C   0  0  1  0  0  0  0  0  0  0  0  0
   -2.3709    3.9444    2.8525 O   0  0  0  0  0  0  0  0  0  0  0  0
   -1.2074    4.3336    3.5744 C   0  0  1  0  0  0  0  0  0  0  0  0
   -0.1052    3.4931    3.2436 O   0  0  0  0  0  0  0  0  0  0  0  0
    0.4136    3.6248    1.9219 C   0  0  2  0  0  0  0  0  0  0  0  0
    1.5870    2.6512    1.7493 C   0  0  0  0  0  0  0  0  0  0  0  0
    2.5191    2.7283    2.8651 N   0  0  0  0  0  0  0  0  0  0  0  0
    0.8886    5.0663    1.6607 C   0  0  1  0  0  0  0  0  0  0  0  0
    1.3444    5.1859    0.3249 O   0  0  0  0  0  0  0  0  0  0  0  0
   -0.2860    6.0233    1.8991 C   0  0  2  0  0  0  0  0  0  0  0  0
    0.1415    7.3645    1.7521 O   0  0  0  0  0  0  0  0  0  0  0  0
   -0.8875    5.8063    3.2941 C   0  0  1  0  0  0  0  0  0  0  0  0
   -2.0882    6.6375    3.4613 N   0  0  0  0  0  0  0  0  0  0  0  0
   -1.7858   -0.4869    5.7046 C   0  0  2  0  0  0  0  0  0  0  0  0
   -1.8514   -0.6320    7.1110 O   0  0  0  0  0  0  0  0  0  0  0  0
   -0.8247   -1.4725    5.0418 C   0  0  2  0  0  0  0  0  0  0  0  0
   -0.7863   -2.7388    5.6695 O   0  0  0  0  0  0  0  0  0  0  0  0
  2  1  1  0  0  0  0
  3  2  1  6  0  0  0
  3 30  1  0  0  0  0
  4  5  1  0  0  0  0
  4  3  1  0  0  0  0
  5 28  1  0  0  0  0
  5  6  1  6  0  0  0
  7  6  1  6  0  0  0
  8  7  1  0  0  0  0
  8  9  1  1  0  0  0
 10 11  1  6  0  0  0
 10  8  1  0  0  0  0
 12 10  1  0  0  0  0
 13 12  1  0  0  0  0
 13 15  1  0  0  0  0
 13 14  1  6  0  0  0
 15  7  1  0  0  0  0
 15 16  1  1  0  0  0
 17 16  1  6  0  0  0
 18 17  1  0  0  0  0
 19 20  1  1  0  0  0
 19 18  1  0  0  0  0
 20 21  1  0  0  0  0
 22 24  1  0  0  0  0
 22 19  1  0  0  0  0
 22 23  1  6  0  0  0
 24 25  1  1  0  0  0
 24 26  1  0  0  0  0
 26 17  1  0  0  0  0
 26 27  1  6  0  0  0
 28 29  1  1  0  0  0
 28 30  1  0  0  0  0
 30 31  1  1  0  0  0
M  END
>  <CHROM.1>
66.07287718,60.09628199,-138.19023259,-71.41910682,64.55443138,-67.24482288
53.31067647,-21.29746538,104.19687157,-47.63642796,61.64403567,-178.45885509
95.99672917,151.41310272,-58.54143183,59.27333190,-1.37720071,2.56978231
4.03462972,-1.70001389,0.38808329,-0.49358134

>  <Name>
lig.pdb

>  <RI>
3.32461e+07

>  <Rbt.Current_Directory>
/home/itssahil/PROJECTS/Mol_Feturizer/New_Systems/rnas/2n0j

>  <Rbt.Executable>
rbdock ($Id: //depot/dev/client3/rdock/2013.1/src/exe/rbdock.cxx#4 $)

>  <Rbt.Library>
libRbt.so (2013.1, Build901 2013/11/27)

>  <Rbt.Parameter_File>
/export/apps/rDock/src/rDock_2013.1_src/data/scripts/dock_solv.prm

>  <Rbt.Receptor>
prm/pocket_docking_7.prm

>  <SCORE>
-17.2701

>  <SCORE.INTER>
-27.1381

>  <SCORE.INTER.CONST>
1

>  <SCORE.INTER.POLAR>
-3.17679

>  <SCORE.INTER.ROT>
6

>  <SCORE.INTER.SOLV>
16.0701

>  <SCORE.INTER.VDW>
-20.4595

>  <SCORE.INTER.norm>
-0.875423

>  <SCORE.INTRA>
9.86803

>  <SCORE.INTRA.DIHEDRAL>
-2.78249

>  <SCORE.INTRA.DIHEDRAL.0>
28.0161

>  <SCORE.INTRA.POLAR>
1.05761

>  <SCORE.INTRA.POLAR.0>
-1.05798

>  <SCORE.INTRA.REPUL>
0.701137

>  <SCORE.INTRA.REPUL.0>
0

>  <SCORE.INTRA.SOLV>
2.0728

>  <SCORE.INTRA.SOLV.lig_0>
-42.5945

>  <SCORE.INTRA.VDW>
3.12133

>  <SCORE.INTRA.VDW.0>
-5.13869

>  <SCORE.INTRA.norm>
0.318324

>  <SCORE.RESTR>
0

>  <SCORE.RESTR.CAVITY>
0

>  <SCORE.RESTR.norm>
0

>  <SCORE.SYSTEM>
0

>  <SCORE.SYSTEM.CONST>
0

>  <SCORE.SYSTEM.DIHEDRAL>
0

>  <SCORE.SYSTEM.SOLV>
0

>  <SCORE.SYSTEM.norm>
0

>  <SCORE.heavy>
31

>  <SCORE.norm>
-0.5571

>  <RMSD>
4.568

$$$$
lig.pdb
 OpenBabel11021811453D
libRbt.so/2013.1/901 2013/11/27
 31 33  0  0  0  0  0  0  0  0999 V2000
    1.7505   -0.4999    7.1511 O   0  0  0  0  0  0  0  0  0  0  0  0
    2.4115   -1.6188    6.5933 C   0  0  0  0  0  0  0  0  0  0  0  0
    2.8487   -1.3487    5.1472 C   0  0  1  0  0  0  0  0  0  0  0  0
    1.7758   -0.8685    4.3526 O   0  0  0  0  0  0  0  0  0  0  0  0
    2.2888   -0.0878    3.2774 C   0  0  1  0  0  0  0  0  0  0  0  0
    1.5684    1.1353    3.1824 O   0  0  0  0  0  0  0  0  0  0  0  0
    0.2521    1.0720    2.6570 C   0  0  2  0  0  0  0  0  0  0  0  0
    0.3179    0.3157    1.3207 C   0  0  1  0  0  0  0  0  0  0  0  0
    0.6134   -1.0515    1.5592 O   0  0  0  0  0  0  0  0  0  0  0  0
   -0.9844    0.3666    0.5073 C   0  0  2  0  0  0  0  0  0  0  0  0
   -0.8185   -0.2926   -0.7973 N   0  0  0  0  0  0  0  0  0  0  0  0
   -1.4005    1.8172    0.2934 C   0  0  0  0  0  0  0  0  0  0  0  0
   -1.5331    2.5169    1.6405 C   0  0  2  0  0  0  0  0  0  0  0  0
   -1.9867    3.8923    1.4075 N   0  0  0  0  0  0  0  0  0  0  0  0
   -0.1902    2.4772    2.4012 C   0  0  1  0  0  0  0  0  0  0  0  0
   -0.4273    3.1727    3.6347 O   0  0  0  0  0  0  0  0  0  0  0  0
    0.5118    4.1764    4.0051 C   0  0  1  0  0  0  0  0  0  0  0  0
    1.7602    3.9632    3.3518 O   0  0  0  0  0  0  0  0  0  0  0  0
    1.7768    4.1701    1.9409 C   0  0  2  0  0  0  0  0  0  0  0  0
    3.1926    3.8979    1.4154 C   0  0  0  0  0  0  0  0  0  0  0  0
    3.4453    2.4723    1.2627 N   0  0  0  0  0  0  0  0  0  0  0  0
    1.3590    5.6110    1.5933 C   0  0  1  0  0  0  0  0  0  0  0  0
    1.3266    5.7743    0.1866 O   0  0  0  0  0  0  0  0  0  0  0  0
   -0.0322    5.8766    2.1818 C   0  0  2  0  0  0  0  0  0  0  0  0
   -0.4080    7.2220    1.9546 O   0  0  0  0  0  0  0  0  0  0  0  0
   -0.0538    5.5645    3.6842 C   0  0  1  0  0  0  0  0  0  0  0  0
   -1.4203    5.7002    4.2086 N   0  0  0  0  0  0  0  0  0  0  0  0
    3.7600    0.2068    3.6041 C   0  0  2  0  0  0  0  0  0  0  0  0
    4.6014   -0.5292    2.7358 O   0  0  0  0  0  0  0  0  0  0  0  0
    3.8769   -0.2250    5.0650 C   0  0  2  0  0  0  0  0  0  0  0  0
    5.1823   -0.6193    5.4387 O   0  0  0  0  0  0  0  0  0  0  0  0
  2  1  1  0  0  0  0
  3  2  1  1  0  0  0
  3 30  1  0  0  0  0
  4  5  1  0  0  0  0
  4  3  1  0  0  0  0
  5 28  1  0  0  0  0
  5  6  1  1  0  0  0
  7  6  1  6  0  0  0
  8  7  1  0  0  0  0
  8  9  1  1  0  0  0
 10 11  1  6  0  0  0
 10  8  1  0  0  0  0
 12 10  1  0  0  0  0
 13 12  1  0  0  0  0
 13 15  1  0  0  0  0
 13 14  1  6  0  0  0
 15  7  1  0  0  0  0
 15 16  1  1  0  0  0
 17 16  1  6  0  0  0
 18 17  1  0  0  0  0
 19 20  1  1  0  0  0
 19 18  1  0  0  0  0
 20 21  1  0  0  0  0
 22 24  1  0  0  0  0
 22 19  1  0  0  0  0
 22 23  1  6  0  0  0
 24 25  1  1  0  0  0
 24 26  1  0  0  0  0
 26 17  1  0  0  0  0
 26 27  1  6  0  0  0
 28 29  1  6  0  0  0
 28 30  1  0  0  0  0
 30 31  1  6  0  0  0
M  END
>  <CHROM.1>
55.61924245,-51.63776559,-73.78725409,-51.68524885,67.61029025,-52.15950587
-63.59143265,108.23392610,-21.97545457,79.77811460,84.14705829,59.79020888
-179.70813810,-125.70962696,168.30788479,-174.49135760,1.14512802,2.07442715
2.79864545,-0.78971261,-0.85888971,0.19780073

>  <Name>
lig.pdb

>  <RI>
0

>  <Rbt.Current_Directory>
/home/itssahil/PROJECTS/Mol_Feturizer/New_Systems/rnas/2n0j

>  <Rbt.Executable>
rbdock ($Id: //depot/dev/client3/rdock/2013.1/src/exe/rbdock.cxx#4 $)

>  <Rbt.Library>
libRbt.so (2013.1, Build901 2013/11/27)

>  <Rbt.Parameter_File>
/export/apps/rDock/src/rDock_2013.1_src/data/scripts/dock_solv.prm

>  <Rbt.Receptor>
prm/blind_docking_60.prm

>  <SCORE>
-9.36906

>  <SCORE.INTER>
-16.7876

>  <SCORE.INTER.CONST>
1

>  <SCORE.INTER.POLAR>
-2.47604

>  <SCORE.INTER.ROT>
6

>  <SCORE.INTER.SOLV>
27.3842

>  <SCORE.INTER.VDW>
-19.6664

>  <SCORE.INTER.norm>
-0.541536

>  <SCORE.INTRA>
4.32596

>  <SCORE.INTRA.DIHEDRAL>
-7.22986

>  <SCORE.INTRA.DIHEDRAL.0>
28.0161

>  <SCORE.INTRA.POLAR>
0.013517

>  <SCORE.INTRA.POLAR.0>
-1.05798

>  <SCORE.INTRA.REPUL>
0.0861116

>  <SCORE.INTRA.REPUL.0>
0

>  <SCORE.INTRA.SOLV>
2.72786

>  <SCORE.INTRA.SOLV.lig_0>
-42.5945

>  <SCORE.INTRA.VDW>
6.10044

>  <SCORE.INTRA.VDW.0>
-5.13869

>  <SCORE.INTRA.norm>
0.139547

>  <SCORE.RESTR>
3.09261

>  <SCORE.RESTR.CAVITY>
3.09261

>  <SCORE.RESTR.norm>
0.0997615

>  <SCORE.SYSTEM>
0

>  <SCORE.SYSTEM.CONST>
0

>  <SCORE.SYSTEM.DIHEDRAL>
0

>  <SCORE.SYSTEM.SOLV>
0

>  <SCORE.SYSTEM.norm>
0

>  <SCORE.heavy>
31

>  <SCORE.norm>
-0.302228

>  <RMSD>
4.677

$$$$
lig.pdb
 OpenBabel11021811453D
libRbt.so/2013.1/901 2013/11/27
 31 33  0  0  0  0  0  0  0  0999 V2000
    1.4344   -1.9503    6.7649 O   0  0  0  0  0  0  0  0  0  0  0  0
    2.7905   -2.0354    6.3726 C   0  0  0  0  0  0  0  0  0  0  0  0
    3.0009   -1.4815    4.9570 C   0  0  1  0  0  0  0  0  0  0  0  0
    1.7699   -1.2802    4.2809 O   0  0  0  0  0  0  0  0  0  0  0  0
    1.9255   -0.2626    3.2964 C   0  0  1  0  0  0  0  0  0  0  0  0
    0.8577    0.6722    3.3956 O   0  0  0  0  0  0  0  0  0  0  0  0
   -0.2343    0.5042    2.5055 C   0  0  2  0  0  0  0  0  0  0  0  0
   -0.5040   -1.0033    2.3755 C   0  0  1  0  0  0  0  0  0  0  0  0
   -1.0300   -1.5018    3.5954 O   0  0  0  0  0  0  0  0  0  0  0  0
   -1.5011   -1.3677    1.2651 C   0  0  2  0  0  0  0  0  0  0  0  0
   -1.6362   -2.8268    1.1345 N   0  0  0  0  0  0  0  0  0  0  0  0
   -1.0311   -0.7811   -0.0608 C   0  0  0  0  0  0  0  0  0  0  0  0
   -0.8489    0.7252    0.0804 C   0  0  2  0  0  0  0  0  0  0  0  0
   -0.4501    1.2695   -1.2220 N   0  0  0  0  0  0  0  0  0  0  0  0
    0.1919    1.0402    1.1764 C   0  0  1  0  0  0  0  0  0  0  0  0
    0.2928    2.4720    1.2093 O   0  0  0  0  0  0  0  0  0  0  0  0
    1.1174    3.0417    2.2203 C   0  0  1  0  0  0  0  0  0  0  0  0
    2.0564    3.9501    1.6513 O   0  0  0  0  0  0  0  0  0  0  0  0
    1.5198    5.1566    1.1130 C   0  0  2  0  0  0  0  0  0  0  0  0
    2.6688    6.0042    0.5508 C   0  0  0  0  0  0  0  0  0  0  0  0
    2.3524    7.4251    0.5770 N   0  0  0  0  0  0  0  0  0  0  0  0
    0.7658    5.9517    2.1951 C   0  0  1  0  0  0  0  0  0  0  0  0
    0.1932    7.1145    1.6236 O   0  0  0  0  0  0  0  0  0  0  0  0
   -0.3367    5.0618    2.7826 C   0  0  2  0  0  0  0  0  0  0  0  0
   -0.9920    5.7339    3.8417 O   0  0  0  0  0  0  0  0  0  0  0  0
    0.2468    3.7312    3.2769 C   0  0  1  0  0  0  0  0  0  0  0  0
   -0.8344    2.8389    3.7190 N   0  0  0  0  0  0  0  0  0  0  0  0
    3.2559    0.4442    3.5939 C   0  0  2  0  0  0  0  0  0  0  0  0
    4.2079    0.1138    2.5998 O   0  0  0  0  0  0  0  0  0  0  0  0
    3.6217   -0.0883    4.9784 C   0  0  2  0  0  0  0  0  0  0  0  0
    5.0114   -0.0883    5.2388 O   0  0  0  0  0  0  0  0  0  0  0  0
  2  1  1  0  0  0  0
  3  2  1  1  0  0  0
  3 30  1  0  0  0  0
  4  5  1  0  0  0  0
  4  3  1  0  0  0  0
  5 28  1  0  0  0  0
  5  6  1  1  0  0  0
  7  6  1  1  0  0  0
  8  7  1  0  0  0  0
  8  9  1  1  0  0  0
 10 11  1  6  0  0  0
 10  8  1  0  0  0  0
 12 10  1  0  0  0  0
 13 12  1  0  0  0  0
 13 15  1  0  0  0  0
 13 14  1  6  0  0  0
 15  7  1  0  0  0  0
 15 16  1  1  0  0  0
 17 16  1  6  0  0  0
 18 17  1  0  0  0  0
 19 20  1  1  0  0  0
 19 18  1  0  0  0  0
 20 21  1  0  0  0  0
 22 24  1  0  0  0  0
 22 19  1  0  0  0  0
 22 23  1  6  0  0  0
 24 25  1  1  0  0  0
 24 26  1  0  0  0  0
 26 17  1  0  0  0  0
 26 27  1  6  0  0  0
 28 29  1  6  0  0  0
 28 30  1  0  0  0  0
 30 31  1  6  0  0  0
M  END
>  <CHROM.1>
-57.56135472,-12.27651628,-97.56635757,39.14291406,64.66912850,-67.42213381
-37.74701093,54.24892747,127.92771562,-152.67960542,-42.82792989,58.32668275
-43.39303206,-173.65567052,-178.63888975,49.90953492,0.96109238,1.58467766
2.62624662,-1.46235508,-0.73151967,-0.27232238

>  <Name>
lig.pdb

>  <RI>
0

>  <Rbt.Current_Directory>
/home/itssahil/PROJECTS/Mol_Feturizer/New_Systems/rnas/2n0j

>  <Rbt.Executable>
rbdock ($Id: //depot/dev/client3/rdock/2013.1/src/exe/rbdock.cxx#4 $)

>  <Rbt.Library>
libRbt.so (2013.1, Build901 2013/11/27)

>  <Rbt.Parameter_File>
/export/apps/rDock/src/rDock_2013.1_src/data/scripts/dock_solv.prm

>  <Rbt.Receptor>
prm/blind_docking_60.prm

>  <SCORE>
-16.2224

>  <SCORE.INTER>
-27.4315

>  <SCORE.INTER.CONST>
1

>  <SCORE.INTER.POLAR>
-3.79034

>  <SCORE.INTER.ROT>
6

>  <SCORE.INTER.SOLV>
23.7086

>  <SCORE.INTER.VDW>
-21.1561

>  <SCORE.INTER.norm>
-0.884886

>  <SCORE.INTRA>
9.60375

>  <SCORE.INTRA.DIHEDRAL>
-2.87937

>  <SCORE.INTRA.DIHEDRAL.0>
28.0161

>  <SCORE.INTRA.POLAR>
0.377566

>  <SCORE.INTRA.POLAR.0>
-1.05798

>  <SCORE.INTRA.REPUL>
0

>  <SCORE.INTRA.REPUL.0>
0

>  <SCORE.INTRA.SOLV>
1.29298

>  <SCORE.INTRA.SOLV.lig_0>
-42.5945

>  <SCORE.INTRA.VDW>
9.11322

>  <SCORE.INTRA.VDW.0>
-5.13869

>  <SCORE.INTRA.norm>
0.309798

>  <SCORE.RESTR>
1.60527

>  <SCORE.RESTR.CAVITY>
1.60527

>  <SCORE.RESTR.norm>
0.051783

>  <SCORE.SYSTEM>
0

>  <SCORE.SYSTEM.CONST>
0

>  <SCORE.SYSTEM.DIHEDRAL>
0

>  <SCORE.SYSTEM.SOLV>
0

>  <SCORE.SYSTEM.norm>
0

>  <SCORE.heavy>
31

>  <SCORE.norm>
-0.523304

>  <RMSD>
4.718

$$$$
lig.pdb
 OpenBabel11021811453D
libRbt.so/2013.1/901 2013/11/27
 31 33  0  0  0  0  0  0  0  0999 V2000
   -3.1138   -1.2712    3.0890 O   0  0  0  0  0  0  0  0  0  0  0  0
   -3.2562   -1.0224    1.7041 C   0  0  0  0  0  0  0  0  0  0  0  0
   -2.1970   -0.0328    1.2000 C   0  0  1  0  0  0  0  0  0  0  0  0
   -2.1688    1.1522    1.9798 O   0  0  0  0  0  0  0  0  0  0  0  0
   -0.8737    1.7410    1.9089 C   0  0  1  0  0  0  0  0  0  0  0  0
   -0.4264    2.0820    3.2155 O   0  0  0  0  0  0  0  0  0  0  0  0
   -1.3086    2.8452    4.0230 C   0  0  2  0  0  0  0  0  0  0  0  0
   -2.1988    1.8627    4.8006 C   0  0  1  0  0  0  0  0  0  0  0  0
   -1.4211    1.1766    5.7690 O   0  0  0  0  0  0  0  0  0  0  0  0
   -3.3679    2.5289    5.5419 C   0  0  2  0  0  0  0  0  0  0  0  0
   -4.2299    1.5227    6.1812 N   0  0  0  0  0  0  0  0  0  0  0  0
   -4.1932    3.3555    4.5628 C   0  0  0  0  0  0  0  0  0  0  0  0
   -3.2966    4.3719    3.8664 C   0  0  2  0  0  0  0  0  0  0  0  0
   -4.1255    5.1879    2.9727 N   0  0  0  0  0  0  0  0  0  0  0  0
   -2.1638    3.6541    3.1013 C   0  0  1  0  0  0  0  0  0  0  0  0
   -1.4007    4.6982    2.4777 O   0  0  0  0  0  0  0  0  0  0  0  0
   -0.3828    5.3141    3.2596 C   0  0  1  0  0  0  0  0  0  0  0  0
    0.7185    4.4280    3.4401 O   0  0  0  0  0  0  0  0  0  0  0  0
    1.4922    4.1390    2.2777 C   0  0  2  0  0  0  0  0  0  0  0  0
    2.6256    3.1782    2.6613 C   0  0  0  0  0  0  0  0  0  0  0  0
    3.3104    2.6574    1.4868 N   0  0  0  0  0  0  0  0  0  0  0  0
    2.0820    5.4287    1.6774 C   0  0  1  0  0  0  0  0  0  0  0  0
    2.7963    5.1228    0.4929 O   0  0  0  0  0  0  0  0  0  0  0  0
    0.9339    6.3948    1.3597 C   0  0  2  0  0  0  0  0  0  0  0  0
    1.4496    7.6251    0.8874 O   0  0  0  0  0  0  0  0  0  0  0  0
    0.0605    6.6251    2.6004 C   0  0  1  0  0  0  0  0  0  0  0  0
   -1.1058    7.4487    2.2511 N   0  0  0  0  0  0  0  0  0  0  0  0
    0.0627    0.6843    1.3050 C   0  0  2  0  0  0  0  0  0  0  0  0
    0.4293    1.0622   -0.0089 O   0  0  0  0  0  0  0  0  0  0  0  0
   -0.7839   -0.5868    1.3518 C   0  0  2  0  0  0  0  0  0  0  0  0
   -0.4364   -1.5381    0.3652 O   0  0  0  0  0  0  0  0  0  0  0  0
  2  1  1  0  0  0  0
  3  2  1  1  0  0  0
  3 30  1  0  0  0  0
  4  5  1  0  0  0  0
  4  3  1  0  0  0  0
  5 28  1  0  0  0  0
  5  6  1  1  0  0  0
  7  6  1  6  0  0  0
  8  7  1  0  0  0  0
  8  9  1  1  0  0  0
 10 11  1  6  0  0  0
 10  8  1  0  0  0  0
 12 10  1  0  0  0  0
 13 12  1  0  0  0  0
 13 15  1  0  0  0  0
 13 14  1  6  0  0  0
 15  7  1  0  0  0  0
 15 16  1  1  0  0  0
 17 16  1  6  0  0  0
 18 17  1  0  0  0  0
 19 20  1  1  0  0  0
 19 18  1  0  0  0  0
 20 21  1  0  0  0  0
 22 24  1  0  0  0  0
 22 19  1  0  0  0  0
 22 23  1  6  0  0  0
 24 25  1  1  0  0  0
 24 26  1  0  0  0  0
 26 17  1  0  0  0  0
 26 27  1  6  0  0  0
 28 29  1  6  0  0  0
 28 30  1  0  0  0  0
 30 31  1  6  0  0  0
M  END
>  <CHROM.1>
58.94929432,-52.23252208,-51.06027440,89.36144107,61.34104129,-175.79914353
60.39261205,-35.53812817,71.98514953,169.95496974,-63.36081088,175.84794780
175.17346523,61.32419124,162.46416318,64.80266740,-0.84238152,2.95941379
2.61527401,-2.32991895,0.60140234,0.21008696

>  <Name>
lig.pdb

>  <RI>
2.67765e+07

>  <Rbt.Current_Directory>
/home/itssahil/PROJECTS/Mol_Feturizer/New_Systems/rnas/2n0j

>  <Rbt.Executable>
rbdock ($Id: //depot/dev/client3/rdock/2013.1/src/exe/rbdock.cxx#4 $)

>  <Rbt.Library>
libRbt.so (2013.1, Build901 2013/11/27)

>  <Rbt.Parameter_File>
/export/apps/rDock/src/rDock_2013.1_src/data/scripts/dock_solv.prm

>  <Rbt.Receptor>
prm/pocket_docking_2.prm

>  <SCORE>
-29.5037

>  <SCORE.INTER>
-30.8644

>  <SCORE.INTER.CONST>
1

>  <SCORE.INTER.POLAR>
-3.54227

>  <SCORE.INTER.ROT>
6

>  <SCORE.INTER.SOLV>
14.7068

>  <SCORE.INTER.VDW>
-21.271

>  <SCORE.INTER.norm>
-0.995627

>  <SCORE.INTRA>
-0.22517

>  <SCORE.INTRA.DIHEDRAL>
-18.13

>  <SCORE.INTRA.DIHEDRAL.0>
28.0161

>  <SCORE.INTRA.POLAR>
0.461459

>  <SCORE.INTRA.POLAR.0>
-1.05798

>  <SCORE.INTRA.REPUL>
0.00414879

>  <SCORE.INTRA.REPUL.0>
0

>  <SCORE.INTRA.SOLV>
2.28027

>  <SCORE.INTRA.SOLV.lig_0>
-42.5945

>  <SCORE.INTRA.VDW>
6.10998

>  <SCORE.INTRA.VDW.0>
-5.13869

>  <SCORE.INTRA.norm>
-0.00726356

>  <SCORE.RESTR>
1.58594

>  <SCORE.RESTR.CAVITY>
1.58594

>  <SCORE.RESTR.norm>
0.0511593

>  <SCORE.SYSTEM>
0

>  <SCORE.SYSTEM.CONST>
0

>  <SCORE.SYSTEM.DIHEDRAL>
0

>  <SCORE.SYSTEM.SOLV>
0

>  <SCORE.SYSTEM.norm>
0

>  <SCORE.heavy>
31

>  <SCORE.norm>
-0.951732

>  <RMSD>
4.742

$$$$
lig.pdb
 OpenBabel11021811453D
libRbt.so/2013.1/901 2013/11/27
 31 33  0  0  0  0  0  0  0  0999 V2000
   -4.4323   -2.0295    2.9054 O   0  0  0  0  0  0  0  0  0  0  0  0
   -4.0600   -0.8051    3.5074 C   0  0  0  0  0  0  0  0  0  0  0  0
   -3.5087    0.1844    2.4719 C   0  0  1  0  0  0  0  0  0  0  0  0
   -3.0594    1.3861    3.0776 O   0  0  0  0  0  0  0  0  0  0  0  0
   -2.0567    1.9866    2.2634 C   0  0  1  0  0  0  0  0  0  0  0  0
   -0.9431    2.3603    3.0661 O   0  0  0  0  0  0  0  0  0  0  0  0
   -1.1930    3.2416    4.1495 C   0  0  2  0  0  0  0  0  0  0  0  0
   -2.1782    2.5449    5.1013 C   0  0  1  0  0  0  0  0  0  0  0  0
   -1.5344    1.4546    5.7418 O   0  0  0  0  0  0  0  0  0  0  0  0
   -2.7359    3.4580    6.2038 C   0  0  2  0  0  0  0  0  0  0  0  0
   -3.7417    2.7538    7.0142 N   0  0  0  0  0  0  0  0  0  0  0  0
   -3.3661    4.6957    5.5763 C   0  0  0  0  0  0  0  0  0  0  0  0
   -2.3404    5.4063    4.7016 C   0  0  2  0  0  0  0  0  0  0  0  0
   -2.9563    6.6205    4.1557 N   0  0  0  0  0  0  0  0  0  0  0  0
   -1.8420    4.4643    3.5846 C   0  0  1  0  0  0  0  0  0  0  0  0
   -0.9029    5.2373    2.8216 O   0  0  0  0  0  0  0  0  0  0  0  0
    0.2859    5.6538    3.4849 C   0  0  1  0  0  0  0  0  0  0  0  0
    1.2180    4.5792    3.5693 O   0  0  0  0  0  0  0  0  0  0  0  0
    1.8015    4.1528    2.3400 C   0  0  2  0  0  0  0  0  0  0  0  0
    2.7720    2.9988    2.6245 C   0  0  0  0  0  0  0  0  0  0  0  0
    3.2939    2.4189    1.3952 N   0  0  0  0  0  0  0  0  0  0  0  0
    2.5535    5.3116    1.6593 C   0  0  1  0  0  0  0  0  0  0  0  0
    3.0735    4.8796    0.4145 O   0  0  0  0  0  0  0  0  0  0  0  0
    1.5763    6.4735    1.4419 C   0  0  2  0  0  0  0  0  0  0  0  0
    2.2582    7.5876    0.8971 O   0  0  0  0  0  0  0  0  0  0  0  0
    0.8926    6.8606    2.7601 C   0  0  1  0  0  0  0  0  0  0  0  0
   -0.1318    7.8860    2.5156 N   0  0  0  0  0  0  0  0  0  0  0  0
   -1.6203    0.9269    1.2413 C   0  0  2  0  0  0  0  0  0  0  0  0
   -2.0893    1.2802   -0.0466 O   0  0  0  0  0  0  0  0  0  0  0  0
   -2.2570   -0.3515    1.7842 C   0  0  2  0  0  0  0  0  0  0  0  0
   -2.5245   -1.3203    0.7896 O   0  0  0  0  0  0  0  0  0  0  0  0
  2  1  1  0  0  0  0
  3  2  1  1  0  0  0
  3 30  1  0  0  0  0
  4  5  1  0  0  0  0
  4  3  1  0  0  0  0
  5 28  1  0  0  0  0
  5  6  1  1  0  0  0
  7  6  1  6  0  0  0
  8  7  1  0  0  0  0
  8  9  1  1  0  0  0
 10 11  1  6  0  0  0
 10  8  1  0  0  0  0
 12 10  1  0  0  0  0
 13 12  1  0  0  0  0
 13 15  1  0  0  0  0
 13 14  1  6  0  0  0
 15  7  1  0  0  0  0
 15 16  1  6  0  0  0
 17 16  1  6  0  0  0
 18 17  1  0  0  0  0
 19 20  1  1  0  0  0
 19 18  1  0  0  0  0
 20 21  1  0  0  0  0
 22 24  1  0  0  0  0
 22 19  1  0  0  0  0
 22 23  1  6  0  0  0
 24 25  1  1  0  0  0
 24 26  1  0  0  0  0
 26 17  1  0  0  0  0
 26 27  1  6  0  0  0
 28 29  1  6  0  0  0
 28 30  1  0  0  0  0
 30 31  1  6  0  0  0
M  END
>  <CHROM.1>
-165.58677955,-176.53420547,-57.20860549,61.05522217,-55.43936962,-62.71221707
-25.26732663,-56.22214231,78.16685017,173.77765604,62.39434659,-170.09812916
57.74274429,179.55998652,26.54608388,67.41968754,-0.95812511,3.28626437,2.97276164
-2.50735150,0.66620240,0.48764416

>  <Name>
lig.pdb

>  <RI>
2.67765e+07

>  <Rbt.Current_Directory>
/home/itssahil/PROJECTS/Mol_Feturizer/New_Systems/rnas/2n0j

>  <Rbt.Executable>
rbdock ($Id: //depot/dev/client3/rdock/2013.1/src/exe/rbdock.cxx#4 $)

>  <Rbt.Library>
libRbt.so (2013.1, Build901 2013/11/27)

>  <Rbt.Parameter_File>
/export/apps/rDock/src/rDock_2013.1_src/data/scripts/dock_solv.prm

>  <Rbt.Receptor>
prm/pocket_docking_2.prm

>  <SCORE>
-22.854

>  <SCORE.INTER>
-24.5658

>  <SCORE.INTER.CONST>
1

>  <SCORE.INTER.POLAR>
-2.67229

>  <SCORE.INTER.ROT>
6

>  <SCORE.INTER.SOLV>
12.8243

>  <SCORE.INTER.VDW>
-19.3444

>  <SCORE.INTER.norm>
-0.792446

>  <SCORE.INTRA>
0.148639

>  <SCORE.INTRA.DIHEDRAL>
-17.5501

>  <SCORE.INTRA.DIHEDRAL.0>
28.0161

>  <SCORE.INTRA.POLAR>
0.537504

>  <SCORE.INTRA.POLAR.0>
-1.05798

>  <SCORE.INTRA.REPUL>
0

>  <SCORE.INTRA.REPUL.0>
0

>  <SCORE.INTRA.SOLV>
1.48858

>  <SCORE.INTRA.SOLV.lig_0>
-42.5945

>  <SCORE.INTRA.VDW>
6.35187

>  <SCORE.INTRA.VDW.0>
-5.13869

>  <SCORE.INTRA.norm>
0.00479482

>  <SCORE.RESTR>
1.56315

>  <SCORE.RESTR.CAVITY>
1.56315

>  <SCORE.RESTR.norm>
0.0504243

>  <SCORE.SYSTEM>
0

>  <SCORE.SYSTEM.CONST>
0

>  <SCORE.SYSTEM.DIHEDRAL>
0

>  <SCORE.SYSTEM.SOLV>
0

>  <SCORE.SYSTEM.norm>
0

>  <SCORE.heavy>
31

>  <SCORE.norm>
-0.737227

>  <RMSD>
4.805

$$$$
lig.pdb
 OpenBabel11021811453D
libRbt.so/2013.1/901 2013/11/27
 31 33  0  0  0  0  0  0  0  0999 V2000
   -3.9506   -0.7130    3.2976 O   0  0  0  0  0  0  0  0  0  0  0  0
   -2.6178   -1.1146    3.0476 C   0  0  0  0  0  0  0  0  0  0  0  0
   -1.9606   -0.2397    1.9715 C   0  0  1  0  0  0  0  0  0  0  0  0
   -1.7623    1.0909    2.4221 O   0  0  0  0  0  0  0  0  0  0  0  0
   -0.6745    1.6785    1.7149 C   0  0  1  0  0  0  0  0  0  0  0  0
    0.2084    2.3158    2.6304 O   0  0  0  0  0  0  0  0  0  0  0  0
   -0.3614    3.2439    3.5396 C   0  0  2  0  0  0  0  0  0  0  0  0
   -1.3615    2.4802    4.4220 C   0  0  1  0  0  0  0  0  0  0  0  0
   -0.6609    1.6012    5.2880 O   0  0  0  0  0  0  0  0  0  0  0  0
   -2.2390    3.3844    5.3010 C   0  0  2  0  0  0  0  0  0  0  0  0
   -3.2342    2.5949    6.0428 N   0  0  0  0  0  0  0  0  0  0  0  0
   -2.9530    4.4115    4.4302 C   0  0  0  0  0  0  0  0  0  0  0  0
   -1.9288    5.2043    3.6275 C   0  0  2  0  0  0  0  0  0  0  0  0
   -2.6386    6.2196    2.8419 N   0  0  0  0  0  0  0  0  0  0  0  0
   -1.1016    4.2594    2.7294 C   0  0  1  0  0  0  0  0  0  0  0  0
   -0.1906    5.1088    2.0153 O   0  0  0  0  0  0  0  0  0  0  0  0
    0.9033    5.6495    2.7486 C   0  0  1  0  0  0  0  0  0  0  0  0
    1.8930    4.6518    2.9849 O   0  0  0  0  0  0  0  0  0  0  0  0
    2.6120    4.1939    1.8418 C   0  0  2  0  0  0  0  0  0  0  0  0
    3.6271    3.1322    2.2856 C   0  0  0  0  0  0  0  0  0  0  0  0
    2.9990    1.8322    2.4738 N   0  0  0  0  0  0  0  0  0  0  0  0
    3.3442    5.3598    1.1516 C   0  0  1  0  0  0  0  0  0  0  0  0
    4.0018    4.8908   -0.0120 O   0  0  0  0  0  0  0  0  0  0  0  0
    2.3158    6.4330    0.7733 C   0  0  2  0  0  0  0  0  0  0  0  0
    2.9690    7.5577    0.2152 O   0  0  0  0  0  0  0  0  0  0  0  0
    1.4918    6.8501    1.9989 C   0  0  1  0  0  0  0  0  0  0  0  0
    0.4281    7.7823    1.5989 N   0  0  0  0  0  0  0  0  0  0  0  0
    0.0622    0.5350    1.0024 C   0  0  2  0  0  0  0  0  0  0  0  0
   -0.1616    0.6153   -0.3930 O   0  0  0  0  0  0  0  0  0  0  0  0
   -0.5488   -0.7121    1.6394 C   0  0  2  0  0  0  0  0  0  0  0  0
   -0.5117   -1.8531    0.8051 O   0  0  0  0  0  0  0  0  0  0  0  0
  2  1  1  0  0  0  0
  3  2  1  1  0  0  0
  3 30  1  0  0  0  0
  4  5  1  0  0  0  0
  4  3  1  0  0  0  0
  5 28  1  0  0  0  0
  5  6  1  1  0  0  0
  7  6  1  6  0  0  0
  8  7  1  0  0  0  0
  8  9  1  1  0  0  0
 10 11  1  6  0  0  0
 10  8  1  0  0  0  0
 12 10  1  0  0  0  0
 13 12  1  0  0  0  0
 13 15  1  0  0  0  0
 13 14  1  6  0  0  0
 15  7  1  0  0  0  0
 15 16  1  1  0  0  0
 17 16  1  6  0  0  0
 18 17  1  0  0  0  0
 19 20  1  1  0  0  0
 19 18  1  0  0  0  0
 20 21  1  0  0  0  0
 22 24  1  0  0  0  0
 22 19  1  0  0  0  0
 22 23  1  6  0  0  0
 24 25  1  1  0  0  0
 24 26  1  0  0  0  0
 26 17  1  0  0  0  0
 26 27  1  6  0  0  0
 28 29  1  6  0  0  0
 28 30  1  0  0  0  0
 30 31  1  6  0  0  0
M  END
>  <CHROM.1>
59.25767146,67.78166366,-52.48134027,62.16999585,-60.09307408,-63.96866788
176.44144313,-47.22779433,74.88740519,79.89968148,-32.59605224,-66.17670777
-57.45674500,-65.05375917,-55.78644677,-171.12669198,-0.06923166,3.15840529
2.44872763,2.33396513,-0.58839861,-2.92641377

>  <Name>
lig.pdb

>  <RI>
2.67765e+07

>  <Rbt.Current_Directory>
/home/itssahil/PROJECTS/Mol_Feturizer/New_Systems/rnas/2n0j

>  <Rbt.Executable>
rbdock ($Id: //depot/dev/client3/rdock/2013.1/src/exe/rbdock.cxx#4 $)

>  <Rbt.Library>
libRbt.so (2013.1, Build901 2013/11/27)

>  <Rbt.Parameter_File>
/export/apps/rDock/src/rDock_2013.1_src/data/scripts/dock_solv.prm

>  <Rbt.Receptor>
prm/pocket_docking_2.prm

>  <SCORE>
-34.6609

>  <SCORE.INTER>
-30.8461

>  <SCORE.INTER.CONST>
1

>  <SCORE.INTER.POLAR>
-3.82662

>  <SCORE.INTER.ROT>
6

>  <SCORE.INTER.SOLV>
14.7939

>  <SCORE.INTER.VDW>
-20.34

>  <SCORE.INTER.norm>
-0.995036

>  <SCORE.INTRA>
-5.05722

>  <SCORE.INTRA.DIHEDRAL>
-21.5981

>  <SCORE.INTRA.DIHEDRAL.0>
28.0161

>  <SCORE.INTRA.POLAR>
0.057682

>  <SCORE.INTRA.POLAR.0>
-1.05798

>  <SCORE.INTRA.REPUL>
0

>  <SCORE.INTRA.REPUL.0>
0

>  <SCORE.INTRA.SOLV>
0.659705

>  <SCORE.INTRA.SOLV.lig_0>
-42.5945

>  <SCORE.INTRA.VDW>
5.21585

>  <SCORE.INTRA.VDW.0>
-5.13869

>  <SCORE.INTRA.norm>
-0.163136

>  <SCORE.RESTR>
1.24246

>  <SCORE.RESTR.CAVITY>
1.24246

>  <SCORE.RESTR.norm>
0.0400794

>  <SCORE.SYSTEM>
0

>  <SCORE.SYSTEM.CONST>
0

>  <SCORE.SYSTEM.DIHEDRAL>
0

>  <SCORE.SYSTEM.SOLV>
0

>  <SCORE.SYSTEM.norm>
0

>  <SCORE.heavy>
31

>  <SCORE.norm>
-1.11809

>  <RMSD>
4.817

$$$$
lig.pdb
 OpenBabel11021811453D
libRbt.so/2013.1/901 2013/11/27
 31 33  0  0  0  0  0  0  0  0999 V2000
   -3.9065    3.7965    9.7152 O   0  0  0  0  0  0  0  0  0  0  0  0
   -4.9624    3.1063    9.0758 C   0  0  0  0  0  0  0  0  0  0  0  0
   -4.4586    2.3045    7.8681 C   0  0  1  0  0  0  0  0  0  0  0  0
   -3.7810    3.1289    6.9331 O   0  0  0  0  0  0  0  0  0  0  0  0
   -2.8479    2.3470    6.1937 C   0  0  1  0  0  0  0  0  0  0  0  0
   -1.5889    3.0082    6.1536 O   0  0  0  0  0  0  0  0  0  0  0  0
   -1.5083    4.2008    5.3894 C   0  0  2  0  0  0  0  0  0  0  0  0
   -2.3069    5.2854    6.1297 C   0  0  1  0  0  0  0  0  0  0  0  0
   -1.6304    5.6460    7.3237 O   0  0  0  0  0  0  0  0  0  0  0  0
   -2.5177    6.5722    5.3174 C   0  0  2  0  0  0  0  0  0  0  0  0
   -3.3691    7.5242    6.0475 N   0  0  0  0  0  0  0  0  0  0  0  0
   -3.1653    6.2352    3.9795 C   0  0  0  0  0  0  0  0  0  0  0  0
   -2.3087    5.2171    3.2368 C   0  0  2  0  0  0  0  0  0  0  0  0
   -2.9259    4.9533    1.9324 N   0  0  0  0  0  0  0  0  0  0  0  0
   -2.1611    3.9273    4.0725 C   0  0  1  0  0  0  0  0  0  0  0  0
   -1.3577    3.0437    3.2755 O   0  0  0  0  0  0  0  0  0  0  0  0
    0.0291    2.9678    3.5879 C   0  0  1  0  0  0  0  0  0  0  0  0
    0.3541    1.6897    4.1279 O   0  0  0  0  0  0  0  0  0  0  0  0
    0.2811    0.5874    3.2262 C   0  0  2  0  0  0  0  0  0  0  0  0
    0.6631   -0.6951    3.9772 C   0  0  0  0  0  0  0  0  0  0  0  0
    0.8696   -1.8115    3.0657 N   0  0  0  0  0  0  0  0  0  0  0  0
    1.2290    0.7939    2.0302 C   0  0  1  0  0  0  0  0  0  0  0  0
    1.0954   -0.2842    1.1213 O   0  0  0  0  0  0  0  0  0  0  0  0
    0.8651    2.1114    1.3344 C   0  0  2  0  0  0  0  0  0  0  0  0
    1.7751    2.3738    0.2827 O   0  0  0  0  0  0  0  0  0  0  0  0
    0.8632    3.2721    2.3384 C   0  0  1  0  0  0  0  0  0  0  0  0
    0.3900    4.5021    1.6874 N   0  0  0  0  0  0  0  0  0  0  0  0
   -2.7023    1.0099    6.9349 C   0  0  2  0  0  0  0  0  0  0  0  0
   -3.3145   -0.0234    6.1859 O   0  0  0  0  0  0  0  0  0  0  0  0
   -3.3993    1.2820    8.2670 C   0  0  2  0  0  0  0  0  0  0  0  0
   -3.9291    0.1226    8.8788 O   0  0  0  0  0  0  0  0  0  0  0  0
  2  1  1  0  0  0  0
  3  2  1  1  0  0  0
  3 30  1  0  0  0  0
  4  5  1  0  0  0  0
  4  3  1  0  0  0  0
  5 28  1  0  0  0  0
  5  6  1  1  0  0  0
  7  6  1  1  0  0  0
  8  7  1  0  0  0  0
  8  9  1  1  0  0  0
 10 11  1  1  0  0  0
 10  8  1  0  0  0  0
 12 10  1  0  0  0  0
 13 12  1  0  0  0  0
 13 15  1  0  0  0  0
 13 14  1  6  0  0  0
 15  7  1  0  0  0  0
 15 16  1  6  0  0  0
 17 16  1  6  0  0  0
 18 17  1  0  0  0  0
 19 20  1  1  0  0  0
 19 18  1  0  0  0  0
 20 21  1  0  0  0  0
 22 24  1  0  0  0  0
 22 19  1  0  0  0  0
 22 23  1  6  0  0  0
 24 25  1  6  0  0  0
 24 26  1  0  0  0  0
 26 17  1  0  0  0  0
 26 27  1  6  0  0  0
 28 29  1  6  0  0  0
 28 30  1  0  0  0  0
 30 31  1  6  0  0  0
M  END
>  <CHROM.1>
-59.08304724,-56.40859036,-69.04244485,70.40914097,-65.98338788,160.07763214
178.22317664,-21.78826690,111.72654560,-168.55947680,100.88184586,-176.03904210
62.82923063,-98.10563160,-64.61078967,67.00785327,-1.60323895,2.82393179
4.81797648,-3.12539850,0.94925944,-0.38061395

>  <Name>
lig.pdb

>  <RI>
3.33129e+07

>  <Rbt.Current_Directory>
/home/itssahil/PROJECTS/Mol_Feturizer/New_Systems/rnas/2n0j

>  <Rbt.Executable>
rbdock ($Id: //depot/dev/client3/rdock/2013.1/src/exe/rbdock.cxx#4 $)

>  <Rbt.Library>
libRbt.so (2013.1, Build901 2013/11/27)

>  <Rbt.Parameter_File>
/export/apps/rDock/src/rDock_2013.1_src/data/scripts/dock_solv.prm

>  <Rbt.Receptor>
prm/pocket_docking_4.prm

>  <SCORE>
-34.1471

>  <SCORE.INTER>
-40.7284

>  <SCORE.INTER.CONST>
1

>  <SCORE.INTER.POLAR>
-5.77019

>  <SCORE.INTER.ROT>
6

>  <SCORE.INTER.SOLV>
20.4758

>  <SCORE.INTER.VDW>
-22.3436

>  <SCORE.INTER.norm>
-1.31382

>  <SCORE.INTRA>
6.56506

>  <SCORE.INTRA.DIHEDRAL>
-7.50583

>  <SCORE.INTRA.DIHEDRAL.0>
28.0161

>  <SCORE.INTRA.POLAR>
0.651973

>  <SCORE.INTRA.POLAR.0>
-1.05798

>  <SCORE.INTRA.REPUL>
0

>  <SCORE.INTRA.REPUL.0>
0

>  <SCORE.INTRA.SOLV>
1.80159

>  <SCORE.INTRA.SOLV.lig_0>
-42.5945

>  <SCORE.INTRA.VDW>
7.20048

>  <SCORE.INTRA.VDW.0>
-5.13869

>  <SCORE.INTRA.norm>
0.211776

>  <SCORE.RESTR>
0.0162792

>  <SCORE.RESTR.CAVITY>
0.0162792

>  <SCORE.RESTR.norm>
0.000525137

>  <SCORE.SYSTEM>
0

>  <SCORE.SYSTEM.CONST>
0

>  <SCORE.SYSTEM.DIHEDRAL>
0

>  <SCORE.SYSTEM.SOLV>
0

>  <SCORE.SYSTEM.norm>
0

>  <SCORE.heavy>
31

>  <SCORE.norm>
-1.10152

>  <RMSD>
4.823

$$$$
lig.pdb
 OpenBabel11021811453D
libRbt.so/2013.1/901 2013/11/27
 31 33  0  0  0  0  0  0  0  0999 V2000
   -3.9563   -1.1332    3.9257 O   0  0  0  0  0  0  0  0  0  0  0  0
   -2.6203   -1.3925    3.5410 C   0  0  0  0  0  0  0  0  0  0  0  0
   -2.1056   -0.3363    2.5538 C   0  0  1  0  0  0  0  0  0  0  0  0
   -1.9881    0.9406    3.1611 O   0  0  0  0  0  0  0  0  0  0  0  0
   -0.9984    1.7054    2.4798 C   0  0  1  0  0  0  0  0  0  0  0  0
   -0.1143    2.3001    3.4224 O   0  0  0  0  0  0  0  0  0  0  0  0
   -0.4836    3.5653    3.9474 C   0  0  2  0  0  0  0  0  0  0  0  0
   -1.7821    3.3785    4.7481 C   0  0  1  0  0  0  0  0  0  0  0  0
   -1.5152    2.6305    5.9240 O   0  0  0  0  0  0  0  0  0  0  0  0
   -2.4440    4.6945    5.1841 C   0  0  2  0  0  0  0  0  0  0  0  0
   -3.7269    4.4425    5.8584 N   0  0  0  0  0  0  0  0  0  0  0  0
   -2.6766    5.5810    3.9663 C   0  0  0  0  0  0  0  0  0  0  0  0
   -1.3572    5.8111    3.2396 C   0  0  2  0  0  0  0  0  0  0  0  0
   -1.6011    6.7099    2.1063 N   0  0  0  0  0  0  0  0  0  0  0  0
   -0.7527    4.4654    2.7842 C   0  0  1  0  0  0  0  0  0  0  0  0
    0.4660    4.8028    2.1042 O   0  0  0  0  0  0  0  0  0  0  0  0
    1.5937    5.1215    2.9125 C   0  0  1  0  0  0  0  0  0  0  0  0
    2.5691    4.0847    2.8467 O   0  0  0  0  0  0  0  0  0  0  0  0
    3.2417    3.9302    1.5988 C   0  0  2  0  0  0  0  0  0  0  0  0
    4.2478    2.7775    1.7158 C   0  0  0  0  0  0  0  0  0  0  0  0
    3.6698    1.6251    2.3924 N   0  0  0  0  0  0  0  0  0  0  0  0
    3.9761    5.2262    1.2079 C   0  0  1  0  0  0  0  0  0  0  0  0
    4.5865    5.0672   -0.0604 O   0  0  0  0  0  0  0  0  0  0  0  0
    2.9591    6.3733    1.1576 C   0  0  2  0  0  0  0  0  0  0  0  0
    3.6179    7.5962    0.8865 O   0  0  0  0  0  0  0  0  0  0  0  0
    2.1834    6.4682    2.4783 C   0  0  1  0  0  0  0  0  0  0  0  0
    1.1274    7.4851    2.3718 N   0  0  0  0  0  0  0  0  0  0  0  0
   -0.2174    0.7289    1.5884 C   0  0  2  0  0  0  0  0  0  0  0  0
   -0.5345    0.9613    0.2286 O   0  0  0  0  0  0  0  0  0  0  0  0
   -0.6837   -0.6368    2.0904 C   0  0  2  0  0  0  0  0  0  0  0  0
   -0.6066   -1.6578    1.1153 O   0  0  0  0  0  0  0  0  0  0  0  0
  2  1  1  0  0  0  0
  3  2  1  1  0  0  0
  3 30  1  0  0  0  0
  4  5  1  0  0  0  0
  4  3  1  0  0  0  0
  5 28  1  0  0  0  0
  5  6  1  1  0  0  0
  7  6  1  6  0  0  0
  8  7  1  0  0  0  0
  8  9  1  1  0  0  0
 10 11  1  6  0  0  0
 10  8  1  0  0  0  0
 12 10  1  0  0  0  0
 13 12  1  0  0  0  0
 13 15  1  0  0  0  0
 13 14  1  6  0  0  0
 15  7  1  0  0  0  0
 15 16  1  1  0  0  0
 17 16  1  6  0  0  0
 18 17  1  0  0  0  0
 19 20  1  1  0  0  0
 19 18  1  0  0  0  0
 20 21  1  0  0  0  0
 22 24  1  0  0  0  0
 22 19  1  0  0  0  0
 22 23  1  6  0  0  0
 24 25  1  1  0  0  0
 24 26  1  0  0  0  0
 26 17  1  0  0  0  0
 26 27  1  6  0  0  0
 28 29  1  6  0  0  0
 28 30  1  0  0  0  0
 30 31  1  6  0  0  0
M  END
>  <CHROM.1>
66.35652993,66.88137781,-87.69110380,64.16579826,62.54890920,170.50397876
97.53511556,-42.54223375,108.98040609,44.41170746,88.06010282,-71.15164145
-55.56225041,169.58272561,-176.12320051,-167.97034862,0.13007618,3.32067447
2.68137180,-2.44714415,0.50612975,0.19730917

>  <Name>
lig.pdb

>  <RI>
2.67765e+07

>  <Rbt.Current_Directory>
/home/itssahil/PROJECTS/Mol_Feturizer/New_Systems/rnas/2n0j

>  <Rbt.Executable>
rbdock ($Id: //depot/dev/client3/rdock/2013.1/src/exe/rbdock.cxx#4 $)

>  <Rbt.Library>
libRbt.so (2013.1, Build901 2013/11/27)

>  <Rbt.Parameter_File>
/export/apps/rDock/src/rDock_2013.1_src/data/scripts/dock_solv.prm

>  <Rbt.Receptor>
prm/pocket_docking_2.prm

>  <SCORE>
-39.87

>  <SCORE.INTER>
-45.3377

>  <SCORE.INTER.CONST>
1

>  <SCORE.INTER.POLAR>
-5.88187

>  <SCORE.INTER.ROT>
6

>  <SCORE.INTER.SOLV>
13.8066

>  <SCORE.INTER.VDW>
-22.8211

>  <SCORE.INTER.norm>
-1.46251

>  <SCORE.INTRA>
3.38477

>  <SCORE.INTRA.DIHEDRAL>
-9.15081

>  <SCORE.INTRA.DIHEDRAL.0>
28.0161

>  <SCORE.INTRA.POLAR>
0.821563

>  <SCORE.INTRA.POLAR.0>
-1.05798

>  <SCORE.INTRA.REPUL>
0

>  <SCORE.INTRA.REPUL.0>
0

>  <SCORE.INTRA.SOLV>
-0.103629

>  <SCORE.INTRA.SOLV.lig_0>
-42.5945

>  <SCORE.INTRA.VDW>
5.21867

>  <SCORE.INTRA.VDW.0>
-5.13869

>  <SCORE.INTRA.norm>
0.109186

>  <SCORE.RESTR>
2.08297

>  <SCORE.RESTR.CAVITY>
2.08297

>  <SCORE.RESTR.norm>
0.0671925

>  <SCORE.SYSTEM>
0

>  <SCORE.SYSTEM.CONST>
0

>  <SCORE.SYSTEM.DIHEDRAL>
0

>  <SCORE.SYSTEM.SOLV>
0

>  <SCORE.SYSTEM.norm>
0

>  <SCORE.heavy>
31

>  <SCORE.norm>
-1.28613

>  <RMSD>
4.886

$$$$
lig.pdb
 OpenBabel11021811453D
libRbt.so/2013.1/901 2013/11/27
 31 33  0  0  0  0  0  0  0  0999 V2000
   -2.0195   -0.8139    3.9160 O   0  0  0  0  0  0  0  0  0  0  0  0
   -2.1369   -0.9598    5.3178 C   0  0  0  0  0  0  0  0  0  0  0  0
   -2.3921    0.3896    6.0029 C   0  0  1  0  0  0  0  0  0  0  0  0
   -1.4804    1.3845    5.5648 O   0  0  0  0  0  0  0  0  0  0  0  0
   -2.0701    2.6725    5.7129 C   0  0  1  0  0  0  0  0  0  0  0  0
   -1.8909    3.4256    4.5194 O   0  0  0  0  0  0  0  0  0  0  0  0
   -1.5709    4.8003    4.6633 C   0  0  2  0  0  0  0  0  0  0  0  0
   -2.7302    5.4740    5.4145 C   0  0  1  0  0  0  0  0  0  0  0  0
   -2.7515    5.0267    6.7610 O   0  0  0  0  0  0  0  0  0  0  0  0
   -2.6503    7.0079    5.4437 C   0  0  2  0  0  0  0  0  0  0  0  0
   -3.8375    7.5864    6.0918 N   0  0  0  0  0  0  0  0  0  0  0  0
   -2.5369    7.5439    4.0214 C   0  0  0  0  0  0  0  0  0  0  0  0
   -1.3325    6.9158    3.3309 C   0  0  2  0  0  0  0  0  0  0  0  0
   -1.2160    7.4896    1.9860 N   0  0  0  0  0  0  0  0  0  0  0  0
   -1.4785    5.3794    3.2880 C   0  0  1  0  0  0  0  0  0  0  0  0
   -0.3076    4.9016    2.6081 O   0  0  0  0  0  0  0  0  0  0  0  0
    0.8396    4.6274    3.4052 C   0  0  1  0  0  0  0  0  0  0  0  0
    1.1120    3.2289    3.4309 O   0  0  0  0  0  0  0  0  0  0  0  0
    1.5633    2.6520    2.2074 C   0  0  2  0  0  0  0  0  0  0  0  0
    1.8051    1.1523    2.4246 C   0  0  0  0  0  0  0  0  0  0  0  0
    1.1702    0.3491    1.3894 N   0  0  0  0  0  0  0  0  0  0  0  0
    2.8627    3.3265    1.7300 C   0  0  1  0  0  0  0  0  0  0  0  0
    3.2583    2.7773    0.4856 O   0  0  0  0  0  0  0  0  0  0  0  0
    2.6105    4.8319    1.5796 C   0  0  2  0  0  0  0  0  0  0  0  0
    3.8106    5.4935    1.2259 O   0  0  0  0  0  0  0  0  0  0  0  0
    2.0423    5.4186    2.8788 C   0  0  1  0  0  0  0  0  0  0  0  0
    1.6863    6.8311    2.6817 N   0  0  0  0  0  0  0  0  0  0  0  0
   -3.5694    2.4495    5.9591 C   0  0  2  0  0  0  0  0  0  0  0  0
   -3.8874    2.7632    7.3022 O   0  0  0  0  0  0  0  0  0  0  0  0
   -3.7520    0.9694    5.6270 C   0  0  2  0  0  0  0  0  0  0  0  0
   -4.8357    0.3642    6.3041 O   0  0  0  0  0  0  0  0  0  0  0  0
  2  1  1  0  0  0  0
  3  2  1  6  0  0  0
  3 30  1  0  0  0  0
  4  5  1  0  0  0  0
  4  3  1  0  0  0  0
  5 28  1  0  0  0  0
  5  6  1  6  0  0  0
  7  6  1  6  0  0  0
  8  7  1  0  0  0  0
  8  9  1  1  0  0  0
 10 11  1  6  0  0  0
 10  8  1  0  0  0  0
 12 10  1  0  0  0  0
 13 12  1  0  0  0  0
 13 15  1  0  0  0  0
 13 14  1  6  0  0  0
 15  7  1  0  0  0  0
 15 16  1  1  0  0  0
 17 16  1  6  0  0  0
 18 17  1  0  0  0  0
 19 20  1  1  0  0  0
 19 18  1  0  0  0  0
 20 21  1  0  0  0  0
 22 24  1  0  0  0  0
 22 19  1  0  0  0  0
 22 23  1  6  0  0  0
 24 25  1  1  0  0  0
 24 26  1  0  0  0  0
 26 17  1  0  0  0  0
 26 27  1  6  0  0  0
 28 29  1  1  0  0  0
 28 30  1  0  0  0  0
 30 31  1  1  0  0  0
M  END
>  <CHROM.1>
-56.63342831,-48.92682019,-139.72240747,-60.93099028,67.02284641,-52.03770616
88.27855879,-32.28392713,112.06616687,130.89130838,-162.92420012,-161.13933190
69.03888758,46.71088016,58.36613524,68.50370848,-0.82740124,3.71671568,3.96073840
-2.79556581,0.64581217,-0.04931858

>  <Name>
lig.pdb

>  <RI>
0

>  <Rbt.Current_Directory>
/home/itssahil/PROJECTS/Mol_Feturizer/New_Systems/rnas/2n0j

>  <Rbt.Executable>
rbdock ($Id: //depot/dev/client3/rdock/2013.1/src/exe/rbdock.cxx#4 $)

>  <Rbt.Library>
libRbt.so (2013.1, Build901 2013/11/27)

>  <Rbt.Parameter_File>
/export/apps/rDock/src/rDock_2013.1_src/data/scripts/dock_solv.prm

>  <Rbt.Receptor>
prm/pocket_docking_5.prm

>  <SCORE>
-38.8221

>  <SCORE.INTER>
-45.5006

>  <SCORE.INTER.CONST>
1

>  <SCORE.INTER.POLAR>
-4.89191

>  <SCORE.INTER.ROT>
6

>  <SCORE.INTER.SOLV>
17.3189

>  <SCORE.INTER.VDW>
-27.4004

>  <SCORE.INTER.norm>
-1.46776

>  <SCORE.INTRA>
6.67852

>  <SCORE.INTRA.DIHEDRAL>
-1.3516

>  <SCORE.INTRA.DIHEDRAL.0>
28.0161

>  <SCORE.INTRA.POLAR>
0.0976607

>  <SCORE.INTRA.POLAR.0>
-1.05798

>  <SCORE.INTRA.REPUL>
0.301769

>  <SCORE.INTRA.REPUL.0>
0

>  <SCORE.INTRA.SOLV>
1.84047

>  <SCORE.INTRA.SOLV.lig_0>
-42.5945

>  <SCORE.INTRA.VDW>
4.59319

>  <SCORE.INTRA.VDW.0>
-5.13869

>  <SCORE.INTRA.norm>
0.215436

>  <SCORE.RESTR>
0

>  <SCORE.RESTR.CAVITY>
0

>  <SCORE.RESTR.norm>
0

>  <SCORE.SYSTEM>
0

>  <SCORE.SYSTEM.CONST>
0

>  <SCORE.SYSTEM.DIHEDRAL>
0

>  <SCORE.SYSTEM.SOLV>
0

>  <SCORE.SYSTEM.norm>
0

>  <SCORE.heavy>
31

>  <SCORE.norm>
-1.25233

>  <RMSD>
4.892

$$$$
lig.pdb
 OpenBabel11021811453D
libRbt.so/2013.1/901 2013/11/27
 31 33  0  0  0  0  0  0  0  0999 V2000
   -5.2170   -0.0798   -1.5256 O   0  0  0  0  0  0  0  0  0  0  0  0
   -4.0039    0.5885   -1.8120 C   0  0  0  0  0  0  0  0  0  0  0  0
   -2.8277   -0.0303   -1.0446 C   0  0  1  0  0  0  0  0  0  0  0  0
   -1.6346    0.7184   -1.2145 O   0  0  0  0  0  0  0  0  0  0  0  0
   -0.7800    0.5179   -0.0928 C   0  0  1  0  0  0  0  0  0  0  0  0
   -0.2966    1.7712    0.3758 O   0  0  0  0  0  0  0  0  0  0  0  0
    0.3565    1.7830    1.6352 C   0  0  2  0  0  0  0  0  0  0  0  0
    0.9670    0.3903    1.8585 C   0  0  1  0  0  0  0  0  0  0  0  0
    2.0476    0.1924    0.9603 O   0  0  0  0  0  0  0  0  0  0  0  0
    1.5061    0.1631    3.2790 C   0  0  2  0  0  0  0  0  0  0  0  0
    1.9848   -1.2176    3.4477 N   0  0  0  0  0  0  0  0  0  0  0  0
    0.4079    0.4472    4.2971 C   0  0  0  0  0  0  0  0  0  0  0  0
   -0.1212    1.8624    4.0995 C   0  0  2  0  0  0  0  0  0  0  0  0
   -1.1358    2.1270    5.1254 N   0  0  0  0  0  0  0  0  0  0  0  0
   -0.6901    2.0294    2.6740 C   0  0  1  0  0  0  0  0  0  0  0  0
   -1.1698    3.3811    2.6083 O   0  0  0  0  0  0  0  0  0  0  0  0
   -0.5278    4.3391    3.4428 C   0  0  1  0  0  0  0  0  0  0  0  0
    0.8659    4.4054    3.1531 O   0  0  0  0  0  0  0  0  0  0  0  0
    1.2211    4.9577    1.8873 C   0  0  2  0  0  0  0  0  0  0  0  0
    2.7496    4.9500    1.7529 C   0  0  0  0  0  0  0  0  0  0  0  0
    3.2041    5.8724    0.7222 N   0  0  0  0  0  0  0  0  0  0  0  0
    0.6923    6.3975    1.7498 C   0  0  1  0  0  0  0  0  0  0  0  0
    1.0064    6.9025    0.4641 O   0  0  0  0  0  0  0  0  0  0  0  0
   -0.8285    6.3855    1.9485 C   0  0  2  0  0  0  0  0  0  0  0  0
   -1.3342    7.7069    1.9150 O   0  0  0  0  0  0  0  0  0  0  0  0
   -1.1963    5.7084    3.2757 C   0  0  1  0  0  0  0  0  0  0  0  0
   -2.6565    5.5891    3.3942 N   0  0  0  0  0  0  0  0  0  0  0  0
   -1.6297   -0.1459    1.0006 C   0  0  2  0  0  0  0  0  0  0  0  0
   -1.2344   -1.4953    1.1629 O   0  0  0  0  0  0  0  0  0  0  0  0
   -3.0523    0.0043    0.4638 C   0  0  2  0  0  0  0  0  0  0  0  0
   -3.9437   -0.9895    0.9295 O   0  0  0  0  0  0  0  0  0  0  0  0
  2  1  1  0  0  0  0
  3  2  1  6  0  0  0
  3 30  1  0  0  0  0
  4  5  1  0  0  0  0
  4  3  1  0  0  0  0
  5 28  1  0  0  0  0
  5  6  1  1  0  0  0
  7  6  1  6  0  0  0
  8  7  1  0  0  0  0
  8  9  1  6  0  0  0
 10 11  1  6  0  0  0
 10  8  1  0  0  0  0
 12 10  1  0  0  0  0
 13 12  1  0  0  0  0
 13 15  1  0  0  0  0
 13 14  1  1  0  0  0
 15  7  1  0  0  0  0
 15 16  1  1  0  0  0
 17 16  1  6  0  0  0
 18 17  1  0  0  0  0
 19 20  1  1  0  0  0
 19 18  1  0  0  0  0
 20 21  1  0  0  0  0
 22 24  1  0  0  0  0
 22 19  1  0  0  0  0
 22 23  1  6  0  0  0
 24 25  1  1  0  0  0
 24 26  1  0  0  0  0
 26 17  1  0  0  0  0
 26 27  1  6  0  0  0
 28 29  1  6  0  0  0
 28 30  1  0  0  0  0
 30 31  1  1  0  0  0
M  END
>  <CHROM.1>
-177.53958541,-173.79289824,168.17471849,27.16376238,-60.93163954,56.11981673
156.39391915,-92.73098972,58.52782636,-161.12464815,-149.08608459,-176.38512531
166.63475052,102.36493972,-176.92618430,-53.41693713,-0.58047338,2.43242908
1.65829895,2.06325352,0.58427498,-3.13842519

>  <Name>
lig.pdb

>  <RI>
1.55206e+07

>  <Rbt.Current_Directory>
/home/itssahil/PROJECTS/Mol_Feturizer/New_Systems/rnas/2n0j

>  <Rbt.Executable>
rbdock ($Id: //depot/dev/client3/rdock/2013.1/src/exe/rbdock.cxx#4 $)

>  <Rbt.Library>
libRbt.so (2013.1, Build901 2013/11/27)

>  <Rbt.Parameter_File>
/export/apps/rDock/src/rDock_2013.1_src/data/scripts/dock_solv.prm

>  <Rbt.Receptor>
prm/blind_docking_80.prm

>  <SCORE>
-0.673219

>  <SCORE.INTER>
-16.9586

>  <SCORE.INTER.CONST>
1

>  <SCORE.INTER.POLAR>
-3.53514

>  <SCORE.INTER.ROT>
6

>  <SCORE.INTER.SOLV>
18.1445

>  <SCORE.INTER.VDW>
-13.1701

>  <SCORE.INTER.norm>
-0.547053

>  <SCORE.INTRA>
10.0029

>  <SCORE.INTRA.DIHEDRAL>
-10.2338

>  <SCORE.INTRA.DIHEDRAL.0>
28.0161

>  <SCORE.INTRA.POLAR>
-0.00677268

>  <SCORE.INTRA.POLAR.0>
-1.05798

>  <SCORE.INTRA.REPUL>
0

>  <SCORE.INTRA.REPUL.0>
0

>  <SCORE.INTRA.SOLV>
2.49914

>  <SCORE.INTRA.SOLV.lig_0>
-42.5945

>  <SCORE.INTRA.VDW>
13.8933

>  <SCORE.INTRA.VDW.0>
-5.13869

>  <SCORE.INTRA.norm>
0.322674

>  <SCORE.RESTR>
6.28251

>  <SCORE.RESTR.CAVITY>
6.28251

>  <SCORE.RESTR.norm>
0.202662

>  <SCORE.SYSTEM>
0

>  <SCORE.SYSTEM.CONST>
0

>  <SCORE.SYSTEM.DIHEDRAL>
0

>  <SCORE.SYSTEM.SOLV>
0

>  <SCORE.SYSTEM.norm>
0

>  <SCORE.heavy>
31

>  <SCORE.norm>
-0.0217167

>  <RMSD>
4.919

$$$$
lig.pdb
 OpenBabel11021811453D
libRbt.so/2013.1/901 2013/11/27
 31 33  0  0  0  0  0  0  0  0999 V2000
    5.4110   -0.7798    4.0712 O   0  0  0  0  0  0  0  0  0  0  0  0
    4.5534   -1.2911    5.0728 C   0  0  0  0  0  0  0  0  0  0  0  0
    3.1996   -0.5682    5.0749 C   0  0  1  0  0  0  0  0  0  0  0  0
    2.6118   -0.5453    3.7838 O   0  0  0  0  0  0  0  0  0  0  0  0
    1.1962   -0.4438    3.9043 C   0  0  1  0  0  0  0  0  0  0  0  0
    0.5700   -1.4028    3.0604 O   0  0  0  0  0  0  0  0  0  0  0  0
   -0.7062   -1.0696    2.5377 C   0  0  2  0  0  0  0  0  0  0  0  0
   -1.3209   -2.3510    1.9526 C   0  0  1  0  0  0  0  0  0  0  0  0
   -1.6498   -3.2463    3.0032 O   0  0  0  0  0  0  0  0  0  0  0  0
   -2.6004   -2.1154    1.1356 C   0  0  2  0  0  0  0  0  0  0  0  0
   -3.0770   -3.3674    0.5278 N   0  0  0  0  0  0  0  0  0  0  0  0
   -2.3296   -1.0907    0.0403 C   0  0  0  0  0  0  0  0  0  0  0  0
   -1.7956    0.1945    0.6608 C   0  0  2  0  0  0  0  0  0  0  0  0
   -1.5963    1.1791   -0.4081 N   0  0  0  0  0  0  0  0  0  0  0  0
   -0.4888   -0.0846    1.4341 C   0  0  1  0  0  0  0  0  0  0  0  0
   -0.0729    1.1867    1.9560 O   0  0  0  0  0  0  0  0  0  0  0  0
    0.4633    2.1250    1.0293 C   0  0  1  0  0  0  0  0  0  0  0  0
   -0.4049    3.2463    0.8892 O   0  0  0  0  0  0  0  0  0  0  0  0
   -0.5114    4.1065    2.0215 C   0  0  2  0  0  0  0  0  0  0  0  0
   -1.4798    5.2492    1.6883 C   0  0  0  0  0  0  0  0  0  0  0  0
   -2.8688    4.8286    1.8037 N   0  0  0  0  0  0  0  0  0  0  0  0
    0.8647    4.6830    2.4031 C   0  0  1  0  0  0  0  0  0  0  0  0
    0.7426    5.4860    3.5636 O   0  0  0  0  0  0  0  0  0  0  0  0
    1.8291    3.5209    2.6715 C   0  0  2  0  0  0  0  0  0  0  0  0
    3.1270    4.0175    2.9396 O   0  0  0  0  0  0  0  0  0  0  0  0
    1.8639    2.5585    1.4766 C   0  0  1  0  0  0  0  0  0  0  0  0
    2.6909    1.3862    1.7964 N   0  0  0  0  0  0  0  0  0  0  0  0
    0.8517   -0.7467    5.3698 C   0  0  2  0  0  0  0  0  0  0  0  0
    0.4336    0.4392    6.0198 O   0  0  0  0  0  0  0  0  0  0  0  0
    2.1640   -1.3039    5.9193 C   0  0  2  0  0  0  0  0  0  0  0  0
    2.3244   -1.1128    7.3110 O   0  0  0  0  0  0  0  0  0  0  0  0
  2  1  1  0  0  0  0
  3  2  1  6  0  0  0
  3 30  1  0  0  0  0
  4  5  1  0  0  0  0
  4  3  1  0  0  0  0
  5 28  1  0  0  0  0
  5  6  1  6  0  0  0
  7  6  1  6  0  0  0
  8  7  1  0  0  0  0
  8  9  1  1  0  0  0
 10 11  1  6  0  0  0
 10  8  1  0  0  0  0
 12 10  1  0  0  0  0
 13 12  1  0  0  0  0
 13 15  1  0  0  0  0
 13 14  1  6  0  0  0
 15  7  1  0  0  0  0
 15 16  1  1  0  0  0
 17 16  1  1  0  0  0
 18 17  1  0  0  0  0
 19 20  1  6  0  0  0
 19 18  1  0  0  0  0
 20 21  1  0  0  0  0
 22 24  1  0  0  0  0
 22 19  1  0  0  0  0
 22 23  1  1  0  0  0
 24 25  1  6  0  0  0
 24 26  1  0  0  0  0
 26 17  1  0  0  0  0
 26 27  1  1  0  0  0
 28 29  1  1  0  0  0
 28 30  1  0  0  0  0
 30 31  1  1  0  0  0
M  END
>  <CHROM.1>
-178.19741382,51.74266033,-149.97721215,-166.73499780,-66.23189118,-154.23552590
43.70980141,166.00675857,112.85776642,79.52706204,50.74596499,58.70629089
-53.68813002,44.58610928,69.55945401,-179.97369198,0.46321297,0.73867455
2.74906205,-0.88236464,-0.64565463,-0.20596268

>  <Name>
lig.pdb

>  <RI>
0

>  <Rbt.Current_Directory>
/home/itssahil/PROJECTS/Mol_Feturizer/New_Systems/rnas/2n0j

>  <Rbt.Executable>
rbdock ($Id: //depot/dev/client3/rdock/2013.1/src/exe/rbdock.cxx#4 $)

>  <Rbt.Library>
libRbt.so (2013.1, Build901 2013/11/27)

>  <Rbt.Parameter_File>
/export/apps/rDock/src/rDock_2013.1_src/data/scripts/dock_solv.prm

>  <Rbt.Receptor>
prm/blind_docking_60.prm

>  <SCORE>
-16.5982

>  <SCORE.INTER>
-16.7875

>  <SCORE.INTER.CONST>
1

>  <SCORE.INTER.POLAR>
-3.78071

>  <SCORE.INTER.ROT>
6

>  <SCORE.INTER.SOLV>
26.7899

>  <SCORE.INTER.VDW>
-15.1193

>  <SCORE.INTER.norm>
-0.541533

>  <SCORE.INTRA>
-1.99498

>  <SCORE.INTRA.DIHEDRAL>
-10.2817

>  <SCORE.INTRA.DIHEDRAL.0>
28.0161

>  <SCORE.INTRA.POLAR>
-0.556615

>  <SCORE.INTRA.POLAR.0>
-1.05798

>  <SCORE.INTRA.REPUL>
0

>  <SCORE.INTRA.REPUL.0>
0

>  <SCORE.INTRA.SOLV>
-0.0841593

>  <SCORE.INTRA.SOLV.lig_0>
-42.5945

>  <SCORE.INTRA.VDW>
5.08047

>  <SCORE.INTRA.VDW.0>
-5.13869

>  <SCORE.INTRA.norm>
-0.064354

>  <SCORE.RESTR>
2.18428

>  <SCORE.RESTR.CAVITY>
2.18428

>  <SCORE.RESTR.norm>
0.0704607

>  <SCORE.SYSTEM>
0

>  <SCORE.SYSTEM.CONST>
0

>  <SCORE.SYSTEM.DIHEDRAL>
0

>  <SCORE.SYSTEM.SOLV>
0

>  <SCORE.SYSTEM.norm>
0

>  <SCORE.heavy>
31

>  <SCORE.norm>
-0.535426

>  <RMSD>
4.925

$$$$
lig.pdb
 OpenBabel11021811453D
libRbt.so/2013.1/901 2013/11/27
 31 33  0  0  0  0  0  0  0  0999 V2000
   -3.2240    3.6576    9.9951 O   0  0  0  0  0  0  0  0  0  0  0  0
   -4.4453    3.1529    9.4913 C   0  0  0  0  0  0  0  0  0  0  0  0
   -4.2345    2.3727    8.1867 C   0  0  1  0  0  0  0  0  0  0  0  0
   -3.6411    3.1780    7.1805 O   0  0  0  0  0  0  0  0  0  0  0  0
   -2.9293    2.3518    6.2643 C   0  0  1  0  0  0  0  0  0  0  0  0
   -1.6334    2.8917    6.0338 O   0  0  0  0  0  0  0  0  0  0  0  0
   -1.5531    4.0665    5.2425 C   0  0  2  0  0  0  0  0  0  0  0  0
   -2.2672    5.1937    6.0051 C   0  0  1  0  0  0  0  0  0  0  0  0
   -1.5101    5.5498    7.1512 O   0  0  0  0  0  0  0  0  0  0  0  0
   -2.4770    6.4728    5.1804 C   0  0  2  0  0  0  0  0  0  0  0  0
   -3.2491    7.4693    5.9386 N   0  0  0  0  0  0  0  0  0  0  0  0
   -3.2126    6.1367    3.8886 C   0  0  0  0  0  0  0  0  0  0  0  0
   -2.4384    5.0736    3.1189 C   0  0  2  0  0  0  0  0  0  0  0  0
   -3.1390    4.8101    1.8574 N   0  0  0  0  0  0  0  0  0  0  0  0
   -2.2905    3.7944    3.9706 C   0  0  1  0  0  0  0  0  0  0  0  0
   -1.5675    2.8668    3.1471 O   0  0  0  0  0  0  0  0  0  0  0  0
   -0.4933    2.1583    3.7561 C   0  0  1  0  0  0  0  0  0  0  0  0
   -0.7308    0.7538    3.7176 O   0  0  0  0  0  0  0  0  0  0  0  0
   -0.6836    0.1415    2.4306 C   0  0  2  0  0  0  0  0  0  0  0  0
   -0.9588   -1.3603    2.5843 C   0  0  0  0  0  0  0  0  0  0  0  0
   -0.3987   -1.8865    3.8208 N   0  0  0  0  0  0  0  0  0  0  0  0
    0.6921    0.3553    1.7722 C   0  0  1  0  0  0  0  0  0  0  0  0
    0.6947   -0.2103    0.4734 O   0  0  0  0  0  0  0  0  0  0  0  0
    0.9689    1.8614    1.6861 C   0  0  2  0  0  0  0  0  0  0  0  0
    2.2649    2.0891    1.1649 O   0  0  0  0  0  0  0  0  0  0  0  0
    0.8272    2.5182    3.0659 C   0  0  1  0  0  0  0  0  0  0  0  0
    0.9688    3.9765    2.9479 N   0  0  0  0  0  0  0  0  0  0  0  0
   -2.8004    0.9692    6.9200 C   0  0  2  0  0  0  0  0  0  0  0  0
   -3.6314    0.0402    6.2492 O   0  0  0  0  0  0  0  0  0  0  0  0
   -3.2342    1.2344    8.3607 C   0  0  2  0  0  0  0  0  0  0  0  0
   -3.7709    0.0994    9.0111 O   0  0  0  0  0  0  0  0  0  0  0  0
  2  1  1  0  0  0  0
  3  2  1  1  0  0  0
  3 30  1  0  0  0  0
  4  5  1  0  0  0  0
  4  3  1  0  0  0  0
  5 28  1  0  0  0  0
  5  6  1  1  0  0  0
  7  6  1  1  0  0  0
  8  7  1  0  0  0  0
  8  9  1  1  0  0  0
 10 11  1  1  0  0  0
 10  8  1  0  0  0  0
 12 10  1  0  0  0  0
 13 12  1  0  0  0  0
 13 15  1  0  0  0  0
 13 14  1  6  0  0  0
 15  7  1  0  0  0  0
 15 16  1  6  0  0  0
 17 16  1  6  0  0  0
 18 17  1  0  0  0  0
 19 20  1  1  0  0  0
 19 18  1  0  0  0  0
 20 21  1  0  0  0  0
 22 24  1  0  0  0  0
 22 19  1  0  0  0  0
 22 23  1  6  0  0  0
 24 25  1  1  0  0  0
 24 26  1  0  0  0  0
 26 17  1  0  0  0  0
 26 27  1  6  0  0  0
 28 29  1  6  0  0  0
 28 30  1  0  0  0  0
 30 31  1  6  0  0  0
M  END
>  <CHROM.1>
58.34710510,-58.84299164,-72.76586119,64.56810289,-11.47810494,160.03558519
-59.73104619,13.46215355,119.28741305,-35.19374374,84.76256606,-176.17587136
173.92554777,177.21593580,-176.06330413,-63.05234633,-1.73204235,2.62909600
4.86733701,2.99036063,1.02980389,-0.23906424

>  <Name>
lig.pdb

>  <RI>
0

>  <Rbt.Current_Directory>
/home/itssahil/PROJECTS/Mol_Feturizer/New_Systems/rnas/2n0j

>  <Rbt.Executable>
rbdock ($Id: //depot/dev/client3/rdock/2013.1/src/exe/rbdock.cxx#4 $)

>  <Rbt.Library>
libRbt.so (2013.1, Build901 2013/11/27)

>  <Rbt.Parameter_File>
/export/apps/rDock/src/rDock_2013.1_src/data/scripts/dock_solv.prm

>  <Rbt.Receptor>
prm/pocket_docking_8.prm

>  <SCORE>
-31.9025

>  <SCORE.INTER>
-41.1775

>  <SCORE.INTER.CONST>
1

>  <SCORE.INTER.POLAR>
-5.98199

>  <SCORE.INTER.ROT>
6

>  <SCORE.INTER.SOLV>
18.7279

>  <SCORE.INTER.VDW>
-21.3543

>  <SCORE.INTER.norm>
-1.32831

>  <SCORE.INTRA>
9.27499

>  <SCORE.INTRA.DIHEDRAL>
-2.27444

>  <SCORE.INTRA.DIHEDRAL.0>
28.0161

>  <SCORE.INTRA.POLAR>
1.02498

>  <SCORE.INTRA.POLAR.0>
-1.05798

>  <SCORE.INTRA.REPUL>
0

>  <SCORE.INTRA.REPUL.0>
0

>  <SCORE.INTRA.SOLV>
0.74819

>  <SCORE.INTRA.SOLV.lig_0>
-42.5945

>  <SCORE.INTRA.VDW>
6.55318

>  <SCORE.INTRA.VDW.0>
-5.13869

>  <SCORE.INTRA.norm>
0.299193

>  <SCORE.RESTR>
0

>  <SCORE.RESTR.CAVITY>
0

>  <SCORE.RESTR.norm>
0

>  <SCORE.SYSTEM>
0

>  <SCORE.SYSTEM.CONST>
0

>  <SCORE.SYSTEM.DIHEDRAL>
0

>  <SCORE.SYSTEM.SOLV>
0

>  <SCORE.SYSTEM.norm>
0

>  <SCORE.heavy>
31

>  <SCORE.norm>
-1.02911

>  <RMSD>
4.980

$$$$
lig.pdb
 OpenBabel11021811453D
libRbt.so/2013.1/901 2013/11/27
 31 33  0  0  0  0  0  0  0  0999 V2000
   -3.4517   -2.5393    2.3001 O   0  0  0  0  0  0  0  0  0  0  0  0
   -3.4318   -1.2671    2.9176 C   0  0  0  0  0  0  0  0  0  0  0  0
   -2.8020   -0.2088    2.0019 C   0  0  1  0  0  0  0  0  0  0  0  0
   -2.5755    1.0133    2.6860 O   0  0  0  0  0  0  0  0  0  0  0  0
   -1.5060    1.7189    2.0639 C   0  0  1  0  0  0  0  0  0  0  0  0
   -0.5867    2.1705    3.0513 O   0  0  0  0  0  0  0  0  0  0  0  0
   -0.8789    3.4017    3.6928 C   0  0  2  0  0  0  0  0  0  0  0  0
   -2.2442    3.2566    4.3836 C   0  0  1  0  0  0  0  0  0  0  0  0
   -2.1322    2.3639    5.4809 O   0  0  0  0  0  0  0  0  0  0  0  0
   -2.8160    4.5760    4.9242 C   0  0  2  0  0  0  0  0  0  0  0  0
   -4.1623    4.3784    5.4833 N   0  0  0  0  0  0  0  0  0  0  0  0
   -2.8784    5.6068    3.8033 C   0  0  0  0  0  0  0  0  0  0  0  0
   -1.4940    5.7847    3.1921 C   0  0  2  0  0  0  0  0  0  0  0  0
   -1.5727    6.8197    2.1556 N   0  0  0  0  0  0  0  0  0  0  0  0
   -0.9804    4.4436    2.6252 C   0  0  1  0  0  0  0  0  0  0  0  0
    0.3102    4.7324    2.0663 O   0  0  0  0  0  0  0  0  0  0  0  0
    1.3855    4.9225    2.9795 C   0  0  1  0  0  0  0  0  0  0  0  0
    2.2467    3.7871    2.9863 O   0  0  0  0  0  0  0  0  0  0  0  0
    3.0119    3.5692    1.8029 C   0  0  2  0  0  0  0  0  0  0  0  0
    3.8740    2.3141    1.9926 C   0  0  0  0  0  0  0  0  0  0  0  0
    3.0771    1.1733    2.4207 N   0  0  0  0  0  0  0  0  0  0  0  0
    3.9133    4.7811    1.5023 C   0  0  1  0  0  0  0  0  0  0  0  0
    4.6184    4.5655    0.2928 O   0  0  0  0  0  0  0  0  0  0  0  0
    3.0336    6.0313    1.3779 C   0  0  2  0  0  0  0  0  0  0  0  0
    3.8413    7.1779    1.1884 O   0  0  0  0  0  0  0  0  0  0  0  0
    2.1532    6.2006    2.6234 C   0  0  1  0  0  0  0  0  0  0  0  0
    1.2262    7.3260    2.4374 N   0  0  0  0  0  0  0  0  0  0  0  0
   -0.8048    0.7262    1.1253 C   0  0  2  0  0  0  0  0  0  0  0  0
   -1.0741    1.0669   -0.2219 O   0  0  0  0  0  0  0  0  0  0  0  0
   -1.4068   -0.6159    1.5388 C   0  0  2  0  0  0  0  0  0  0  0  0
   -1.4090   -1.5807    0.5053 O   0  0  0  0  0  0  0  0  0  0  0  0
  2  1  1  0  0  0  0
  3  2  1  1  0  0  0
  3 30  1  0  0  0  0
  4  5  1  0  0  0  0
  4  3  1  0  0  0  0
  5 28  1  0  0  0  0
  5  6  1  1  0  0  0
  7  6  1  6  0  0  0
  8  7  1  0  0  0  0
  8  9  1  1  0  0  0
 10 11  1  6  0  0  0
 10  8  1  0  0  0  0
 12 10  1  0  0  0  0
 13 12  1  0  0  0  0
 13 15  1  0  0  0  0
 13 14  1  6  0  0  0
 15  7  1  0  0  0  0
 15 16  1  1  0  0  0
 17 16  1  6  0  0  0
 18 17  1  0  0  0  0
 19 20  1  1  0  0  0
 19 18  1  0  0  0  0
 20 21  1  0  0  0  0
 22 24  1  0  0  0  0
 22 19  1  0  0  0  0
 22 23  1  6  0  0  0
 24 25  1  1  0  0  0
 24 26  1  0  0  0  0
 26 17  1  0  0  0  0
 26 27  1  6  0  0  0
 28 29  1  6  0  0  0
 28 30  1  0  0  0  0
 30 31  1  6  0  0  0
M  END
>  <CHROM.1>
176.54796899,-170.30422895,-84.72087838,59.45876751,56.12842943,-33.54933850
-19.33565702,-45.82855057,105.31809331,52.28279210,109.30921021,175.59736161
-57.75672124,-68.25732773,-63.69373678,63.54189062,-0.17963629,3.13627889
2.48024231,-2.41579933,0.41235237,0.29883794

>  <Name>
lig.pdb

>  <RI>
2.67765e+07

>  <Rbt.Current_Directory>
/home/itssahil/PROJECTS/Mol_Feturizer/New_Systems/rnas/2n0j

>  <Rbt.Executable>
rbdock ($Id: //depot/dev/client3/rdock/2013.1/src/exe/rbdock.cxx#4 $)

>  <Rbt.Library>
libRbt.so (2013.1, Build901 2013/11/27)

>  <Rbt.Parameter_File>
/export/apps/rDock/src/rDock_2013.1_src/data/scripts/dock_solv.prm

>  <Rbt.Receptor>
prm/pocket_docking_2.prm

>  <SCORE>
-35.5201

>  <SCORE.INTER>
-41.8192

>  <SCORE.INTER.CONST>
1

>  <SCORE.INTER.POLAR>
-5.09137

>  <SCORE.INTER.ROT>
6

>  <SCORE.INTER.SOLV>
13.3135

>  <SCORE.INTER.VDW>
-22.9461

>  <SCORE.INTER.norm>
-1.34901

>  <SCORE.INTRA>
4.78419

>  <SCORE.INTRA.DIHEDRAL>
-9.26564

>  <SCORE.INTRA.DIHEDRAL.0>
28.0161

>  <SCORE.INTRA.POLAR>
0.950035

>  <SCORE.INTRA.POLAR.0>
-1.05798

>  <SCORE.INTRA.REPUL>
0

>  <SCORE.INTRA.REPUL.0>
0

>  <SCORE.INTRA.SOLV>
0.791104

>  <SCORE.INTRA.SOLV.lig_0>
-42.5945

>  <SCORE.INTRA.VDW>
5.79133

>  <SCORE.INTRA.VDW.0>
-5.13869

>  <SCORE.INTRA.norm>
0.154329

>  <SCORE.RESTR>
1.51485

>  <SCORE.RESTR.CAVITY>
1.51485

>  <SCORE.RESTR.norm>
0.0488661

>  <SCORE.SYSTEM>
0

>  <SCORE.SYSTEM.CONST>
0

>  <SCORE.SYSTEM.DIHEDRAL>
0

>  <SCORE.SYSTEM.SOLV>
0

>  <SCORE.SYSTEM.norm>
0

>  <SCORE.heavy>
31

>  <SCORE.norm>
-1.14581

>  <RMSD>
5.017

$$$$
lig.pdb
 OpenBabel11021811453D
libRbt.so/2013.1/901 2013/11/27
 31 33  0  0  0  0  0  0  0  0999 V2000
   -3.2817   -1.7290    5.0982 O   0  0  0  0  0  0  0  0  0  0  0  0
   -2.2102   -0.8280    4.8978 C   0  0  0  0  0  0  0  0  0  0  0  0
   -2.5494    0.5732    5.4241 C   0  0  1  0  0  0  0  0  0  0  0  0
   -1.5267    1.5104    5.1264 O   0  0  0  0  0  0  0  0  0  0  0  0
   -2.0821    2.8204    5.0620 C   0  0  1  0  0  0  0  0  0  0  0  0
   -1.6256    3.4810    3.8876 O   0  0  0  0  0  0  0  0  0  0  0  0
   -1.2584    4.8456    4.0139 C   0  0  2  0  0  0  0  0  0  0  0  0
   -2.5513    5.6753    4.0613 C   0  0  1  0  0  0  0  0  0  0  0  0
   -3.2312    5.4317    5.2827 O   0  0  0  0  0  0  0  0  0  0  0  0
   -2.3267    7.1915    3.9578 C   0  0  2  0  0  0  0  0  0  0  0  0
   -3.6077    7.9133    3.9120 N   0  0  0  0  0  0  0  0  0  0  0  0
   -1.5212    7.5074    2.7030 C   0  0  0  0  0  0  0  0  0  0  0  0
   -0.2111    6.7296    2.7250 C   0  0  2  0  0  0  0  0  0  0  0  0
    0.5661    7.0940    1.5355 N   0  0  0  0  0  0  0  0  0  0  0  0
   -0.4881    5.2119    2.7860 C   0  0  1  0  0  0  0  0  0  0  0  0
    0.8040    4.5858    2.7853 O   0  0  0  0  0  0  0  0  0  0  0  0
    1.2034    3.9223    1.5908 C   0  0  1  0  0  0  0  0  0  0  0  0
    2.2189    4.6629    0.9192 O   0  0  0  0  0  0  0  0  0  0  0  0
    3.4896    4.7181    1.5640 C   0  0  2  0  0  0  0  0  0  0  0  0
    4.4488    5.5493    0.7016 C   0  0  0  0  0  0  0  0  0  0  0  0
    3.9130    6.8746    0.4251 N   0  0  0  0  0  0  0  0  0  0  0  0
    4.0630    3.3033    1.7670 C   0  0  1  0  0  0  0  0  0  0  0  0
    5.2958    3.3810    2.4604 O   0  0  0  0  0  0  0  0  0  0  0  0
    3.0587    2.4759    2.5789 C   0  0  2  0  0  0  0  0  0  0  0  0
    3.5176    1.1433    2.7078 O   0  0  0  0  0  0  0  0  0  0  0  0
    1.6749    2.5005    1.9160 C   0  0  1  0  0  0  0  0  0  0  0  0
    0.6945    1.8125    2.7680 N   0  0  0  0  0  0  0  0  0  0  0  0
   -3.6073    2.6541    4.9976 C   0  0  2  0  0  0  0  0  0  0  0  0
   -4.1879    3.0715    6.2192 O   0  0  0  0  0  0  0  0  0  0  0  0
   -3.7753    1.1591    4.7309 C   0  0  2  0  0  0  0  0  0  0  0  0
   -5.0007    0.6320    5.1997 O   0  0  0  0  0  0  0  0  0  0  0  0
  2  1  1  0  0  0  0
  3  2  1  6  0  0  0
  3 30  1  0  0  0  0
  4  5  1  0  0  0  0
  4  3  1  0  0  0  0
  5 28  1  0  0  0  0
  5  6  1  6  0  0  0
  7  6  1  6  0  0  0
  8  7  1  0  0  0  0
  8  9  1  1  0  0  0
 10 11  1  6  0  0  0
 10  8  1  0  0  0  0
 12 10  1  0  0  0  0
 13 12  1  0  0  0  0
 13 15  1  0  0  0  0
 13 14  1  6  0  0  0
 15  7  1  0  0  0  0
 15 16  1  1  0  0  0
 17 16  1  1  0  0  0
 18 17  1  0  0  0  0
 19 20  1  6  0  0  0
 19 18  1  0  0  0  0
 20 21  1  0  0  0  0
 22 24  1  0  0  0  0
 22 19  1  0  0  0  0
 22 23  1  1  0  0  0
 24 25  1  6  0  0  0
 24 26  1  0  0  0  0
 26 17  1  0  0  0  0
 26 27  1  1  0  0  0
 28 29  1  1  0  0  0
 28 30  1  0  0  0  0
 30 31  1  1  0  0  0
M  END
>  <CHROM.1>
-57.68943391,-175.02707578,-138.28825407,-77.49861464,-164.47658168,155.33582383
-40.19870530,132.03829914,107.74949691,55.47034161,65.66298723,-174.30803433
-61.05965343,-147.61881237,176.96691794,-177.70629448,-0.34026795,3.72189527
3.35624135,-2.67376210,0.41262784,-0.21006731

>  <Name>
lig.pdb

>  <RI>
3.33129e+07

>  <Rbt.Current_Directory>
/home/itssahil/PROJECTS/Mol_Feturizer/New_Systems/rnas/2n0j

>  <Rbt.Executable>
rbdock ($Id: //depot/dev/client3/rdock/2013.1/src/exe/rbdock.cxx#4 $)

>  <Rbt.Library>
libRbt.so (2013.1, Build901 2013/11/27)

>  <Rbt.Parameter_File>
/export/apps/rDock/src/rDock_2013.1_src/data/scripts/dock_solv.prm

>  <Rbt.Receptor>
prm/pocket_docking_4.prm

>  <SCORE>
-50.0747

>  <SCORE.INTER>
-49.7513

>  <SCORE.INTER.CONST>
1

>  <SCORE.INTER.POLAR>
-6.28007

>  <SCORE.INTER.ROT>
6

>  <SCORE.INTER.SOLV>
16.1009

>  <SCORE.INTER.VDW>
-25.2009

>  <SCORE.INTER.norm>
-1.60488

>  <SCORE.INTRA>
-0.323415

>  <SCORE.INTRA.DIHEDRAL>
-1.8634

>  <SCORE.INTRA.DIHEDRAL.0>
28.0161

>  <SCORE.INTRA.POLAR>
-0.652892

>  <SCORE.INTRA.POLAR.0>
-1.05798

>  <SCORE.INTRA.REPUL>
0

>  <SCORE.INTRA.REPUL.0>
0

>  <SCORE.INTRA.SOLV>
1.82485

>  <SCORE.INTRA.SOLV.lig_0>
-42.5945

>  <SCORE.INTRA.VDW>
1.9157

>  <SCORE.INTRA.VDW.0>
-5.13869

>  <SCORE.INTRA.norm>
-0.0104327

>  <SCORE.RESTR>
0

>  <SCORE.RESTR.CAVITY>
0

>  <SCORE.RESTR.norm>
0

>  <SCORE.SYSTEM>
0

>  <SCORE.SYSTEM.CONST>
0

>  <SCORE.SYSTEM.DIHEDRAL>
0

>  <SCORE.SYSTEM.SOLV>
0

>  <SCORE.SYSTEM.norm>
0

>  <SCORE.heavy>
31

>  <SCORE.norm>
-1.61531

>  <RMSD>
5.035

$$$$
lig.pdb
 OpenBabel11021811453D
libRbt.so/2013.1/901 2013/11/27
 31 33  0  0  0  0  0  0  0  0999 V2000
   -4.9412   -1.9609    3.9658 O   0  0  0  0  0  0  0  0  0  0  0  0
   -5.2094   -1.0957    5.0518 C   0  0  0  0  0  0  0  0  0  0  0  0
   -3.9624   -0.2965    5.4538 C   0  0  1  0  0  0  0  0  0  0  0  0
   -3.4429    0.4528    4.3668 O   0  0  0  0  0  0  0  0  0  0  0  0
   -2.7307    1.5827    4.8614 C   0  0  1  0  0  0  0  0  0  0  0  0
   -3.1299    2.7517    4.1557 O   0  0  0  0  0  0  0  0  0  0  0  0
   -2.2380    3.8549    4.1739 C   0  0  2  0  0  0  0  0  0  0  0  0
   -3.0821    5.1390    4.1470 C   0  0  1  0  0  0  0  0  0  0  0  0
   -3.7686    5.2859    5.3801 O   0  0  0  0  0  0  0  0  0  0  0  0
   -2.2654    6.4208    3.9232 C   0  0  2  0  0  0  0  0  0  0  0  0
   -3.1449    7.5948    3.8121 N   0  0  0  0  0  0  0  0  0  0  0  0
   -1.4358    6.2863    2.6517 C   0  0  0  0  0  0  0  0  0  0  0  0
   -0.5531    5.0477    2.7436 C   0  0  2  0  0  0  0  0  0  0  0  0
    0.2722    4.9738    1.5331 N   0  0  0  0  0  0  0  0  0  0  0  0
   -1.4194    3.7827    2.9249 C   0  0  1  0  0  0  0  0  0  0  0  0
   -0.4923    2.6878    2.9820 O   0  0  0  0  0  0  0  0  0  0  0  0
   -0.0045    2.1848    1.7429 C   0  0  1  0  0  0  0  0  0  0  0  0
    1.4045    2.3734    1.6428 O   0  0  0  0  0  0  0  0  0  0  0  0
    2.2095    1.5884    2.5199 C   0  0  2  0  0  0  0  0  0  0  0  0
    3.6864    1.9217    2.2706 C   0  0  0  0  0  0  0  0  0  0  0  0
    3.8971    3.3545    2.1205 N   0  0  0  0  0  0  0  0  0  0  0  0
    1.9672    0.0854    2.2880 C   0  0  1  0  0  0  0  0  0  0  0  0
    2.7328   -0.6710    3.2091 O   0  0  0  0  0  0  0  0  0  0  0  0
    0.4748   -0.2095    2.4836 C   0  0  2  0  0  0  0  0  0  0  0  0
    0.2047   -1.5677    2.1915 O   0  0  0  0  0  0  0  0  0  0  0  0
   -0.3793    0.7057    1.5959 C   0  0  1  0  0  0  0  0  0  0  0  0
   -1.8059    0.5023    1.8859 N   0  0  0  0  0  0  0  0  0  0  0  0
   -3.1005    1.7270    6.3448 C   0  0  2  0  0  0  0  0  0  0  0  0
   -1.9927    1.3748    7.1524 O   0  0  0  0  0  0  0  0  0  0  0  0
   -4.2831    0.7713    6.4949 C   0  0  2  0  0  0  0  0  0  0  0  0
   -4.4392    0.2610    7.8042 O   0  0  0  0  0  0  0  0  0  0  0  0
  2  1  1  0  0  0  0
  3  2  1  6  0  0  0
  3 30  1  0  0  0  0
  4  5  1  0  0  0  0
  4  3  1  0  0  0  0
  5 28  1  0  0  0  0
  5  6  1  6  0  0  0
  7  6  1  6  0  0  0
  8  7  1  0  0  0  0
  8  9  1  1  0  0  0
 10 11  1  6  0  0  0
 10  8  1  0  0  0  0
 12 10  1  0  0  0  0
 13 12  1  0  0  0  0
 13 15  1  0  0  0  0
 13 14  1  6  0  0  0
 15  7  1  0  0  0  0
 15 16  1  1  0  0  0
 17 16  1  1  0  0  0
 18 17  1  0  0  0  0
 19 20  1  6  0  0  0
 19 18  1  0  0  0  0
 20 21  1  0  0  0  0
 22 24  1  0  0  0  0
 22 19  1  0  0  0  0
 22 23  1  1  0  0  0
 24 25  1  6  0  0  0
 24 26  1  0  0  0  0
 26 17  1  0  0  0  0
 26 27  1  1  0  0  0
 28 29  1  1  0  0  0
 28 30  1  0  0  0  0
 30 31  1  1  0  0  0
M  END
>  <CHROM.1>
-175.56732983,56.99513067,-158.88913451,-146.95177446,-59.17773068,35.68398635
45.29944077,157.68502279,116.66054426,42.97235263,57.62452638,-156.27032232
-52.30211014,47.25602642,-177.34991346,-39.03185171,-1.32512999,2.13344162
3.67798358,-2.92845138,0.52492052,-0.08673707

>  <Name>
lig.pdb

>  <RI>
2.74555e+07

>  <Rbt.Current_Directory>
/home/itssahil/PROJECTS/Mol_Feturizer/New_Systems/rnas/2n0j

>  <Rbt.Executable>
rbdock ($Id: //depot/dev/client3/rdock/2013.1/src/exe/rbdock.cxx#4 $)

>  <Rbt.Library>
libRbt.so (2013.1, Build901 2013/11/27)

>  <Rbt.Parameter_File>
/export/apps/rDock/src/rDock_2013.1_src/data/scripts/dock_solv.prm

>  <Rbt.Receptor>
prm/pocket_docking_6.prm

>  <SCORE>
-41.6385

>  <SCORE.INTER>
-39.4543

>  <SCORE.INTER.CONST>
1

>  <SCORE.INTER.POLAR>
-5.19965

>  <SCORE.INTER.ROT>
6

>  <SCORE.INTER.SOLV>
13.8818

>  <SCORE.INTER.VDW>
-21.198

>  <SCORE.INTER.norm>
-1.27272

>  <SCORE.INTRA>
-2.18416

>  <SCORE.INTRA.DIHEDRAL>
-4.24959

>  <SCORE.INTRA.DIHEDRAL.0>
28.0161

>  <SCORE.INTRA.POLAR>
-0.665826

>  <SCORE.INTRA.POLAR.0>
-1.05798

>  <SCORE.INTRA.REPUL>
0

>  <SCORE.INTRA.REPUL.0>
0

>  <SCORE.INTRA.SOLV>
-0.0155828

>  <SCORE.INTRA.SOLV.lig_0>
-42.5945

>  <SCORE.INTRA.VDW>
2.21223

>  <SCORE.INTRA.VDW.0>
-5.13869

>  <SCORE.INTRA.norm>
-0.0704569

>  <SCORE.RESTR>
0

>  <SCORE.RESTR.CAVITY>
0

>  <SCORE.RESTR.norm>
0

>  <SCORE.SYSTEM>
0

>  <SCORE.SYSTEM.CONST>
0

>  <SCORE.SYSTEM.DIHEDRAL>
0

>  <SCORE.SYSTEM.SOLV>
0

>  <SCORE.SYSTEM.norm>
0

>  <SCORE.heavy>
31

>  <SCORE.norm>
-1.34318

>  <RMSD>
5.036

$$$$
lig.pdb
 OpenBabel11021811453D
libRbt.so/2013.1/901 2013/11/27
 31 33  0  0  0  0  0  0  0  0999 V2000
   -0.7300   -1.6757    1.3753 O   0  0  0  0  0  0  0  0  0  0  0  0
   -0.2169   -2.2358    2.5683 C   0  0  0  0  0  0  0  0  0  0  0  0
   -0.7285   -1.4858    3.8056 C   0  0  1  0  0  0  0  0  0  0  0  0
   -0.4021   -0.1059    3.7585 O   0  0  0  0  0  0  0  0  0  0  0  0
   -1.3440    0.6352    4.5282 C   0  0  1  0  0  0  0  0  0  0  0  0
   -1.7997    1.7579    3.7826 O   0  0  0  0  0  0  0  0  0  0  0  0
   -2.0089    2.9665    4.4956 C   0  0  2  0  0  0  0  0  0  0  0  0
   -3.4853    3.0093    4.9205 C   0  0  1  0  0  0  0  0  0  0  0  0
   -3.7250    2.0268    5.9158 O   0  0  0  0  0  0  0  0  0  0  0  0
   -3.9325    4.3616    5.4962 C   0  0  2  0  0  0  0  0  0  0  0  0
   -5.3740    4.3600    5.7896 N   0  0  0  0  0  0  0  0  0  0  0  0
   -3.6185    5.4729    4.5015 C   0  0  0  0  0  0  0  0  0  0  0  0
   -2.1332    5.4526    4.1615 C   0  0  2  0  0  0  0  0  0  0  0  0
   -1.8502    6.5642    3.2472 N   0  0  0  0  0  0  0  0  0  0  0  0
   -1.7410    4.0913    3.5477 C   0  0  1  0  0  0  0  0  0  0  0  0
   -0.3390    4.1923    3.2549 O   0  0  0  0  0  0  0  0  0  0  0  0
    0.0275    4.3855    1.8929 C   0  0  1  0  0  0  0  0  0  0  0  0
    0.6231    5.6669    1.7089 O   0  0  0  0  0  0  0  0  0  0  0  0
    1.9065    5.8564    2.3010 C   0  0  2  0  0  0  0  0  0  0  0  0
    2.3871    7.2822    1.9998 C   0  0  0  0  0  0  0  0  0  0  0  0
    1.4333    8.2806    2.4615 N   0  0  0  0  0  0  0  0  0  0  0  0
    2.9203    4.8366    1.7498 C   0  0  1  0  0  0  0  0  0  0  0  0
    4.1699    5.0068    2.3948 O   0  0  0  0  0  0  0  0  0  0  0  0
    2.3874    3.4220    2.0093 C   0  0  2  0  0  0  0  0  0  0  0  0
    3.2553    2.4622    1.4360 O   0  0  0  0  0  0  0  0  0  0  0  0
    0.9702    3.2641    1.4419 C   0  0  1  0  0  0  0  0  0  0  0  0
    0.4232    1.9498    1.8079 N   0  0  0  0  0  0  0  0  0  0  0  0
   -2.5240   -0.3054    4.8127 C   0  0  2  0  0  0  0  0  0  0  0  0
   -2.5302   -0.6676    6.1811 O   0  0  0  0  0  0  0  0  0  0  0  0
   -2.2521   -1.4840    3.8792 C   0  0  2  0  0  0  0  0  0  0  0  0
   -2.8017   -2.7058    4.3309 O   0  0  0  0  0  0  0  0  0  0  0  0
  2  1  1  0  0  0  0
  3  2  1  6  0  0  0
  3 30  1  0  0  0  0
  4  5  1  0  0  0  0
  4  3  1  0  0  0  0
  5 28  1  0  0  0  0
  5  6  1  6  0  0  0
  7  6  1  6  0  0  0
  8  7  1  0  0  0  0
  8  9  1  1  0  0  0
 10 11  1  6  0  0  0
 10  8  1  0  0  0  0
 12 10  1  0  0  0  0
 13 12  1  0  0  0  0
 13 15  1  0  0  0  0
 13 14  1  6  0  0  0
 15  7  1  0  0  0  0
 15 16  1  1  0  0  0
 17 16  1  1  0  0  0
 18 17  1  0  0  0  0
 19 20  1  6  0  0  0
 19 18  1  0  0  0  0
 20 21  1  0  0  0  0
 22 24  1  0  0  0  0
 22 19  1  0  0  0  0
 22 23  1  1  0  0  0
 24 25  1  6  0  0  0
 24 26  1  0  0  0  0
 26 17  1  0  0  0  0
 26 27  1  1  0  0  0
 28 29  1  1  0  0  0
 28 30  1  0  0  0  0
 30 31  1  1  0  0  0
M  END
>  <CHROM.1>
63.56356563,-57.39023713,-141.76289124,-93.10971201,60.29128863,-34.72074014
-49.07057933,135.40098335,113.84761483,56.39021428,-75.44383023,53.57865004
-64.43000988,-159.08058192,176.27470425,-60.38617069,-0.74074083,2.78280426
3.40381151,-2.18834310,0.52189619,0.01517140

>  <Name>
lig.pdb

>  <RI>
3.50357e+07

>  <Rbt.Current_Directory>
/home/itssahil/PROJECTS/Mol_Feturizer/New_Systems/rnas/2n0j

>  <Rbt.Executable>
rbdock ($Id: //depot/dev/client3/rdock/2013.1/src/exe/rbdock.cxx#4 $)

>  <Rbt.Library>
libRbt.so (2013.1, Build901 2013/11/27)

>  <Rbt.Parameter_File>
/export/apps/rDock/src/rDock_2013.1_src/data/scripts/dock_solv.prm

>  <Rbt.Receptor>
prm/pocket_docking_3.prm

>  <SCORE>
-29.6463

>  <SCORE.INTER>
-28.6426

>  <SCORE.INTER.CONST>
1

>  <SCORE.INTER.POLAR>
-3.91061

>  <SCORE.INTER.ROT>
6

>  <SCORE.INTER.SOLV>
13.466

>  <SCORE.INTER.VDW>
-18.1484

>  <SCORE.INTER.norm>
-0.923956

>  <SCORE.INTRA>
-1.00366

>  <SCORE.INTRA.DIHEDRAL>
-1.64405

>  <SCORE.INTRA.DIHEDRAL.0>
28.0161

>  <SCORE.INTRA.POLAR>
-0.481102

>  <SCORE.INTRA.POLAR.0>
-1.05798

>  <SCORE.INTRA.REPUL>
0

>  <SCORE.INTRA.REPUL.0>
0

>  <SCORE.INTRA.SOLV>
1.76402

>  <SCORE.INTRA.SOLV.lig_0>
-42.5945

>  <SCORE.INTRA.VDW>
0.5721

>  <SCORE.INTRA.VDW.0>
-5.13869

>  <SCORE.INTRA.norm>
-0.0323761

>  <SCORE.RESTR>
0

>  <SCORE.RESTR.CAVITY>
0

>  <SCORE.RESTR.norm>
0

>  <SCORE.SYSTEM>
0

>  <SCORE.SYSTEM.CONST>
0

>  <SCORE.SYSTEM.DIHEDRAL>
0

>  <SCORE.SYSTEM.SOLV>
0

>  <SCORE.SYSTEM.norm>
0

>  <SCORE.heavy>
31

>  <SCORE.norm>
-0.956332

>  <RMSD>
5.061

$$$$
lig.pdb
 OpenBabel11021811453D
libRbt.so/2013.1/901 2013/11/27
 31 33  0  0  0  0  0  0  0  0999 V2000
   -6.9049    1.6536    6.4933 O   0  0  0  0  0  0  0  0  0  0  0  0
   -6.2530    0.7875    5.5849 C   0  0  0  0  0  0  0  0  0  0  0  0
   -5.6478    1.5626    4.4067 C   0  0  1  0  0  0  0  0  0  0  0  0
   -4.8233    2.6305    4.8456 O   0  0  0  0  0  0  0  0  0  0  0  0
   -3.8477    2.9224    3.8497 C   0  0  1  0  0  0  0  0  0  0  0  0
   -2.5620    3.0275    4.4497 O   0  0  0  0  0  0  0  0  0  0  0  0
   -2.1937    4.2936    4.9731 C   0  0  2  0  0  0  0  0  0  0  0  0
   -3.2968    4.7356    5.9478 C   0  0  1  0  0  0  0  0  0  0  0  0
   -3.2715    3.9126    7.1035 O   0  0  0  0  0  0  0  0  0  0  0  0
   -3.1683    6.1916    6.4208 C   0  0  2  0  0  0  0  0  0  0  0  0
   -4.3068    6.5734    7.2706 N   0  0  0  0  0  0  0  0  0  0  0  0
   -3.1022    7.1202    5.2139 C   0  0  0  0  0  0  0  0  0  0  0  0
   -1.9500    6.7032    4.3081 C   0  0  2  0  0  0  0  0  0  0  0  0
   -1.8763    7.6451    3.1861 N   0  0  0  0  0  0  0  0  0  0  0  0
   -2.1451    5.2499    3.8249 C   0  0  1  0  0  0  0  0  0  0  0  0
   -1.0212    4.9741    2.9750 O   0  0  0  0  0  0  0  0  0  0  0  0
    0.1961    4.5981    3.6100 C   0  0  1  0  0  0  0  0  0  0  0  0
    0.2840    3.1810    3.7306 O   0  0  0  0  0  0  0  0  0  0  0  0
    0.4477    2.4537    2.5150 C   0  0  2  0  0  0  0  0  0  0  0  0
    0.5242    0.9557    2.8385 C   0  0  0  0  0  0  0  0  0  0  0  0
    1.7330    0.6261    3.5799 N   0  0  0  0  0  0  0  0  0  0  0  0
    1.7272    2.8951    1.7803 C   0  0  1  0  0  0  0  0  0  0  0  0
    1.8365    2.2018    0.5500 O   0  0  0  0  0  0  0  0  0  0  0  0
    1.6523    4.4054    1.5235 C   0  0  2  0  0  0  0  0  0  0  0  0
    2.8534    4.8578    0.9271 O   0  0  0  0  0  0  0  0  0  0  0  0
    1.3882    5.1649    2.8306 C   0  0  1  0  0  0  0  0  0  0  0  0
    1.1920    6.5949    2.5529 N   0  0  0  0  0  0  0  0  0  0  0  0
   -3.8579    1.7485    2.8598 C   0  0  2  0  0  0  0  0  0  0  0  0
   -4.4257    2.1617    1.6308 O   0  0  0  0  0  0  0  0  0  0  0  0
   -4.6955    0.6978    3.5869 C   0  0  2  0  0  0  0  0  0  0  0  0
   -5.3512   -0.2064    2.7199 O   0  0  0  0  0  0  0  0  0  0  0  0
  2  1  1  0  0  0  0
  3  2  1  1  0  0  0
  3 30  1  0  0  0  0
  4  5  1  0  0  0  0
  4  3  1  0  0  0  0
  5 28  1  0  0  0  0
  5  6  1  1  0  0  0
  7  6  1  6  0  0  0
  8  7  1  0  0  0  0
  8  9  1  1  0  0  0
 10 11  1  1  0  0  0
 10  8  1  0  0  0  0
 12 10  1  0  0  0  0
 13 12  1  0  0  0  0
 13 15  1  0  0  0  0
 13 14  1  6  0  0  0
 15  7  1  0  0  0  0
 15 16  1  6  0  0  0
 17 16  1  6  0  0  0
 18 17  1  0  0  0  0
 19 20  1  1  0  0  0
 19 18  1  0  0  0  0
 20 21  1  0  0  0  0
 22 24  1  0  0  0  0
 22 19  1  0  0  0  0
 22 23  1  6  0  0  0
 24 25  1  1  0  0  0
 24 26  1  0  0  0  0
 26 17  1  0  0  0  0
 26 27  1  6  0  0  0
 28 29  1  6  0  0  0
 28 30  1  0  0  0  0
 30 31  1  6  0  0  0
M  END
>  <CHROM.1>
-175.67277686,52.35666991,-86.43701082,53.96432501,61.21314273,49.28249998
-178.91622927,-38.92754236,91.93441674,-67.01933546,50.17866931,54.97877983
178.97755325,-73.93191411,69.59212742,-174.57186029,-1.95977813,3.61817874
3.80070404,-3.10362932,0.48277975,0.38490803

>  <Name>
lig.pdb

>  <RI>
3.32461e+07

>  <Rbt.Current_Directory>
/home/itssahil/PROJECTS/Mol_Feturizer/New_Systems/rnas/2n0j

>  <Rbt.Executable>
rbdock ($Id: //depot/dev/client3/rdock/2013.1/src/exe/rbdock.cxx#4 $)

>  <Rbt.Library>
libRbt.so (2013.1, Build901 2013/11/27)

>  <Rbt.Parameter_File>
/export/apps/rDock/src/rDock_2013.1_src/data/scripts/dock_solv.prm

>  <Rbt.Receptor>
prm/pocket_docking_7.prm

>  <SCORE>
-39.6494

>  <SCORE.INTER>
-38.9031

>  <SCORE.INTER.CONST>
1

>  <SCORE.INTER.POLAR>
-4.83879

>  <SCORE.INTER.ROT>
6

>  <SCORE.INTER.SOLV>
14.5098

>  <SCORE.INTER.VDW>
-22.2427

>  <SCORE.INTER.norm>
-1.25494

>  <SCORE.INTRA>
-0.74631

>  <SCORE.INTRA.DIHEDRAL>
-16.4682

>  <SCORE.INTRA.DIHEDRAL.0>
28.0161

>  <SCORE.INTRA.POLAR>
1.0543

>  <SCORE.INTRA.POLAR.0>
-1.05798

>  <SCORE.INTRA.REPUL>
0

>  <SCORE.INTRA.REPUL.0>
0

>  <SCORE.INTRA.SOLV>
0.153999

>  <SCORE.INTRA.SOLV.lig_0>
-42.5945

>  <SCORE.INTRA.VDW>
3.82616

>  <SCORE.INTRA.VDW.0>
-5.13869

>  <SCORE.INTRA.norm>
-0.0240745

>  <SCORE.RESTR>
0

>  <SCORE.RESTR.CAVITY>
0

>  <SCORE.RESTR.norm>
0

>  <SCORE.SYSTEM>
0

>  <SCORE.SYSTEM.CONST>
0

>  <SCORE.SYSTEM.DIHEDRAL>
0

>  <SCORE.SYSTEM.SOLV>
0

>  <SCORE.SYSTEM.norm>
0

>  <SCORE.heavy>
31

>  <SCORE.norm>
-1.27901

>  <RMSD>
5.064

$$$$
lig.pdb
 OpenBabel11021811453D
libRbt.so/2013.1/901 2013/11/27
 31 33  0  0  0  0  0  0  0  0999 V2000
   -1.3965   -2.9196    2.3789 O   0  0  0  0  0  0  0  0  0  0  0  0
   -1.6278   -1.7409    3.1254 C   0  0  0  0  0  0  0  0  0  0  0  0
   -1.9335   -0.5478    2.2098 C   0  0  1  0  0  0  0  0  0  0  0  0
   -1.8402    0.6867    2.9030 O   0  0  0  0  0  0  0  0  0  0  0  0
   -1.5283    1.7292    1.9840 C   0  0  1  0  0  0  0  0  0  0  0  0
   -0.4657    2.5235    2.4976 O   0  0  0  0  0  0  0  0  0  0  0  0
   -0.7948    3.4791    3.4932 C   0  0  2  0  0  0  0  0  0  0  0  0
   -1.8963    2.8731    4.3772 C   0  0  1  0  0  0  0  0  0  0  0  0
   -1.3600    1.8083    5.1467 O   0  0  0  0  0  0  0  0  0  0  0  0
   -2.5323    3.8704    5.3575 C   0  0  2  0  0  0  0  0  0  0  0  0
   -3.6399    3.2484    6.0994 N   0  0  0  0  0  0  0  0  0  0  0  0
   -3.0511    5.0827    4.5933 C   0  0  0  0  0  0  0  0  0  0  0  0
   -1.9169    5.7064    3.7894 C   0  0  2  0  0  0  0  0  0  0  0  0
   -2.4307    6.9001    3.1090 N   0  0  0  0  0  0  0  0  0  0  0  0
   -1.3393    4.6810    2.7901 C   0  0  1  0  0  0  0  0  0  0  0  0
   -0.3004    5.3766    2.0841 O   0  0  0  0  0  0  0  0  0  0  0  0
    0.8233    5.8092    2.8435 C   0  0  1  0  0  0  0  0  0  0  0  0
    1.7382    4.7353    3.0448 O   0  0  0  0  0  0  0  0  0  0  0  0
    2.4317    4.2726    1.8879 C   0  0  2  0  0  0  0  0  0  0  0  0
    3.3658    3.1250    2.2943 C   0  0  0  0  0  0  0  0  0  0  0  0
    4.7571    3.4312    1.9937 N   0  0  0  0  0  0  0  0  0  0  0  0
    3.2497    5.4098    1.2480 C   0  0  1  0  0  0  0  0  0  0  0  0
    3.8814    4.9413    0.0699 O   0  0  0  0  0  0  0  0  0  0  0  0
    2.3027    6.5672    0.9076 C   0  0  2  0  0  0  0  0  0  0  0  0
    3.0380    7.6637    0.3976 O   0  0  0  0  0  0  0  0  0  0  0  0
    1.5009    6.9934    2.1448 C   0  0  1  0  0  0  0  0  0  0  0  0
    0.5089    8.0137    1.7768 N   0  0  0  0  0  0  0  0  0  0  0  0
   -1.0802    1.0532    0.6800 C   0  0  2  0  0  0  0  0  0  0  0  0
   -2.0698    1.2289   -0.3167 O   0  0  0  0  0  0  0  0  0  0  0  0
   -0.8989   -0.4052    1.0980 C   0  0  2  0  0  0  0  0  0  0  0  0
   -1.0710   -1.3259    0.0388 O   0  0  0  0  0  0  0  0  0  0  0  0
  2  1  1  0  0  0  0
  3  2  1  1  0  0  0
  3 30  1  0  0  0  0
  4  5  1  0  0  0  0
  4  3  1  0  0  0  0
  5 28  1  0  0  0  0
  5  6  1  1  0  0  0
  7  6  1  6  0  0  0
  8  7  1  0  0  0  0
  8  9  1  1  0  0  0
 10 11  1  6  0  0  0
 10  8  1  0  0  0  0
 12 10  1  0  0  0  0
 13 12  1  0  0  0  0
 13 15  1  0  0  0  0
 13 14  1  6  0  0  0
 15  7  1  0  0  0  0
 15 16  1  1  0  0  0
 17 16  1  6  0  0  0
 18 17  1  0  0  0  0
 19 20  1  1  0  0  0
 19 18  1  0  0  0  0
 20 21  1  0  0  0  0
 22 24  1  0  0  0  0
 22 19  1  0  0  0  0
 22 23  1  6  0  0  0
 24 25  1  1  0  0  0
 24 26  1  0  0  0  0
 26 17  1  0  0  0  0
 26 27  1  6  0  0  0
 28 29  1  6  0  0  0
 28 30  1  0  0  0  0
 30 31  1  6  0  0  0
M  END
>  <CHROM.1>
164.83407946,-165.44979792,-78.60988780,35.89970506,71.65308828,-174.87173264
-69.34557868,-56.64748679,80.93809090,-120.35477498,-57.54458839,179.30644520
175.13042546,57.91517816,179.24440733,61.67543338,-0.16619502,3.35433800
2.42812454,-2.21937299,0.56679176,0.25228651

>  <Name>
lig.pdb

>  <RI>
2.67765e+07

>  <Rbt.Current_Directory>
/home/itssahil/PROJECTS/Mol_Feturizer/New_Systems/rnas/2n0j

>  <Rbt.Executable>
rbdock ($Id: //depot/dev/client3/rdock/2013.1/src/exe/rbdock.cxx#4 $)

>  <Rbt.Library>
libRbt.so (2013.1, Build901 2013/11/27)

>  <Rbt.Parameter_File>
/export/apps/rDock/src/rDock_2013.1_src/data/scripts/dock_solv.prm

>  <Rbt.Receptor>
prm/pocket_docking_2.prm

>  <SCORE>
-35.9692

>  <SCORE.INTER>
-41.9891

>  <SCORE.INTER.CONST>
1

>  <SCORE.INTER.POLAR>
-4.87711

>  <SCORE.INTER.ROT>
6

>  <SCORE.INTER.SOLV>
15.9517

>  <SCORE.INTER.VDW>
-24.6529

>  <SCORE.INTER.norm>
-1.35449

>  <SCORE.INTRA>
4.52556

>  <SCORE.INTRA.DIHEDRAL>
-13.38

>  <SCORE.INTRA.DIHEDRAL.0>
28.0161

>  <SCORE.INTRA.POLAR>
0.675403

>  <SCORE.INTRA.POLAR.0>
-1.05798

>  <SCORE.INTRA.REPUL>
0

>  <SCORE.INTRA.REPUL.0>
0

>  <SCORE.INTRA.SOLV>
1.81624

>  <SCORE.INTRA.SOLV.lig_0>
-42.5945

>  <SCORE.INTRA.VDW>
8.01107

>  <SCORE.INTRA.VDW.0>
-5.13869

>  <SCORE.INTRA.norm>
0.145986

>  <SCORE.RESTR>
1.49426

>  <SCORE.RESTR.CAVITY>
1.49426

>  <SCORE.RESTR.norm>
0.0482019

>  <SCORE.SYSTEM>
0

>  <SCORE.SYSTEM.CONST>
0

>  <SCORE.SYSTEM.DIHEDRAL>
0

>  <SCORE.SYSTEM.SOLV>
0

>  <SCORE.SYSTEM.norm>
0

>  <SCORE.heavy>
31

>  <SCORE.norm>
-1.1603

>  <RMSD>
5.100

$$$$
lig.pdb
 OpenBabel11021811453D
libRbt.so/2013.1/901 2013/11/27
 31 33  0  0  0  0  0  0  0  0999 V2000
   -0.9407    7.0557    2.1796 O   0  0  0  0  0  0  0  0  0  0  0  0
   -0.4098    5.9835    2.9337 C   0  0  0  0  0  0  0  0  0  0  0  0
   -1.2661    4.7181    2.7897 C   0  0  1  0  0  0  0  0  0  0  0  0
   -1.1439    4.1426    1.4986 O   0  0  0  0  0  0  0  0  0  0  0  0
   -1.4164    2.7464    1.5693 C   0  0  1  0  0  0  0  0  0  0  0  0
   -0.4075    2.0219    0.8758 O   0  0  0  0  0  0  0  0  0  0  0  0
   -0.6734    0.6590    0.5850 C   0  0  2  0  0  0  0  0  0  0  0  0
   -2.0807    0.5774   -0.0272 C   0  0  1  0  0  0  0  0  0  0  0  0
   -2.0753    1.1656   -1.3184 O   0  0  0  0  0  0  0  0  0  0  0  0
   -2.6154   -0.8548   -0.1797 C   0  0  2  0  0  0  0  0  0  0  0  0
   -3.9991   -0.8516   -0.6790 N   0  0  0  0  0  0  0  0  0  0  0  0
   -2.5633   -1.5689    1.1658 C   0  0  0  0  0  0  0  0  0  0  0  0
   -1.1396   -1.5386    1.7080 C   0  0  2  0  0  0  0  0  0  0  0  0
   -1.1082   -2.2787    2.9741 N   0  0  0  0  0  0  0  0  0  0  0  0
   -0.6626   -0.0808    1.8843 C   0  0  1  0  0  0  0  0  0  0  0  0
    0.6701   -0.1741    2.4102 O   0  0  0  0  0  0  0  0  0  0  0  0
    0.9851    0.6463    3.5302 C   0  0  1  0  0  0  0  0  0  0  0  0
    0.4686    0.0787    4.7309 O   0  0  0  0  0  0  0  0  0  0  0  0
    1.0858   -1.1281    5.1741 C   0  0  2  0  0  0  0  0  0  0  0  0
    0.4058   -1.5868    6.4709 C   0  0  0  0  0  0  0  0  0  0  0  0
   -0.7495   -2.4315    6.2033 N   0  0  0  0  0  0  0  0  0  0  0  0
    2.5909   -0.9153    5.4210 C   0  0  1  0  0  0  0  0  0  0  0  0
    3.1915   -2.1399    5.8032 O   0  0  0  0  0  0  0  0  0  0  0  0
    3.2346   -0.3993    4.1280 C   0  0  2  0  0  0  0  0  0  0  0  0
    4.6026   -0.1103    4.3471 O   0  0  0  0  0  0  0  0  0  0  0  0
    2.5019    0.8492    3.6185 C   0  0  1  0  0  0  0  0  0  0  0  0
    3.0460    1.2575    2.3155 N   0  0  0  0  0  0  0  0  0  0  0  0
   -1.3933    2.3635    3.0562 C   0  0  2  0  0  0  0  0  0  0  0  0
   -2.7068    2.0761    3.4986 O   0  0  0  0  0  0  0  0  0  0  0  0
   -0.7931    3.6034    3.7172 C   0  0  2  0  0  0  0  0  0  0  0  0
   -1.1878    3.7773    5.0637 O   0  0  0  0  0  0  0  0  0  0  0  0
  2  1  1  0  0  0  0
  3  2  1  6  0  0  0
  3 30  1  0  0  0  0
  4  5  1  0  0  0  0
  4  3  1  0  0  0  0
  5 28  1  0  0  0  0
  5  6  1  6  0  0  0
  7  6  1  1  0  0  0
  8  7  1  0  0  0  0
  8  9  1  6  0  0  0
 10 11  1  1  0  0  0
 10  8  1  0  0  0  0
 12 10  1  0  0  0  0
 13 12  1  0  0  0  0
 13 15  1  0  0  0  0
 13 14  1  1  0  0  0
 15  7  1  0  0  0  0
 15 16  1  6  0  0  0
 17 16  1  6  0  0  0
 18 17  1  0  0  0  0
 19 20  1  1  0  0  0
 19 18  1  0  0  0  0
 20 21  1  0  0  0  0
 22 24  1  0  0  0  0
 22 19  1  0  0  0  0
 22 23  1  6  0  0  0
 24 25  1  1  0  0  0
 24 26  1  0  0  0  0
 26 17  1  0  0  0  0
 26 27  1  6  0  0  0
 28 29  1  1  0  0  0
 28 30  1  0  0  0  0
 30 31  1  1  0  0  0
M  END
>  <CHROM.1>
-62.01508800,71.00034175,-166.11100161,48.01674046,-170.98130283,-173.14196416
-86.85177548,106.58072419,78.71543720,88.08990488,48.51369744,-178.03355676
69.45617759,-69.96244600,61.78780220,-81.34350958,-0.21249475,0.89238115
2.82958545,-2.46362078,0.77671522,3.13964347

>  <Name>
lig.pdb

>  <RI>
0

>  <Rbt.Current_Directory>
/home/itssahil/PROJECTS/Mol_Feturizer/New_Systems/rnas/2n0j

>  <Rbt.Executable>
rbdock ($Id: //depot/dev/client3/rdock/2013.1/src/exe/rbdock.cxx#4 $)

>  <Rbt.Library>
libRbt.so (2013.1, Build901 2013/11/27)

>  <Rbt.Parameter_File>
/export/apps/rDock/src/rDock_2013.1_src/data/scripts/dock_solv.prm

>  <Rbt.Receptor>
prm/pocket_docking_8.prm

>  <SCORE>
-40.501

>  <SCORE.INTER>
-41.3029

>  <SCORE.INTER.CONST>
1

>  <SCORE.INTER.POLAR>
-4.82637

>  <SCORE.INTER.ROT>
6

>  <SCORE.INTER.SOLV>
20.4567

>  <SCORE.INTER.VDW>
-25.8663

>  <SCORE.INTER.norm>
-1.33235

>  <SCORE.INTRA>
0.801971

>  <SCORE.INTRA.DIHEDRAL>
-10.2432

>  <SCORE.INTRA.DIHEDRAL.0>
28.0161

>  <SCORE.INTRA.POLAR>
1.05798

>  <SCORE.INTRA.POLAR.0>
-1.05798

>  <SCORE.INTRA.REPUL>
0

>  <SCORE.INTRA.REPUL.0>
0

>  <SCORE.INTRA.SOLV>
0.543567

>  <SCORE.INTRA.SOLV.lig_0>
-42.5945

>  <SCORE.INTRA.VDW>
2.05463

>  <SCORE.INTRA.VDW.0>
-5.13869

>  <SCORE.INTRA.norm>
0.02587

>  <SCORE.RESTR>
0

>  <SCORE.RESTR.CAVITY>
0

>  <SCORE.RESTR.norm>
0

>  <SCORE.SYSTEM>
0

>  <SCORE.SYSTEM.CONST>
0

>  <SCORE.SYSTEM.DIHEDRAL>
0

>  <SCORE.SYSTEM.SOLV>
0

>  <SCORE.SYSTEM.norm>
0

>  <SCORE.heavy>
31

>  <SCORE.norm>
-1.30648

>  <RMSD>
5.106

$$$$
lig.pdb
 OpenBabel11021811453D
libRbt.so/2013.1/901 2013/11/27
 31 33  0  0  0  0  0  0  0  0999 V2000
    1.1783    4.4272    1.3513 O   0  0  0  0  0  0  0  0  0  0  0  0
    0.2735    5.3508    1.9243 C   0  0  0  0  0  0  0  0  0  0  0  0
   -1.1804    4.8884    1.7586 C   0  0  1  0  0  0  0  0  0  0  0  0
   -1.2597    3.5261    1.3703 O   0  0  0  0  0  0  0  0  0  0  0  0
   -2.5029    2.9781    1.7982 C   0  0  1  0  0  0  0  0  0  0  0  0
   -2.2837    1.7283    2.4413 O   0  0  0  0  0  0  0  0  0  0  0  0
   -2.3110    0.5674    1.6262 C   0  0  2  0  0  0  0  0  0  0  0  0
   -3.7835    0.2242    1.3503 C   0  0  1  0  0  0  0  0  0  0  0  0
   -4.3512    1.2054    0.4968 O   0  0  0  0  0  0  0  0  0  0  0  0
   -3.9933   -1.1417    0.6793 C   0  0  2  0  0  0  0  0  0  0  0  0
   -5.4255   -1.4448    0.5348 N   0  0  0  0  0  0  0  0  0  0  0  0
   -3.3257   -2.2308    1.5108 C   0  0  0  0  0  0  0  0  0  0  0  0
   -1.8502   -1.9004    1.6994 C   0  0  2  0  0  0  0  0  0  0  0  0
   -1.2224   -2.9901    2.4544 N   0  0  0  0  0  0  0  0  0  0  0  0
   -1.6909   -0.5414    2.4145 C   0  0  1  0  0  0  0  0  0  0  0  0
   -0.2754   -0.3437    2.5518 O   0  0  0  0  0  0  0  0  0  0  0  0
    0.1565    0.6088    3.5176 C   0  0  1  0  0  0  0  0  0  0  0  0
    0.0248    0.0840    4.8359 O   0  0  0  0  0  0  0  0  0  0  0  0
    0.9077   -0.9811    5.1816 C   0  0  2  0  0  0  0  0  0  0  0  0
    0.6239   -1.4127    6.6265 C   0  0  0  0  0  0  0  0  0  0  0  0
    0.7873   -0.3078    7.5603 N   0  0  0  0  0  0  0  0  0  0  0  0
    2.3771   -0.5402    5.0475 C   0  0  1  0  0  0  0  0  0  0  0  0
    3.2330   -1.6307    5.3390 O   0  0  0  0  0  0  0  0  0  0  0  0
    2.6180   -0.0569    3.6120 C   0  0  2  0  0  0  0  0  0  0  0  0
    3.9375    0.4376    3.4798 O   0  0  0  0  0  0  0  0  0  0  0  0
    1.6023    1.0274    3.2275 C   0  0  1  0  0  0  0  0  0  0  0  0
    1.7620    1.3899    1.8120 N   0  0  0  0  0  0  0  0  0  0  0  0
   -3.1058    3.9728    2.8008 C   0  0  2  0  0  0  0  0  0  0  0  0
   -4.2250    4.6183    2.2230 O   0  0  0  0  0  0  0  0  0  0  0  0
   -1.9413    4.9217    3.0803 C   0  0  2  0  0  0  0  0  0  0  0  0
   -2.3461    6.2187    3.4716 O   0  0  0  0  0  0  0  0  0  0  0  0
  2  1  1  0  0  0  0
  3  2  1  1  0  0  0
  3 30  1  0  0  0  0
  4  5  1  0  0  0  0
  4  3  1  0  0  0  0
  5 28  1  0  0  0  0
  5  6  1  1  0  0  0
  7  6  1  1  0  0  0
  8  7  1  0  0  0  0
  8  9  1  6  0  0  0
 10 11  1  1  0  0  0
 10  8  1  0  0  0  0
 12 10  1  0  0  0  0
 13 12  1  0  0  0  0
 13 15  1  0  0  0  0
 13 14  1  1  0  0  0
 15  7  1  0  0  0  0
 15 16  1  6  0  0  0
 17 16  1  6  0  0  0
 18 17  1  0  0  0  0
 19 20  1  1  0  0  0
 19 18  1  0  0  0  0
 20 21  1  0  0  0  0
 22 24  1  0  0  0  0
 22 19  1  0  0  0  0
 22 23  1  6  0  0  0
 24 25  1  1  0  0  0
 24 26  1  0  0  0  0
 26 17  1  0  0  0  0
 26 27  1  6  0  0  0
 28 29  1  6  0  0  0
 28 30  1  0  0  0  0
 30 31  1  6  0  0  0
M  END
>  <CHROM.1>
57.44039712,14.06175886,-90.29123406,-78.33082988,178.62026162,-159.13363255
58.52250609,77.80835791,75.06997265,-58.31762781,-167.70203673,-175.39589152
70.19078744,-44.13519627,-76.52622409,54.81863127,-0.87201603,1.06762915
2.83270039,-2.50301482,0.50376710,3.03208600

>  <Name>
lig.pdb

>  <RI>
2.74555e+07

>  <Rbt.Current_Directory>
/home/itssahil/PROJECTS/Mol_Feturizer/New_Systems/rnas/2n0j

>  <Rbt.Executable>
rbdock ($Id: //depot/dev/client3/rdock/2013.1/src/exe/rbdock.cxx#4 $)

>  <Rbt.Library>
libRbt.so (2013.1, Build901 2013/11/27)

>  <Rbt.Parameter_File>
/export/apps/rDock/src/rDock_2013.1_src/data/scripts/dock_solv.prm

>  <Rbt.Receptor>
prm/pocket_docking_6.prm

>  <SCORE>
-35.5688

>  <SCORE.INTER>
-32.0078

>  <SCORE.INTER.CONST>
1

>  <SCORE.INTER.POLAR>
-4.06232

>  <SCORE.INTER.ROT>
6

>  <SCORE.INTER.SOLV>
17.8695

>  <SCORE.INTER.VDW>
-21.354

>  <SCORE.INTER.norm>
-1.03251

>  <SCORE.INTRA>
-3.56099

>  <SCORE.INTRA.DIHEDRAL>
-11.5021

>  <SCORE.INTRA.DIHEDRAL.0>
28.0161

>  <SCORE.INTRA.POLAR>
-0.0249157

>  <SCORE.INTRA.POLAR.0>
-1.05798

>  <SCORE.INTRA.REPUL>
0

>  <SCORE.INTRA.REPUL.0>
0

>  <SCORE.INTRA.SOLV>
0.881217

>  <SCORE.INTRA.SOLV.lig_0>
-42.5945

>  <SCORE.INTRA.VDW>
1.83414

>  <SCORE.INTRA.VDW.0>
-5.13869

>  <SCORE.INTRA.norm>
-0.114871

>  <SCORE.RESTR>
0

>  <SCORE.RESTR.CAVITY>
0

>  <SCORE.RESTR.norm>
0

>  <SCORE.SYSTEM>
0

>  <SCORE.SYSTEM.CONST>
0

>  <SCORE.SYSTEM.DIHEDRAL>
0

>  <SCORE.SYSTEM.SOLV>
0

>  <SCORE.SYSTEM.norm>
0

>  <SCORE.heavy>
31

>  <SCORE.norm>
-1.14738

>  <RMSD>
5.119

$$$$
lig.pdb
 OpenBabel11021811453D
libRbt.so/2013.1/901 2013/11/27
 31 33  0  0  0  0  0  0  0  0999 V2000
   -2.0491   -0.5364    9.6924 O   0  0  0  0  0  0  0  0  0  0  0  0
   -1.2707    0.2329    8.7966 C   0  0  0  0  0  0  0  0  0  0  0  0
   -1.7272    1.6979    8.7721 C   0  0  1  0  0  0  0  0  0  0  0  0
   -1.0453    2.4464    7.7783 O   0  0  0  0  0  0  0  0  0  0  0  0
   -1.8527    3.5464    7.3696 C   0  0  1  0  0  0  0  0  0  0  0  0
   -1.8923    3.6145    5.9492 O   0  0  0  0  0  0  0  0  0  0  0  0
   -1.4381    4.8156    5.3459 C   0  0  2  0  0  0  0  0  0  0  0  0
   -2.5705    5.8494    5.4520 C   0  0  1  0  0  0  0  0  0  0  0  0
   -2.7384    6.2371    6.8066 O   0  0  0  0  0  0  0  0  0  0  0  0
   -2.3287    7.1290    4.6370 C   0  0  2  0  0  0  0  0  0  0  0  0
   -3.4913    8.0276    4.7074 N   0  0  0  0  0  0  0  0  0  0  0  0
   -2.0543    6.7676    3.1820 C   0  0  0  0  0  0  0  0  0  0  0  0
   -0.8768    5.8034    3.1061 C   0  0  2  0  0  0  0  0  0  0  0  0
   -0.6010    5.5165    1.6943 N   0  0  0  0  0  0  0  0  0  0  0  0
   -1.1833    4.5171    3.9032 C   0  0  1  0  0  0  0  0  0  0  0  0
   -0.0237    3.6847    3.7488 O   0  0  0  0  0  0  0  0  0  0  0  0
    0.0098    2.8214    2.6173 C   0  0  1  0  0  0  0  0  0  0  0  0
    1.1932    3.0382    1.8537 O   0  0  0  0  0  0  0  0  0  0  0  0
    2.4185    2.6355    2.4618 C   0  0  2  0  0  0  0  0  0  0  0  0
    3.5747    2.9419    1.5005 C   0  0  0  0  0  0  0  0  0  0  0  0
    3.7997    4.3743    1.3684 N   0  0  0  0  0  0  0  0  0  0  0  0
    2.3983    1.1312    2.7912 C   0  0  1  0  0  0  0  0  0  0  0  0
    3.6006    0.7681    3.4464 O   0  0  0  0  0  0  0  0  0  0  0  0
    1.1993    0.8421    3.7029 C   0  0  2  0  0  0  0  0  0  0  0  0
    1.1020   -0.5475    3.9530 O   0  0  0  0  0  0  0  0  0  0  0  0
   -0.0994    1.3613    3.0713 C   0  0  1  0  0  0  0  0  0  0  0  0
   -1.2192    1.1933    4.0085 N   0  0  0  0  0  0  0  0  0  0  0  0
   -3.2660    3.2859    7.9109 C   0  0  2  0  0  0  0  0  0  0  0  0
   -3.5504    4.1873    8.9645 O   0  0  0  0  0  0  0  0  0  0  0  0
   -3.1921    1.8298    8.3677 C   0  0  2  0  0  0  0  0  0  0  0  0
   -4.0997    1.5123    9.4043 O   0  0  0  0  0  0  0  0  0  0  0  0
  2  1  1  0  0  0  0
  3  2  1  6  0  0  0
  3 30  1  0  0  0  0
  4  5  1  0  0  0  0
  4  3  1  0  0  0  0
  5 28  1  0  0  0  0
  5  6  1  6  0  0  0
  7  6  1  1  0  0  0
  8  7  1  0  0  0  0
  8  9  1  1  0  0  0
 10 11  1  6  0  0  0
 10  8  1  0  0  0  0
 12 10  1  0  0  0  0
 13 12  1  0  0  0  0
 13 15  1  0  0  0  0
 13 14  1  6  0  0  0
 15  7  1  0  0  0  0
 15 16  1  1  0  0  0
 17 16  1  1  0  0  0
 18 17  1  0  0  0  0
 19 20  1  6  0  0  0
 19 18  1  0  0  0  0
 20 21  1  0  0  0  0
 22 24  1  0  0  0  0
 22 19  1  0  0  0  0
 22 23  1  1  0  0  0
 24 25  1  6  0  0  0
 24 26  1  0  0  0  0
 26 17  1  0  0  0  0
 26 27  1  1  0  0  0
 28 29  1  1  0  0  0
 28 30  1  0  0  0  0
 30 31  1  1  0  0  0
M  END
>  <CHROM.1>
177.87055088,-173.95909175,-121.67419934,-79.46486664,-76.84445098,-156.31808036
-66.91841512,151.29489160,125.12439649,69.80016162,-59.04246192,-175.02653070
67.05881114,-163.60052900,-69.49380902,-45.84881480,-0.75188771,3.22756823
5.06990449,-2.64229421,0.78601714,-0.63940124

>  <Name>
lig.pdb

>  <RI>
3.33129e+07

>  <Rbt.Current_Directory>
/home/itssahil/PROJECTS/Mol_Feturizer/New_Systems/rnas/2n0j

>  <Rbt.Executable>
rbdock ($Id: //depot/dev/client3/rdock/2013.1/src/exe/rbdock.cxx#4 $)

>  <Rbt.Library>
libRbt.so (2013.1, Build901 2013/11/27)

>  <Rbt.Parameter_File>
/export/apps/rDock/src/rDock_2013.1_src/data/scripts/dock_solv.prm

>  <Rbt.Receptor>
prm/pocket_docking_4.prm

>  <SCORE>
-38.5214

>  <SCORE.INTER>
-34.3037

>  <SCORE.INTER.CONST>
1

>  <SCORE.INTER.POLAR>
-2.98812

>  <SCORE.INTER.ROT>
6

>  <SCORE.INTER.SOLV>
17.5675

>  <SCORE.INTER.VDW>
-26.3646

>  <SCORE.INTER.norm>
-1.10657

>  <SCORE.INTRA>
-4.26508

>  <SCORE.INTRA.DIHEDRAL>
-2.9337

>  <SCORE.INTRA.DIHEDRAL.0>
28.0161

>  <SCORE.INTRA.POLAR>
-1.84645

>  <SCORE.INTRA.POLAR.0>
-1.05798

>  <SCORE.INTRA.REPUL>
0

>  <SCORE.INTRA.REPUL.0>
0

>  <SCORE.INTRA.SOLV>
0.951646

>  <SCORE.INTRA.SOLV.lig_0>
-42.5945

>  <SCORE.INTRA.VDW>
3.00388

>  <SCORE.INTRA.VDW.0>
-5.13869

>  <SCORE.INTRA.norm>
-0.137583

>  <SCORE.RESTR>
0.0474689

>  <SCORE.RESTR.CAVITY>
0.0474689

>  <SCORE.RESTR.norm>
0.00153126

>  <SCORE.SYSTEM>
0

>  <SCORE.SYSTEM.CONST>
0

>  <SCORE.SYSTEM.DIHEDRAL>
0

>  <SCORE.SYSTEM.SOLV>
0

>  <SCORE.SYSTEM.norm>
0

>  <SCORE.heavy>
31

>  <SCORE.norm>
-1.24262

>  <RMSD>
5.129

$$$$
lig.pdb
 OpenBabel11021811453D
libRbt.so/2013.1/901 2013/11/27
 31 33  0  0  0  0  0  0  0  0999 V2000
   -2.3857   -1.0301    4.8174 O   0  0  0  0  0  0  0  0  0  0  0  0
   -3.6160   -0.8057    4.1570 C   0  0  0  0  0  0  0  0  0  0  0  0
   -3.7576    0.6575    3.7164 C   0  0  1  0  0  0  0  0  0  0  0  0
   -3.4339    1.5577    4.7643 O   0  0  0  0  0  0  0  0  0  0  0  0
   -2.9920    2.7945    4.2133 C   0  0  1  0  0  0  0  0  0  0  0  0
   -1.7930    3.2087    4.8571 O   0  0  0  0  0  0  0  0  0  0  0  0
   -1.5399    4.6034    4.9185 C   0  0  2  0  0  0  0  0  0  0  0  0
   -2.6793    5.2505    5.7217 C   0  0  1  0  0  0  0  0  0  0  0  0
   -2.5822    4.8661    7.0841 O   0  0  0  0  0  0  0  0  0  0  0  0
   -2.6820    6.7862    5.6791 C   0  0  2  0  0  0  0  0  0  0  0  0
   -3.8512    7.3320    6.3856 N   0  0  0  0  0  0  0  0  0  0  0  0
   -2.6976    7.2603    4.2307 C   0  0  0  0  0  0  0  0  0  0  0  0
   -1.5115    6.6638    3.4828 C   0  0  2  0  0  0  0  0  0  0  0  0
   -1.5207    7.1795    2.1096 N   0  0  0  0  0  0  0  0  0  0  0  0
   -1.5754    5.1216    3.5165 C   0  0  1  0  0  0  0  0  0  0  0  0
   -0.4302    4.6740    2.7751 O   0  0  0  0  0  0  0  0  0  0  0  0
    0.7714    4.4545    3.5063 C   0  0  1  0  0  0  0  0  0  0  0  0
    1.0864    3.0655    3.5516 O   0  0  0  0  0  0  0  0  0  0  0  0
    1.4787    2.4675    2.3179 C   0  0  2  0  0  0  0  0  0  0  0  0
    1.7781    0.9819    2.5588 C   0  0  0  0  0  0  0  0  0  0  0  0
    2.9233    0.7993    3.4390 N   0  0  0  0  0  0  0  0  0  0  0  0
    2.7258    3.1647    1.7431 C   0  0  1  0  0  0  0  0  0  0  0  0
    3.0604    2.5923    0.4914 O   0  0  0  0  0  0  0  0  0  0  0  0
    2.4200    4.6576    1.5693 C   0  0  2  0  0  0  0  0  0  0  0  0
    3.5759    5.3425    1.1246 O   0  0  0  0  0  0  0  0  0  0  0  0
    1.9154    5.2642    2.8856 C   0  0  1  0  0  0  0  0  0  0  0  0
    1.5060    6.6600    2.6741 N   0  0  0  0  0  0  0  0  0  0  0  0
   -2.7149    2.5440    2.7237 C   0  0  2  0  0  0  0  0  0  0  0  0
   -3.7017    3.1853    1.9373 O   0  0  0  0  0  0  0  0  0  0  0  0
   -2.7598    1.0203    2.6211 C   0  0  2  0  0  0  0  0  0  0  0  0
   -3.1243    0.5471    1.3396 O   0  0  0  0  0  0  0  0  0  0  0  0
  2  1  1  0  0  0  0
  3  2  1  1  0  0  0
  3 30  1  0  0  0  0
  4  5  1  0  0  0  0
  4  3  1  0  0  0  0
  5 28  1  0  0  0  0
  5  6  1  1  0  0  0
  7  6  1  6  0  0  0
  8  7  1  0  0  0  0
  8  9  1  1  0  0  0
 10 11  1  1  0  0  0
 10  8  1  0  0  0  0
 12 10  1  0  0  0  0
 13 12  1  0  0  0  0
 13 15  1  0  0  0  0
 13 14  1  6  0  0  0
 15  7  1  0  0  0  0
 15 16  1  6  0  0  0
 17 16  1  6  0  0  0
 18 17  1  0  0  0  0
 19 20  1  1  0  0  0
 19 18  1  0  0  0  0
 20 21  1  0  0  0  0
 22 24  1  0  0  0  0
 22 19  1  0  0  0  0
 22 23  1  6  0  0  0
 24 25  1  1  0  0  0
 24 26  1  0  0  0  0
 26 17  1  0  0  0  0
 26 27  1  6  0  0  0
 28 29  1  6  0  0  0
 28 30  1  0  0  0  0
 30 31  1  6  0  0  0
M  END
>  <CHROM.1>
-171.73297498,-47.95445727,-151.75700828,61.49215368,-168.07500029,-172.89348368
-153.19916274,-30.25802087,111.32043485,-64.83607944,61.08018097,31.00639886
176.17404288,169.88007087,172.37054384,65.07215511,-0.89661969,3.63359378
3.43469662,-3.13270213,0.45803443,0.17603211

>  <Name>
lig.pdb

>  <RI>
3.50357e+07

>  <Rbt.Current_Directory>
/home/itssahil/PROJECTS/Mol_Feturizer/New_Systems/rnas/2n0j

>  <Rbt.Executable>
rbdock ($Id: //depot/dev/client3/rdock/2013.1/src/exe/rbdock.cxx#4 $)

>  <Rbt.Library>
libRbt.so (2013.1, Build901 2013/11/27)

>  <Rbt.Parameter_File>
/export/apps/rDock/src/rDock_2013.1_src/data/scripts/dock_solv.prm

>  <Rbt.Receptor>
prm/pocket_docking_3.prm

>  <SCORE>
-41.795

>  <SCORE.INTER>
-47.489

>  <SCORE.INTER.CONST>
1

>  <SCORE.INTER.POLAR>
-5.19618

>  <SCORE.INTER.ROT>
6

>  <SCORE.INTER.SOLV>
18.6698

>  <SCORE.INTER.VDW>
-28.162

>  <SCORE.INTER.norm>
-1.5319

>  <SCORE.INTRA>
5.42116

>  <SCORE.INTRA.DIHEDRAL>
-6.66006

>  <SCORE.INTRA.DIHEDRAL.0>
28.0161

>  <SCORE.INTRA.POLAR>
0.994741

>  <SCORE.INTRA.POLAR.0>
-1.05798

>  <SCORE.INTRA.REPUL>
0.00502218

>  <SCORE.INTRA.REPUL.0>
0

>  <SCORE.INTRA.SOLV>
1.0666

>  <SCORE.INTRA.SOLV.lig_0>
-42.5945

>  <SCORE.INTRA.VDW>
4.81067

>  <SCORE.INTRA.VDW.0>
-5.13869

>  <SCORE.INTRA.norm>
0.174876

>  <SCORE.RESTR>
0.272747

>  <SCORE.RESTR.CAVITY>
0.272747

>  <SCORE.RESTR.norm>
0.0087983

>  <SCORE.SYSTEM>
0

>  <SCORE.SYSTEM.CONST>
0

>  <SCORE.SYSTEM.DIHEDRAL>
0

>  <SCORE.SYSTEM.SOLV>
0

>  <SCORE.SYSTEM.norm>
0

>  <SCORE.heavy>
31

>  <SCORE.norm>
-1.34823

>  <RMSD>
5.140

$$$$
lig.pdb
 OpenBabel11021811453D
libRbt.so/2013.1/901 2013/11/27
 31 33  0  0  0  0  0  0  0  0999 V2000
   -2.1841   -3.2885    1.1322 O   0  0  0  0  0  0  0  0  0  0  0  0
   -1.8550   -2.2377    2.0197 C   0  0  0  0  0  0  0  0  0  0  0  0
   -2.2810   -0.8746    1.4579 C   0  0  1  0  0  0  0  0  0  0  0  0
   -2.2565    0.1370    2.4524 O   0  0  0  0  0  0  0  0  0  0  0  0
   -2.0560    1.4066    1.8388 C   0  0  1  0  0  0  0  0  0  0  0  0
   -1.0386    2.1215    2.5300 O   0  0  0  0  0  0  0  0  0  0  0  0
   -1.4414    2.9123    3.6370 C   0  0  2  0  0  0  0  0  0  0  0  0
   -2.3273    2.0380    4.5386 C   0  0  1  0  0  0  0  0  0  0  0  0
   -1.5373    1.0343    5.1566 O   0  0  0  0  0  0  0  0  0  0  0  0
   -3.0395    2.8127    5.6578 C   0  0  2  0  0  0  0  0  0  0  0  0
   -3.9417    1.9334    6.4174 N   0  0  0  0  0  0  0  0  0  0  0  0
   -3.8388    3.9636    5.0582 C   0  0  0  0  0  0  0  0  0  0  0  0
   -2.9166    4.8548    4.2353 C   0  0  2  0  0  0  0  0  0  0  0  0
   -3.6998    5.9815    3.7168 N   0  0  0  0  0  0  0  0  0  0  0  0
   -2.2583    4.0431    3.0989 C   0  0  1  0  0  0  0  0  0  0  0  0
   -1.4334    4.9785    2.3875 O   0  0  0  0  0  0  0  0  0  0  0  0
   -0.3959    5.6190    3.1223 C   0  0  1  0  0  0  0  0  0  0  0  0
    0.7087    4.7377    3.3060 O   0  0  0  0  0  0  0  0  0  0  0  0
    1.4531    4.4074    2.1355 C   0  0  2  0  0  0  0  0  0  0  0  0
    2.5947    3.4583    2.5238 C   0  0  0  0  0  0  0  0  0  0  0  0
    2.1025    2.1249    2.8390 N   0  0  0  0  0  0  0  0  0  0  0  0
    2.0292    5.6746    1.4766 C   0  0  1  0  0  0  0  0  0  0  0  0
    2.7135    5.3268    0.2862 O   0  0  0  0  0  0  0  0  0  0  0  0
    0.8744    6.6312    1.1544 C   0  0  2  0  0  0  0  0  0  0  0  0
    1.3795    7.8437    0.6273 O   0  0  0  0  0  0  0  0  0  0  0  0
    0.0322    6.9057    2.4075 C   0  0  1  0  0  0  0  0  0  0  0  0
   -1.1415    7.7190    2.0590 N   0  0  0  0  0  0  0  0  0  0  0  0
   -1.6042    1.1369    0.3961 C   0  0  2  0  0  0  0  0  0  0  0  0
   -2.6384    1.4876   -0.5045 O   0  0  0  0  0  0  0  0  0  0  0  0
   -1.2996   -0.3603    0.4096 C   0  0  2  0  0  0  0  0  0  0  0  0
   -1.4390   -0.9803   -0.8535 O   0  0  0  0  0  0  0  0  0  0  0  0
  2  1  1  0  0  0  0
  3  2  1  1  0  0  0
  3 30  1  0  0  0  0
  4  5  1  0  0  0  0
  4  3  1  0  0  0  0
  5 28  1  0  0  0  0
  5  6  1  1  0  0  0
  7  6  1  6  0  0  0
  8  7  1  0  0  0  0
  8  9  1  1  0  0  0
 10 11  1  6  0  0  0
 10  8  1  0  0  0  0
 12 10  1  0  0  0  0
 13 12  1  0  0  0  0
 13 15  1  0  0  0  0
 13 14  1  6  0  0  0
 15  7  1  0  0  0  0
 15 16  1  1  0  0  0
 17 16  1  6  0  0  0
 18 17  1  0  0  0  0
 19 20  1  1  0  0  0
 19 18  1  0  0  0  0
 20 21  1  0  0  0  0
 22 24  1  0  0  0  0
 22 19  1  0  0  0  0
 22 23  1  6  0  0  0
 24 25  1  1  0  0  0
 24 26  1  0  0  0  0
 26 17  1  0  0  0  0
 26 27  1  6  0  0  0
 28 29  1  6  0  0  0
 28 30  1  0  0  0  0
 30 31  1  6  0  0  0
M  END
>  <CHROM.1>
171.62839688,165.82115658,-87.67118666,49.38630753,-161.41616230,-177.19513229
-112.67220302,-60.72335120,77.33270576,72.67097825,120.61974267,-174.72203091
-58.62357282,-40.18539302,177.63282635,51.94103327,-1.05773944,2.99886123
2.45109634,-2.06993993,0.76337845,0.38273632

>  <Name>
lig.pdb

>  <RI>
3.50357e+07

>  <Rbt.Current_Directory>
/home/itssahil/PROJECTS/Mol_Feturizer/New_Systems/rnas/2n0j

>  <Rbt.Executable>
rbdock ($Id: //depot/dev/client3/rdock/2013.1/src/exe/rbdock.cxx#4 $)

>  <Rbt.Library>
libRbt.so (2013.1, Build901 2013/11/27)

>  <Rbt.Parameter_File>
/export/apps/rDock/src/rDock_2013.1_src/data/scripts/dock_solv.prm

>  <Rbt.Receptor>
prm/pocket_docking_3.prm

>  <SCORE>
-36.71

>  <SCORE.INTER>
-35.5649

>  <SCORE.INTER.CONST>
1

>  <SCORE.INTER.POLAR>
-4.50404

>  <SCORE.INTER.ROT>
6

>  <SCORE.INTER.SOLV>
18.1874

>  <SCORE.INTER.VDW>
-22.3589

>  <SCORE.INTER.norm>
-1.14725

>  <SCORE.INTRA>
-1.18386

>  <SCORE.INTRA.DIHEDRAL>
-11.0001

>  <SCORE.INTRA.DIHEDRAL.0>
28.0161

>  <SCORE.INTRA.POLAR>
-0.0533171

>  <SCORE.INTRA.POLAR.0>
-1.05798

>  <SCORE.INTRA.REPUL>
0

>  <SCORE.INTRA.REPUL.0>
0

>  <SCORE.INTRA.SOLV>
0.692708

>  <SCORE.INTRA.SOLV.lig_0>
-42.5945

>  <SCORE.INTRA.VDW>
4.15109

>  <SCORE.INTRA.VDW.0>
-5.13869

>  <SCORE.INTRA.norm>
-0.0381891

>  <SCORE.RESTR>
0.0387107

>  <SCORE.RESTR.CAVITY>
0.0387107

>  <SCORE.RESTR.norm>
0.00124873

>  <SCORE.SYSTEM>
0

>  <SCORE.SYSTEM.CONST>
0

>  <SCORE.SYSTEM.DIHEDRAL>
0

>  <SCORE.SYSTEM.SOLV>
0

>  <SCORE.SYSTEM.norm>
0

>  <SCORE.heavy>
31

>  <SCORE.norm>
-1.18419

>  <RMSD>
5.142

$$$$
lig.pdb
 OpenBabel11021811453D
libRbt.so/2013.1/901 2013/11/27
 31 33  0  0  0  0  0  0  0  0999 V2000
   -4.8341   -2.3604    3.1632 O   0  0  0  0  0  0  0  0  0  0  0  0
   -4.6119   -1.1184    3.8022 C   0  0  0  0  0  0  0  0  0  0  0  0
   -3.6303   -0.2464    3.0077 C   0  0  1  0  0  0  0  0  0  0  0  0
   -3.2621    0.9211    3.7250 O   0  0  0  0  0  0  0  0  0  0  0  0
   -1.9799    1.3647    3.2914 C   0  0  1  0  0  0  0  0  0  0  0  0
   -1.1584    1.6424    4.4191 O   0  0  0  0  0  0  0  0  0  0  0  0
   -1.2759    2.9295    5.0043 C   0  0  2  0  0  0  0  0  0  0  0  0
   -2.7251    3.0920    5.4896 C   0  0  1  0  0  0  0  0  0  0  0  0
   -2.9575    2.2352    6.5965 O   0  0  0  0  0  0  0  0  0  0  0  0
   -3.0807    4.5190    5.9337 C   0  0  2  0  0  0  0  0  0  0  0  0
   -4.5039    4.6216    6.2917 N   0  0  0  0  0  0  0  0  0  0  0  0
   -2.7683    5.5000    4.8098 C   0  0  0  0  0  0  0  0  0  0  0  0
   -1.3050    5.3685    4.4059 C   0  0  2  0  0  0  0  0  0  0  0  0
   -1.0194    6.3599    3.3632 N   0  0  0  0  0  0  0  0  0  0  0  0
   -1.0066    3.9312    3.9275 C   0  0  1  0  0  0  0  0  0  0  0  0
    0.3816    3.9294    3.5609 O   0  0  0  0  0  0  0  0  0  0  0  0
    0.6893    3.7397    2.1840 C   0  0  1  0  0  0  0  0  0  0  0  0
    0.8074    4.9936    1.5173 O   0  0  0  0  0  0  0  0  0  0  0  0
    1.9314    5.7946    1.8755 C   0  0  2  0  0  0  0  0  0  0  0  0
    1.8943    7.0952    1.0621 C   0  0  0  0  0  0  0  0  0  0  0  0
    0.7143    7.8900    1.3713 N   0  0  0  0  0  0  0  0  0  0  0  0
    3.2484    5.0449    1.6012 C   0  0  1  0  0  0  0  0  0  0  0  0
    4.3463    5.8365    2.0189 O   0  0  0  0  0  0  0  0  0  0  0  0
    3.2336    3.7220    2.3771 C   0  0  2  0  0  0  0  0  0  0  0  0
    4.3934    2.9685    2.0768 O   0  0  0  0  0  0  0  0  0  0  0  0
    1.9726    2.9129    2.0450 C   0  0  1  0  0  0  0  0  0  0  0  0
    1.9073    1.7106    2.8881 N   0  0  0  0  0  0  0  0  0  0  0  0
   -1.3641    0.2173    2.4776 C   0  0  2  0  0  0  0  0  0  0  0  0
   -1.3318    0.5648    1.1058 O   0  0  0  0  0  0  0  0  0  0  0  0
   -2.2980   -0.9535    2.7802 C   0  0  2  0  0  0  0  0  0  0  0  0
   -2.3383   -1.9280    1.7565 O   0  0  0  0  0  0  0  0  0  0  0  0
  2  1  1  0  0  0  0
  3  2  1  1  0  0  0
  3 30  1  0  0  0  0
  4  5  1  0  0  0  0
  4  3  1  0  0  0  0
  5 28  1  0  0  0  0
  5  6  1  1  0  0  0
  7  6  1  6  0  0  0
  8  7  1  0  0  0  0
  8  9  1  1  0  0  0
 10 11  1  6  0  0  0
 10  8  1  0  0  0  0
 12 10  1  0  0  0  0
 13 12  1  0  0  0  0
 13 15  1  0  0  0  0
 13 14  1  6  0  0  0
 15  7  1  0  0  0  0
 15 16  1  1  0  0  0
 17 16  1  1  0  0  0
 18 17  1  0  0  0  0
 19 20  1  6  0  0  0
 19 18  1  0  0  0  0
 20 21  1  0  0  0  0
 22 24  1  0  0  0  0
 22 19  1  0  0  0  0
 22 23  1  1  0  0  0
 24 25  1  6  0  0  0
 24 26  1  0  0  0  0
 26 17  1  0  0  0  0
 26 27  1  1  0  0  0
 28 29  1  6  0  0  0
 28 30  1  0  0  0  0
 30 31  1  6  0  0  0
M  END
>  <CHROM.1>
-63.98138502,-172.10218880,-85.04456296,60.89479689,-177.61385385,93.73211302
-134.06774667,125.55374321,92.57102798,63.03298773,44.87989324,-62.83920034
-62.58435932,47.00079012,-62.29941885,-61.15301673,-0.71484577,2.96604077
3.20781855,-2.52321598,0.52268543,0.30502133

>  <Name>
lig.pdb

>  <RI>
2.67765e+07

>  <Rbt.Current_Directory>
/home/itssahil/PROJECTS/Mol_Feturizer/New_Systems/rnas/2n0j

>  <Rbt.Executable>
rbdock ($Id: //depot/dev/client3/rdock/2013.1/src/exe/rbdock.cxx#4 $)

>  <Rbt.Library>
libRbt.so (2013.1, Build901 2013/11/27)

>  <Rbt.Parameter_File>
/export/apps/rDock/src/rDock_2013.1_src/data/scripts/dock_solv.prm

>  <Rbt.Receptor>
prm/pocket_docking_2.prm

>  <SCORE>
-25.9209

>  <SCORE.INTER>
-29.0671

>  <SCORE.INTER.CONST>
1

>  <SCORE.INTER.POLAR>
-3.27856

>  <SCORE.INTER.ROT>
6

>  <SCORE.INTER.SOLV>
10.8561

>  <SCORE.INTER.VDW>
-19.6682

>  <SCORE.INTER.norm>
-0.937649

>  <SCORE.INTRA>
1.82324

>  <SCORE.INTRA.DIHEDRAL>
-7.14903

>  <SCORE.INTRA.DIHEDRAL.0>
28.0161

>  <SCORE.INTRA.POLAR>
0.289629

>  <SCORE.INTRA.POLAR.0>
-1.05798

>  <SCORE.INTRA.REPUL>
0

>  <SCORE.INTRA.REPUL.0>
0

>  <SCORE.INTRA.SOLV>
1.44246

>  <SCORE.INTRA.SOLV.lig_0>
-42.5945

>  <SCORE.INTRA.VDW>
3.69179

>  <SCORE.INTRA.VDW.0>
-5.13869

>  <SCORE.INTRA.norm>
0.0588142

>  <SCORE.RESTR>
1.32302

>  <SCORE.RESTR.CAVITY>
1.32302

>  <SCORE.RESTR.norm>
0.0426781

>  <SCORE.SYSTEM>
0

>  <SCORE.SYSTEM.CONST>
0

>  <SCORE.SYSTEM.DIHEDRAL>
0

>  <SCORE.SYSTEM.SOLV>
0

>  <SCORE.SYSTEM.norm>
0

>  <SCORE.heavy>
31

>  <SCORE.norm>
-0.836157

>  <RMSD>
5.144

$$$$
lig.pdb
 OpenBabel11021811453D
libRbt.so/2013.1/901 2013/11/27
 31 33  0  0  0  0  0  0  0  0999 V2000
   -1.4865   -1.8643    4.0296 O   0  0  0  0  0  0  0  0  0  0  0  0
   -2.2943   -1.3619    5.0762 C   0  0  0  0  0  0  0  0  0  0  0  0
   -1.6025   -0.2079    5.8143 C   0  0  1  0  0  0  0  0  0  0  0  0
   -1.5476    0.9677    5.0218 O   0  0  0  0  0  0  0  0  0  0  0  0
   -1.4823    2.1121    5.8672 C   0  0  1  0  0  0  0  0  0  0  0  0
   -2.4250    3.0859    5.4349 O   0  0  0  0  0  0  0  0  0  0  0  0
   -2.0134    4.4433    5.4653 C   0  0  2  0  0  0  0  0  0  0  0  0
   -3.1561    5.2647    6.0831 C   0  0  1  0  0  0  0  0  0  0  0  0
   -3.2759    4.9550    7.4627 O   0  0  0  0  0  0  0  0  0  0  0  0
   -2.9664    6.7851    5.9709 C   0  0  2  0  0  0  0  0  0  0  0  0
   -4.1387    7.5037    6.4937 N   0  0  0  0  0  0  0  0  0  0  0  0
   -2.7446    7.1692    4.5127 C   0  0  0  0  0  0  0  0  0  0  0  0
   -1.5567    6.3960    3.9534 C   0  0  2  0  0  0  0  0  0  0  0  0
   -1.3329    6.8251    2.5687 N   0  0  0  0  0  0  0  0  0  0  0  0
   -1.8117    4.8763    4.0486 C   0  0  1  0  0  0  0  0  0  0  0  0
   -0.6467    4.2557    3.4836 O   0  0  0  0  0  0  0  0  0  0  0  0
   -0.5533    4.2217    2.0635 C   0  0  1  0  0  0  0  0  0  0  0  0
    0.6005    4.9294    1.6179 O   0  0  0  0  0  0  0  0  0  0  0  0
    1.8609    4.3377    1.9258 C   0  0  2  0  0  0  0  0  0  0  0  0
    2.9782    5.2313    1.3710 C   0  0  0  0  0  0  0  0  0  0  0  0
    3.2884    6.3293    2.2754 N   0  0  0  0  0  0  0  0  0  0  0  0
    1.9683    2.9280    1.3152 C   0  0  1  0  0  0  0  0  0  0  0  0
    3.2029    2.3392    1.6833 O   0  0  0  0  0  0  0  0  0  0  0  0
    0.8064    2.0743    1.8381 C   0  0  2  0  0  0  0  0  0  0  0  0
    0.8267    0.7980    1.2268 O   0  0  0  0  0  0  0  0  0  0  0  0
   -0.5370    2.7685    1.5761 C   0  0  1  0  0  0  0  0  0  0  0  0
   -1.6296    2.0034    2.1936 N   0  0  0  0  0  0  0  0  0  0  0  0
   -1.8440    1.6403    7.2831 C   0  0  2  0  0  0  0  0  0  0  0  0
   -0.6914    1.6585    8.1044 O   0  0  0  0  0  0  0  0  0  0  0  0
   -2.3905    0.2338    7.0435 C   0  0  2  0  0  0  0  0  0  0  0  0
   -2.2447   -0.6297    8.1536 O   0  0  0  0  0  0  0  0  0  0  0  0
  2  1  1  0  0  0  0
  3  2  1  6  0  0  0
  3 30  1  0  0  0  0
  4  5  1  0  0  0  0
  4  3  1  0  0  0  0
  5 28  1  0  0  0  0
  5  6  1  6  0  0  0
  7  6  1  6  0  0  0
  8  7  1  0  0  0  0
  8  9  1  1  0  0  0
 10 11  1  6  0  0  0
 10  8  1  0  0  0  0
 12 10  1  0  0  0  0
 13 12  1  0  0  0  0
 13 15  1  0  0  0  0
 13 14  1  6  0  0  0
 15  7  1  0  0  0  0
 15 16  1  1  0  0  0
 17 16  1  1  0  0  0
 18 17  1  0  0  0  0
 19 20  1  6  0  0  0
 19 18  1  0  0  0  0
 20 21  1  0  0  0  0
 22 24  1  0  0  0  0
 22 19  1  0  0  0  0
 22 23  1  1  0  0  0
 24 25  1  6  0  0  0
 24 26  1  0  0  0  0
 26 17  1  0  0  0  0
 26 27  1  1  0  0  0
 28 29  1  1  0  0  0
 28 30  1  0  0  0  0
 30 31  1  1  0  0  0
M  END
>  <CHROM.1>
171.10164601,71.29653482,-139.86736365,-134.82526571,-57.68390481,-49.62626302
54.16396863,160.65652041,119.04992008,82.79396668,69.82367576,63.17447272
179.23299722,52.22064631,66.18063305,-171.58095238,-0.92098399,3.26955953
4.23379201,-2.48600736,0.85241818,-0.17685649

>  <Name>
lig.pdb

>  <RI>
3.32461e+07

>  <Rbt.Current_Directory>
/home/itssahil/PROJECTS/Mol_Feturizer/New_Systems/rnas/2n0j

>  <Rbt.Executable>
rbdock ($Id: //depot/dev/client3/rdock/2013.1/src/exe/rbdock.cxx#4 $)

>  <Rbt.Library>
libRbt.so (2013.1, Build901 2013/11/27)

>  <Rbt.Parameter_File>
/export/apps/rDock/src/rDock_2013.1_src/data/scripts/dock_solv.prm

>  <Rbt.Receptor>
prm/pocket_docking_7.prm

>  <SCORE>
-30.8542

>  <SCORE.INTER>
-28.523

>  <SCORE.INTER.CONST>
1

>  <SCORE.INTER.POLAR>
-2.77298

>  <SCORE.INTER.ROT>
6

>  <SCORE.INTER.SOLV>
17.8421

>  <SCORE.INTER.VDW>
-23.3195

>  <SCORE.INTER.norm>
-0.920098

>  <SCORE.INTRA>
-2.33114

>  <SCORE.INTRA.DIHEDRAL>
-3.44281

>  <SCORE.INTRA.DIHEDRAL.0>
28.0161

>  <SCORE.INTRA.POLAR>
-0.942015

>  <SCORE.INTRA.POLAR.0>
-1.05798

>  <SCORE.INTRA.REPUL>
0

>  <SCORE.INTRA.REPUL.0>
0

>  <SCORE.INTRA.SOLV>
-0.485362

>  <SCORE.INTRA.SOLV.lig_0>
-42.5945

>  <SCORE.INTRA.VDW>
2.83579

>  <SCORE.INTRA.VDW.0>
-5.13869

>  <SCORE.INTRA.norm>
-0.0751982

>  <SCORE.RESTR>
0

>  <SCORE.RESTR.CAVITY>
0

>  <SCORE.RESTR.norm>
0

>  <SCORE.SYSTEM>
0

>  <SCORE.SYSTEM.CONST>
0

>  <SCORE.SYSTEM.DIHEDRAL>
0

>  <SCORE.SYSTEM.SOLV>
0

>  <SCORE.SYSTEM.norm>
0

>  <SCORE.heavy>
31

>  <SCORE.norm>
-0.995296

>  <RMSD>
5.150

$$$$
lig.pdb
 OpenBabel11021811453D
libRbt.so/2013.1/901 2013/11/27
 31 33  0  0  0  0  0  0  0  0999 V2000
    0.7032   -0.0856    7.4401 O   0  0  0  0  0  0  0  0  0  0  0  0
   -0.2454    0.2625    8.4296 C   0  0  0  0  0  0  0  0  0  0  0  0
   -1.5932    0.6469    7.8044 C   0  0  1  0  0  0  0  0  0  0  0  0
   -1.6457    2.0247    7.4698 O   0  0  0  0  0  0  0  0  0  0  0  0
   -2.5720    2.2239    6.4063 C   0  0  1  0  0  0  0  0  0  0  0  0
   -1.9858    3.0446    5.4030 O   0  0  0  0  0  0  0  0  0  0  0  0
   -1.9018    4.4351    5.6718 C   0  0  2  0  0  0  0  0  0  0  0  0
   -3.1983    4.8529    6.3835 C   0  0  1  0  0  0  0  0  0  0  0  0
   -3.2289    4.2950    7.6878 O   0  0  0  0  0  0  0  0  0  0  0  0
   -3.3694    6.3724    6.5323 C   0  0  2  0  0  0  0  0  0  0  0  0
   -4.6718    6.7009    7.1324 N   0  0  0  0  0  0  0  0  0  0  0  0
   -3.2579    7.0385    5.1660 C   0  0  0  0  0  0  0  0  0  0  0  0
   -1.9280    6.6674    4.5213 C   0  0  2  0  0  0  0  0  0  0  0  0
   -1.8242    7.3647    3.2349 N   0  0  0  0  0  0  0  0  0  0  0  0
   -1.8207    5.1364    4.3538 C   0  0  1  0  0  0  0  0  0  0  0  0
   -0.5488    4.9071    3.7284 O   0  0  0  0  0  0  0  0  0  0  0  0
   -0.5354    4.7843    2.3101 C   0  0  1  0  0  0  0  0  0  0  0  0
   -0.0312    5.9727    1.7068 O   0  0  0  0  0  0  0  0  0  0  0  0
    1.3546    6.2427    1.9076 C   0  0  2  0  0  0  0  0  0  0  0  0
    1.7153    7.5502    1.1900 C   0  0  0  0  0  0  0  0  0  0  0  0
    1.3174    8.7169    1.9648 N   0  0  0  0  0  0  0  0  0  0  0  0
    2.2215    5.0922    1.3630 C   0  0  1  0  0  0  0  0  0  0  0  0
    3.5881    5.3561    1.6263 O   0  0  0  0  0  0  0  0  0  0  0  0
    1.7996    3.7882    2.0516 C   0  0  2  0  0  0  0  0  0  0  0  0
    2.5184    2.6966    1.5089 O   0  0  0  0  0  0  0  0  0  0  0  0
    0.2897    3.5592    1.9000 C   0  0  1  0  0  0  0  0  0  0  0  0
   -0.1216    2.3769    2.6705 N   0  0  0  0  0  0  0  0  0  0  0  0
   -2.8812    0.8385    5.8205 C   0  0  2  0  0  0  0  0  0  0  0  0
   -4.2026    0.4587    6.1570 O   0  0  0  0  0  0  0  0  0  0  0  0
   -1.8172   -0.0484    6.4653 C   0  0  2  0  0  0  0  0  0  0  0  0
   -2.2026   -1.4035    6.5849 O   0  0  0  0  0  0  0  0  0  0  0  0
  2  1  1  0  0  0  0
  3  2  1  6  0  0  0
  3 30  1  0  0  0  0
  4  5  1  0  0  0  0
  4  3  1  0  0  0  0
  5 28  1  0  0  0  0
  5  6  1  6  0  0  0
  7  6  1  6  0  0  0
  8  7  1  0  0  0  0
  8  9  1  1  0  0  0
 10 11  1  6  0  0  0
 10  8  1  0  0  0  0
 12 10  1  0  0  0  0
 13 12  1  0  0  0  0
 13 15  1  0  0  0  0
 13 14  1  6  0  0  0
 15  7  1  0  0  0  0
 15 16  1  1  0  0  0
 17 16  1  1  0  0  0
 18 17  1  0  0  0  0
 19 20  1  6  0  0  0
 19 18  1  0  0  0  0
 20 21  1  0  0  0  0
 22 24  1  0  0  0  0
 22 19  1  0  0  0  0
 22 23  1  1  0  0  0
 24 25  1  6  0  0  0
 24 26  1  0  0  0  0
 26 17  1  0  0  0  0
 26 27  1  1  0  0  0
 28 29  1  1  0  0  0
 28 30  1  0  0  0  0
 30 31  1  1  0  0  0
M  END
>  <CHROM.1>
-151.00249945,-87.54350780,-76.34052192,-39.27904429,-169.14035076,58.27035495
-176.34300206,144.33399910,104.15750827,79.59794224,-31.34504347,-68.47320614
165.41944112,-151.08001541,60.83582425,63.35638689,-0.96270528,3.91697993
4.60441923,-2.16617018,0.69505537,-0.39267403

>  <Name>
lig.pdb

>  <RI>
2.74555e+07

>  <Rbt.Current_Directory>
/home/itssahil/PROJECTS/Mol_Feturizer/New_Systems/rnas/2n0j

>  <Rbt.Executable>
rbdock ($Id: //depot/dev/client3/rdock/2013.1/src/exe/rbdock.cxx#4 $)

>  <Rbt.Library>
libRbt.so (2013.1, Build901 2013/11/27)

>  <Rbt.Parameter_File>
/export/apps/rDock/src/rDock_2013.1_src/data/scripts/dock_solv.prm

>  <Rbt.Receptor>
prm/pocket_docking_6.prm

>  <SCORE>
-31.0007

>  <SCORE.INTER>
-36.8725

>  <SCORE.INTER.CONST>
1

>  <SCORE.INTER.POLAR>
-3.74046

>  <SCORE.INTER.ROT>
6

>  <SCORE.INTER.SOLV>
16.7652

>  <SCORE.INTER.VDW>
-25.3019

>  <SCORE.INTER.norm>
-1.18943

>  <SCORE.INTRA>
5.87174

>  <SCORE.INTRA.DIHEDRAL>
-1.59489

>  <SCORE.INTRA.DIHEDRAL.0>
28.0161

>  <SCORE.INTRA.POLAR>
-0.0452733

>  <SCORE.INTRA.POLAR.0>
-1.05798

>  <SCORE.INTRA.REPUL>
0

>  <SCORE.INTRA.REPUL.0>
0

>  <SCORE.INTRA.SOLV>
0.713981

>  <SCORE.INTRA.SOLV.lig_0>
-42.5945

>  <SCORE.INTRA.VDW>
6.46613

>  <SCORE.INTRA.VDW.0>
-5.13869

>  <SCORE.INTRA.norm>
0.189411

>  <SCORE.RESTR>
0

>  <SCORE.RESTR.CAVITY>
0

>  <SCORE.RESTR.norm>
0

>  <SCORE.SYSTEM>
0

>  <SCORE.SYSTEM.CONST>
0

>  <SCORE.SYSTEM.DIHEDRAL>
0

>  <SCORE.SYSTEM.SOLV>
0

>  <SCORE.SYSTEM.norm>
0

>  <SCORE.heavy>
31

>  <SCORE.norm>
-1.00002

>  <RMSD>
5.156

$$$$
lig.pdb
 OpenBabel11021811453D
libRbt.so/2013.1/901 2013/11/27
 31 33  0  0  0  0  0  0  0  0999 V2000
   -2.4706   -0.3670    9.6822 O   0  0  0  0  0  0  0  0  0  0  0  0
   -2.4510   -0.7220    8.3133 C   0  0  0  0  0  0  0  0  0  0  0  0
   -3.0988    0.3633    7.4429 C   0  0  1  0  0  0  0  0  0  0  0  0
   -2.4142    1.6015    7.5471 O   0  0  0  0  0  0  0  0  0  0  0  0
   -2.6169    2.3619    6.3599 C   0  0  1  0  0  0  0  0  0  0  0  0
   -1.3730    2.8725    5.8954 O   0  0  0  0  0  0  0  0  0  0  0  0
   -1.4105    4.0553    5.1128 C   0  0  2  0  0  0  0  0  0  0  0  0
   -2.1761    5.1212    5.9127 C   0  0  1  0  0  0  0  0  0  0  0  0
   -1.4037    5.5250    7.0324 O   0  0  0  0  0  0  0  0  0  0  0  0
   -2.5117    6.3866    5.1087 C   0  0  2  0  0  0  0  0  0  0  0  0
   -3.3256    7.3179    5.9051 N   0  0  0  0  0  0  0  0  0  0  0  0
   -3.2699    6.0053    3.8427 C   0  0  0  0  0  0  0  0  0  0  0  0
   -2.4494    5.0078    3.0341 C   0  0  2  0  0  0  0  0  0  0  0  0
   -3.1769    4.7013    1.7977 N   0  0  0  0  0  0  0  0  0  0  0  0
   -2.1744    3.7375    3.8674 C   0  0  1  0  0  0  0  0  0  0  0  0
   -1.4170    2.8717    3.0081 O   0  0  0  0  0  0  0  0  0  0  0  0
   -0.1045    2.5211    3.4333 C   0  0  1  0  0  0  0  0  0  0  0  0
   -0.0345    1.1358    3.7602 O   0  0  0  0  0  0  0  0  0  0  0  0
   -0.1530    0.2241    2.6701 C   0  0  2  0  0  0  0  0  0  0  0  0
   -0.0536   -1.2095    3.2082 C   0  0  0  0  0  0  0  0  0  0  0  0
   -0.3301   -2.1939    2.1718 N   0  0  0  0  0  0  0  0  0  0  0  0
    0.9547    0.4686    1.6285 C   0  0  1  0  0  0  0  0  0  0  0  0
    0.7811   -0.4085    0.5298 O   0  0  0  0  0  0  0  0  0  0  0  0
    0.8714    1.9242    1.1525 C   0  0  2  0  0  0  0  0  0  0  0  0
    1.9320    2.2054    0.2585 O   0  0  0  0  0  0  0  0  0  0  0  0
    0.9119    2.8879    2.3461 C   0  0  1  0  0  0  0  0  0  0  0  0
    0.7033    4.2688    1.8876 N   0  0  0  0  0  0  0  0  0  0  0  0
   -3.2018    1.4033    5.3124 C   0  0  2  0  0  0  0  0  0  0  0  0
   -4.5622    1.7178    5.0802 O   0  0  0  0  0  0  0  0  0  0  0  0
   -3.0022    0.0325    5.9569 C   0  0  2  0  0  0  0  0  0  0  0  0
   -3.9357   -0.9389    5.5280 O   0  0  0  0  0  0  0  0  0  0  0  0
  2  1  1  0  0  0  0
  3  2  1  1  0  0  0
  3 30  1  0  0  0  0
  4  5  1  0  0  0  0
  4  3  1  0  0  0  0
  5 28  1  0  0  0  0
  5  6  1  6  0  0  0
  7  6  1  1  0  0  0
  8  7  1  0  0  0  0
  8  9  1  1  0  0  0
 10 11  1  1  0  0  0
 10  8  1  0  0  0  0
 12 10  1  0  0  0  0
 13 12  1  0  0  0  0
 13 15  1  0  0  0  0
 13 14  1  6  0  0  0
 15  7  1  0  0  0  0
 15 16  1  6  0  0  0
 17 16  1  6  0  0  0
 18 17  1  0  0  0  0
 19 20  1  1  0  0  0
 19 18  1  0  0  0  0
 20 21  1  0  0  0  0
 22 24  1  0  0  0  0
 22 19  1  0  0  0  0
 22 23  1  6  0  0  0
 24 25  1  6  0  0  0
 24 26  1  0  0  0  0
 26 17  1  0  0  0  0
 26 27  1  6  0  0  0
 28 29  1  1  0  0  0
 28 30  1  0  0  0  0
 30 31  1  6  0  0  0
M  END
>  <CHROM.1>
115.65024568,60.95325793,-154.22906561,54.24664642,-29.58813622,118.10706056
51.46608967,-2.54341805,112.13767036,172.98903004,62.41083185,-167.08791318
-59.17629082,29.94893148,-178.16904580,-46.31329816,-1.51815628,2.26243775
4.33823752,3.06193539,1.01487413,-0.27286124

>  <Name>
lig.pdb

>  <RI>
3.50357e+07

>  <Rbt.Current_Directory>
/home/itssahil/PROJECTS/Mol_Feturizer/New_Systems/rnas/2n0j

>  <Rbt.Executable>
rbdock ($Id: //depot/dev/client3/rdock/2013.1/src/exe/rbdock.cxx#4 $)

>  <Rbt.Library>
libRbt.so (2013.1, Build901 2013/11/27)

>  <Rbt.Parameter_File>
/export/apps/rDock/src/rDock_2013.1_src/data/scripts/dock_solv.prm

>  <Rbt.Receptor>
prm/pocket_docking_3.prm

>  <SCORE>
-36.4942

>  <SCORE.INTER>
-50.2983

>  <SCORE.INTER.CONST>
1

>  <SCORE.INTER.POLAR>
-8.21447

>  <SCORE.INTER.ROT>
6

>  <SCORE.INTER.SOLV>
21.9286

>  <SCORE.INTER.VDW>
-21.0601

>  <SCORE.INTER.norm>
-1.62253

>  <SCORE.INTRA>
13.0523

>  <SCORE.INTRA.DIHEDRAL>
7.48477

>  <SCORE.INTRA.DIHEDRAL.0>
28.0161

>  <SCORE.INTRA.POLAR>
0.590993

>  <SCORE.INTRA.POLAR.0>
-1.05798

>  <SCORE.INTRA.REPUL>
0.00269913

>  <SCORE.INTRA.REPUL.0>
0

>  <SCORE.INTRA.SOLV>
0.677859

>  <SCORE.INTRA.SOLV.lig_0>
-42.5945

>  <SCORE.INTRA.VDW>
6.94812

>  <SCORE.INTRA.VDW.0>
-5.13869

>  <SCORE.INTRA.norm>
0.421042

>  <SCORE.RESTR>
0.751823

>  <SCORE.RESTR.CAVITY>
0.751823

>  <SCORE.RESTR.norm>
0.0242523

>  <SCORE.SYSTEM>
0

>  <SCORE.SYSTEM.CONST>
0

>  <SCORE.SYSTEM.DIHEDRAL>
0

>  <SCORE.SYSTEM.SOLV>
0

>  <SCORE.SYSTEM.norm>
0

>  <SCORE.heavy>
31

>  <SCORE.norm>
-1.17723

>  <RMSD>
5.177

$$$$
lig.pdb
 OpenBabel11021811453D
libRbt.so/2013.1/901 2013/11/27
 31 33  0  0  0  0  0  0  0  0999 V2000
   -1.6232   -2.9749    6.5573 O   0  0  0  0  0  0  0  0  0  0  0  0
   -2.3055   -1.8909    5.9576 C   0  0  0  0  0  0  0  0  0  0  0  0
   -1.8136   -1.6416    4.5254 C   0  0  1  0  0  0  0  0  0  0  0  0
   -2.7791   -0.9503    3.7489 O   0  0  0  0  0  0  0  0  0  0  0  0
   -2.1280   -0.2269    2.7089 C   0  0  1  0  0  0  0  0  0  0  0  0
   -2.6246    1.1054    2.6637 O   0  0  0  0  0  0  0  0  0  0  0  0
   -4.0334    1.2703    2.6332 C   0  0  2  0  0  0  0  0  0  0  0  0
   -4.5313    0.7866    1.2620 C   0  0  1  0  0  0  0  0  0  0  0  0
   -4.3905   -0.6225    1.1721 O   0  0  0  0  0  0  0  0  0  0  0  0
   -6.0042    1.1178    0.9778 C   0  0  2  0  0  0  0  0  0  0  0  0
   -6.3832    0.7133   -0.3848 N   0  0  0  0  0  0  0  0  0  0  0  0
   -6.2361    2.6149    1.1456 C   0  0  0  0  0  0  0  0  0  0  0  0
   -5.8057    3.0475    2.5418 C   0  0  2  0  0  0  0  0  0  0  0  0
   -6.0904    4.4784    2.6938 N   0  0  0  0  0  0  0  0  0  0  0  0
   -4.3105    2.7336    2.7646 C   0  0  1  0  0  0  0  0  0  0  0  0
   -4.0156    3.1942    4.0922 O   0  0  0  0  0  0  0  0  0  0  0  0
   -2.6424    3.3057    4.4507 C   0  0  1  0  0  0  0  0  0  0  0  0
   -1.8901    3.8841    3.3877 O   0  0  0  0  0  0  0  0  0  0  0  0
   -2.1469    5.2588    3.1089 C   0  0  2  0  0  0  0  0  0  0  0  0
   -1.2518    5.7056    1.9454 C   0  0  0  0  0  0  0  0  0  0  0  0
    0.0012    4.9649    1.9149 N   0  0  0  0  0  0  0  0  0  0  0  0
   -1.8672    6.1306    4.3472 C   0  0  1  0  0  0  0  0  0  0  0  0
   -2.1850    7.4816    4.0637 O   0  0  0  0  0  0  0  0  0  0  0  0
   -2.7287    5.6250    5.5111 C   0  0  2  0  0  0  0  0  0  0  0  0
   -2.4299    6.3506    6.6889 O   0  0  0  0  0  0  0  0  0  0  0  0
   -2.5041    4.1241    5.7394 C   0  0  1  0  0  0  0  0  0  0  0  0
   -3.4267    3.6265    6.7699 N   0  0  0  0  0  0  0  0  0  0  0  0
   -0.6313   -0.2057    3.0518 C   0  0  2  0  0  0  0  0  0  0  0  0
    0.0786   -1.0402    2.1556 O   0  0  0  0  0  0  0  0  0  0  0  0
   -0.6055   -0.7108    4.4935 C   0  0  2  0  0  0  0  0  0  0  0  0
    0.6080   -1.3407    4.8538 O   0  0  0  0  0  0  0  0  0  0  0  0
  2  1  1  0  0  0  0
  3  2  1  1  0  0  0
  3 30  1  0  0  0  0
  4  5  1  0  0  0  0
  4  3  1  0  0  0  0
  5 28  1  0  0  0  0
  5  6  1  1  0  0  0
  7  6  1  6  0  0  0
  8  7  1  0  0  0  0
  8  9  1  1  0  0  0
 10 11  1  6  0  0  0
 10  8  1  0  0  0  0
 12 10  1  0  0  0  0
 13 12  1  0  0  0  0
 13 15  1  0  0  0  0
 13 14  1  6  0  0  0
 15  7  1  0  0  0  0
 15 16  1  1  0  0  0
 17 16  1  6  0  0  0
 18 17  1  0  0  0  0
 19 20  1  6  0  0  0
 19 18  1  0  0  0  0
 20 21  1  0  0  0  0
 22 24  1  0  0  0  0
 22 19  1  0  0  0  0
 22 23  1  6  0  0  0
 24 25  1  1  0  0  0
 24 26  1  0  0  0  0
 26 17  1  0  0  0  0
 26 27  1  1  0  0  0
 28 29  1  6  0  0  0
 28 30  1  0  0  0  0
 30 31  1  6  0  0  0
M  END
>  <CHROM.1>
-170.99020302,157.42855392,-50.36645805,-69.84128563,-86.71144138,-62.54333574
-60.71844858,73.01012415,42.66718514,-30.01818537,5.10629474,-66.61459444
46.95590851,179.95670482,-52.50066331,51.52827770,-2.83790848,2.11957465
3.47941321,-1.40110636,-0.73888594,0.15165614

>  <Name>
lig.pdb

>  <RI>
3.32461e+07

>  <Rbt.Current_Directory>
/home/itssahil/PROJECTS/Mol_Feturizer/New_Systems/rnas/2n0j

>  <Rbt.Executable>
rbdock ($Id: //depot/dev/client3/rdock/2013.1/src/exe/rbdock.cxx#4 $)

>  <Rbt.Library>
libRbt.so (2013.1, Build901 2013/11/27)

>  <Rbt.Parameter_File>
/export/apps/rDock/src/rDock_2013.1_src/data/scripts/dock_solv.prm

>  <Rbt.Receptor>
prm/pocket_docking_7.prm

>  <SCORE>
-31.3373

>  <SCORE.INTER>
-31.366

>  <SCORE.INTER.CONST>
1

>  <SCORE.INTER.POLAR>
-4.02528

>  <SCORE.INTER.ROT>
6

>  <SCORE.INTER.SOLV>
18.5258

>  <SCORE.INTER.VDW>
-21.2683

>  <SCORE.INTER.norm>
-1.01181

>  <SCORE.INTRA>
0.0286814

>  <SCORE.INTRA.DIHEDRAL>
-11.7933

>  <SCORE.INTRA.DIHEDRAL.0>
28.0161

>  <SCORE.INTRA.POLAR>
0.763155

>  <SCORE.INTRA.POLAR.0>
-1.05798

>  <SCORE.INTRA.REPUL>
0

>  <SCORE.INTRA.REPUL.0>
0

>  <SCORE.INTRA.SOLV>
-0.188349

>  <SCORE.INTRA.SOLV.lig_0>
-42.5945

>  <SCORE.INTRA.VDW>
3.42479

>  <SCORE.INTRA.VDW.0>
-5.13869

>  <SCORE.INTRA.norm>
0.000925206

>  <SCORE.RESTR>
0

>  <SCORE.RESTR.CAVITY>
0

>  <SCORE.RESTR.norm>
0

>  <SCORE.SYSTEM>
0

>  <SCORE.SYSTEM.CONST>
0

>  <SCORE.SYSTEM.DIHEDRAL>
0

>  <SCORE.SYSTEM.SOLV>
0

>  <SCORE.SYSTEM.norm>
0

>  <SCORE.heavy>
31

>  <SCORE.norm>
-1.01088

>  <RMSD>
5.179

$$$$
lig.pdb
 OpenBabel11021811453D
libRbt.so/2013.1/901 2013/11/27
 31 33  0  0  0  0  0  0  0  0999 V2000
   -1.1010    7.4119    2.8440 O   0  0  0  0  0  0  0  0  0  0  0  0
   -0.6866    6.4431    1.9007 C   0  0  0  0  0  0  0  0  0  0  0  0
   -1.1120    5.0304    2.3234 C   0  0  1  0  0  0  0  0  0  0  0  0
   -1.1355    4.1351    1.2230 O   0  0  0  0  0  0  0  0  0  0  0  0
   -0.9317    2.8034    1.6852 C   0  0  1  0  0  0  0  0  0  0  0  0
    0.0513    2.1594    0.8835 O   0  0  0  0  0  0  0  0  0  0  0  0
   -0.1845    0.8047    0.5340 C   0  0  2  0  0  0  0  0  0  0  0  0
   -1.5799    0.7228   -0.1051 C   0  0  1  0  0  0  0  0  0  0  0  0
   -1.5639    1.3625   -1.3715 O   0  0  0  0  0  0  0  0  0  0  0  0
   -2.0854   -0.7113   -0.3238 C   0  0  2  0  0  0  0  0  0  0  0  0
   -3.4605   -0.7127   -0.8465 N   0  0  0  0  0  0  0  0  0  0  0  0
   -2.0423   -1.4780    0.9927 C   0  0  0  0  0  0  0  0  0  0  0  0
   -0.6285   -1.4442    1.5602 C   0  0  2  0  0  0  0  0  0  0  0  0
   -0.6044   -2.2341    2.7960 N   0  0  0  0  0  0  0  0  0  0  0  0
   -0.1816    0.0136    1.8027 C   0  0  1  0  0  0  0  0  0  0  0  0
    1.1438   -0.0771    2.3474 O   0  0  0  0  0  0  0  0  0  0  0  0
    1.4591    0.7851    3.4354 C   0  0  1  0  0  0  0  0  0  0  0  0
    0.8205    0.3423    4.6299 O   0  0  0  0  0  0  0  0  0  0  0  0
    1.2999   -0.8806    5.1850 C   0  0  2  0  0  0  0  0  0  0  0  0
    0.5023   -1.1952    6.4575 C   0  0  0  0  0  0  0  0  0  0  0  0
    0.1257    0.0172    7.1703 N   0  0  0  0  0  0  0  0  0  0  0  0
    2.7995   -0.7793    5.5205 C   0  0  1  0  0  0  0  0  0  0  0  0
    3.2649   -2.0225    6.0148 O   0  0  0  0  0  0  0  0  0  0  0  0
    3.5659   -0.4046    4.2459 C   0  0  2  0  0  0  0  0  0  0  0  0
    4.9377   -0.2178    4.5399 O   0  0  0  0  0  0  0  0  0  0  0  0
    2.9794    0.8652    3.6144 C   0  0  1  0  0  0  0  0  0  0  0  0
    3.6378    1.1407    2.3294 N   0  0  0  0  0  0  0  0  0  0  0  0
   -0.4272    2.9070    3.1319 C   0  0  2  0  0  0  0  0  0  0  0  0
   -1.4347    2.4690    4.0244 O   0  0  0  0  0  0  0  0  0  0  0  0
   -0.1024    4.3933    3.2730 C   0  0  2  0  0  0  0  0  0  0  0  0
   -0.1899    4.8709    4.6009 O   0  0  0  0  0  0  0  0  0  0  0  0
  2  1  1  0  0  0  0
  3  2  1  6  0  0  0
  3 30  1  0  0  0  0
  4  5  1  0  0  0  0
  4  3  1  0  0  0  0
  5 28  1  0  0  0  0
  5  6  1  6  0  0  0
  7  6  1  1  0  0  0
  8  7  1  0  0  0  0
  8  9  1  6  0  0  0
 10 11  1  1  0  0  0
 10  8  1  0  0  0  0
 12 10  1  0  0  0  0
 13 12  1  0  0  0  0
 13 15  1  0  0  0  0
 13 14  1  1  0  0  0
 15  7  1  0  0  0  0
 15 16  1  6  0  0  0
 17 16  1  6  0  0  0
 18 17  1  0  0  0  0
 19 20  1  1  0  0  0
 19 18  1  0  0  0  0
 20 21  1  0  0  0  0
 22 24  1  0  0  0  0
 22 19  1  0  0  0  0
 22 23  1  6  0  0  0
 24 25  1  1  0  0  0
 24 26  1  0  0  0  0
 26 17  1  0  0  0  0
 26 27  1  6  0  0  0
 28 29  1  1  0  0  0
 28 30  1  0  0  0  0
 30 31  1  1  0  0  0
M  END
>  <CHROM.1>
87.56069995,159.39438682,-139.26322629,53.20948220,41.98922363,-51.85071722
171.66041525,101.48722940,73.45232032,-33.82594605,-64.39919352,81.16309259
72.50944588,69.25989136,-174.75201240,-50.71349409,0.23841261,1.19289563
2.81461185,-2.59499560,0.88498609,-2.93789571

>  <Name>
lig.pdb

>  <RI>
9.20816e+06

>  <Rbt.Current_Directory>
/home/itssahil/PROJECTS/Mol_Feturizer/New_Systems/rnas/2n0j

>  <Rbt.Executable>
rbdock ($Id: //depot/dev/client3/rdock/2013.1/src/exe/rbdock.cxx#4 $)

>  <Rbt.Library>
libRbt.so (2013.1, Build901 2013/11/27)

>  <Rbt.Parameter_File>
/export/apps/rDock/src/rDock_2013.1_src/data/scripts/dock_solv.prm

>  <Rbt.Receptor>
prm/blind_docking_100.prm

>  <SCORE>
-24.1721

>  <SCORE.INTER>
-31.3953

>  <SCORE.INTER.CONST>
1

>  <SCORE.INTER.POLAR>
-4.42237

>  <SCORE.INTER.ROT>
6

>  <SCORE.INTER.SOLV>
24.1187

>  <SCORE.INTER.VDW>
-21.8285

>  <SCORE.INTER.norm>
-1.01275

>  <SCORE.INTRA>
4.40896

>  <SCORE.INTRA.DIHEDRAL>
-3.49223

>  <SCORE.INTRA.DIHEDRAL.0>
28.0161

>  <SCORE.INTRA.POLAR>
1.01259

>  <SCORE.INTRA.POLAR.0>
-1.05798

>  <SCORE.INTRA.REPUL>
0.00237821

>  <SCORE.INTRA.REPUL.0>
0

>  <SCORE.INTRA.SOLV>
1.01525

>  <SCORE.INTRA.SOLV.lig_0>
-42.5945

>  <SCORE.INTRA.VDW>
2.19275

>  <SCORE.INTRA.VDW.0>
-5.13869

>  <SCORE.INTRA.norm>
0.142224

>  <SCORE.RESTR>
2.81426

>  <SCORE.RESTR.CAVITY>
2.81426

>  <SCORE.RESTR.norm>
0.0907825

>  <SCORE.SYSTEM>
0

>  <SCORE.SYSTEM.CONST>
0

>  <SCORE.SYSTEM.DIHEDRAL>
0

>  <SCORE.SYSTEM.SOLV>
0

>  <SCORE.SYSTEM.norm>
0

>  <SCORE.heavy>
31

>  <SCORE.norm>
-0.779746

>  <RMSD>
5.192

$$$$
lig.pdb
 OpenBabel11021811453D
libRbt.so/2013.1/901 2013/11/27
 31 33  0  0  0  0  0  0  0  0999 V2000
   -5.9276    1.6879    6.6447 O   0  0  0  0  0  0  0  0  0  0  0  0
   -6.7991    2.2026    5.6570 C   0  0  0  0  0  0  0  0  0  0  0  0
   -6.0492    2.5162    4.3552 C   0  0  1  0  0  0  0  0  0  0  0  0
   -5.0345    3.4882    4.5520 O   0  0  0  0  0  0  0  0  0  0  0  0
   -4.0162    3.3226    3.5700 C   0  0  1  0  0  0  0  0  0  0  0  0
   -2.7375    3.3385    4.1933 O   0  0  0  0  0  0  0  0  0  0  0  0
   -2.1718    4.6082    4.4774 C   0  0  2  0  0  0  0  0  0  0  0  0
   -3.1746    5.3830    5.3470 C   0  0  1  0  0  0  0  0  0  0  0  0
   -3.2485    4.7909    6.6344 O   0  0  0  0  0  0  0  0  0  0  0  0
   -2.8186    6.8643    5.5449 C   0  0  2  0  0  0  0  0  0  0  0  0
   -3.8682    7.5631    6.3026 N   0  0  0  0  0  0  0  0  0  0  0  0
   -2.6397    7.5357    4.1884 C   0  0  0  0  0  0  0  0  0  0  0  0
   -1.5830    6.7903    3.3823 C   0  0  2  0  0  0  0  0  0  0  0  0
   -1.3926    7.4891    2.1067 N   0  0  0  0  0  0  0  0  0  0  0  0
   -2.0047    5.3199    3.1732 C   0  0  1  0  0  0  0  0  0  0  0  0
   -0.9536    4.7262    2.3960 O   0  0  0  0  0  0  0  0  0  0  0  0
    0.0295    3.9749    3.1000 C   0  0  1  0  0  0  0  0  0  0  0  0
   -0.2158    2.5773    2.9686 O   0  0  0  0  0  0  0  0  0  0  0  0
   -0.0157    2.0214    1.6708 C   0  0  2  0  0  0  0  0  0  0  0  0
   -0.3233    0.5189    1.7209 C   0  0  0  0  0  0  0  0  0  0  0  0
   -1.7109    0.2651    2.0811 N   0  0  0  0  0  0  0  0  0  0  0  0
    1.4330    2.2421    1.1974 C   0  0  1  0  0  0  0  0  0  0  0  0
    1.5908    1.7341   -0.1154 O   0  0  0  0  0  0  0  0  0  0  0  0
    1.7338    3.7460    1.2148 C   0  0  2  0  0  0  0  0  0  0  0  0
    3.0866    3.9758    0.8683 O   0  0  0  0  0  0  0  0  0  0  0  0
    1.4290    4.3438    2.5950 C   0  0  1  0  0  0  0  0  0  0  0  0
    1.5990    5.8034    2.5618 N   0  0  0  0  0  0  0  0  0  0  0  0
   -4.2502    1.9544    2.9132 C   0  0  2  0  0  0  0  0  0  0  0  0
   -4.7211    2.1312    1.5901 O   0  0  0  0  0  0  0  0  0  0  0  0
   -5.2797    1.3054    3.8369 C   0  0  2  0  0  0  0  0  0  0  0  0
   -6.0949    0.3453    3.1945 O   0  0  0  0  0  0  0  0  0  0  0  0
  2  1  1  0  0  0  0
  3  2  1  1  0  0  0
  3 30  1  0  0  0  0
  4  5  1  0  0  0  0
  4  3  1  0  0  0  0
  5 28  1  0  0  0  0
  5  6  1  1  0  0  0
  7  6  1  6  0  0  0
  8  7  1  0  0  0  0
  8  9  1  1  0  0  0
 10 11  1  6  0  0  0
 10  8  1  0  0  0  0
 12 10  1  0  0  0  0
 13 12  1  0  0  0  0
 13 15  1  0  0  0  0
 13 14  1  6  0  0  0
 15  7  1  0  0  0  0
 15 16  1  6  0  0  0
 17 16  1  6  0  0  0
 18 17  1  0  0  0  0
 19 20  1  1  0  0  0
 19 18  1  0  0  0  0
 20 21  1  0  0  0  0
 22 24  1  0  0  0  0
 22 19  1  0  0  0  0
 22 23  1  6  0  0  0
 24 25  1  1  0  0  0
 24 26  1  0  0  0  0
 26 17  1  0  0  0  0
 26 27  1  6  0  0  0
 28 29  1  6  0  0  0
 28 30  1  0  0  0  0
 30 31  1  6  0  0  0
M  END
>  <CHROM.1>
-178.68577968,-60.59852052,-82.32297911,56.18345035,62.50818434,81.98768563
-42.20227243,-22.42749376,101.66705239,62.14293700,60.90377242,45.82917428
-57.66079092,55.07851104,58.12099888,-176.44975508,-2.13768730,3.68248489
3.34674234,3.02791986,0.48288405,0.41125446

>  <Name>
lig.pdb

>  <RI>
3.33129e+07

>  <Rbt.Current_Directory>
/home/itssahil/PROJECTS/Mol_Feturizer/New_Systems/rnas/2n0j

>  <Rbt.Executable>
rbdock ($Id: //depot/dev/client3/rdock/2013.1/src/exe/rbdock.cxx#4 $)

>  <Rbt.Library>
libRbt.so (2013.1, Build901 2013/11/27)

>  <Rbt.Parameter_File>
/export/apps/rDock/src/rDock_2013.1_src/data/scripts/dock_solv.prm

>  <Rbt.Receptor>
prm/pocket_docking_4.prm

>  <SCORE>
-35.7428

>  <SCORE.INTER>
-38.1491

>  <SCORE.INTER.CONST>
1

>  <SCORE.INTER.POLAR>
-4.63763

>  <SCORE.INTER.ROT>
6

>  <SCORE.INTER.SOLV>
16.4147

>  <SCORE.INTER.VDW>
-23.0456

>  <SCORE.INTER.norm>
-1.23062

>  <SCORE.INTRA>
2.40635

>  <SCORE.INTRA.DIHEDRAL>
-11.7673

>  <SCORE.INTRA.DIHEDRAL.0>
28.0161

>  <SCORE.INTRA.POLAR>
1.00139

>  <SCORE.INTRA.POLAR.0>
-1.05798

>  <SCORE.INTRA.REPUL>
0

>  <SCORE.INTRA.REPUL.0>
0

>  <SCORE.INTRA.SOLV>
1.11254

>  <SCORE.INTRA.SOLV.lig_0>
-42.5945

>  <SCORE.INTRA.VDW>
4.32897

>  <SCORE.INTRA.VDW.0>
-5.13869

>  <SCORE.INTRA.norm>
0.0776241

>  <SCORE.RESTR>
0

>  <SCORE.RESTR.CAVITY>
0

>  <SCORE.RESTR.norm>
0

>  <SCORE.SYSTEM>
0

>  <SCORE.SYSTEM.CONST>
0

>  <SCORE.SYSTEM.DIHEDRAL>
0

>  <SCORE.SYSTEM.SOLV>
0

>  <SCORE.SYSTEM.norm>
0

>  <SCORE.heavy>
31

>  <SCORE.norm>
-1.15299

>  <RMSD>
5.192

$$$$
lig.pdb
 OpenBabel11021811453D
libRbt.so/2013.1/901 2013/11/27
 31 33  0  0  0  0  0  0  0  0999 V2000
   -1.2758   -2.5865    4.8605 O   0  0  0  0  0  0  0  0  0  0  0  0
   -0.5613   -1.3714    4.9744 C   0  0  0  0  0  0  0  0  0  0  0  0
   -1.3228   -0.3508    5.8310 C   0  0  1  0  0  0  0  0  0  0  0  0
   -0.7850    0.9554    5.6980 O   0  0  0  0  0  0  0  0  0  0  0  0
   -1.7966    1.9197    5.9729 C   0  0  1  0  0  0  0  0  0  0  0  0
   -1.8009    2.9173    4.9586 O   0  0  0  0  0  0  0  0  0  0  0  0
   -1.8249    4.2710    5.3825 C   0  0  2  0  0  0  0  0  0  0  0  0
   -3.1770    4.5223    6.0687 C   0  0  1  0  0  0  0  0  0  0  0  0
   -3.2258    3.8197    7.3005 O   0  0  0  0  0  0  0  0  0  0  0  0
   -3.4590    6.0011    6.3745 C   0  0  2  0  0  0  0  0  0  0  0  0
   -4.8058    6.1761    6.9397 N   0  0  0  0  0  0  0  0  0  0  0  0
   -3.3342    6.8231    5.0971 C   0  0  0  0  0  0  0  0  0  0  0  0
   -1.9550    6.6128    4.4843 C   0  0  2  0  0  0  0  0  0  0  0  0
   -1.8435    7.4561    3.2892 N   0  0  0  0  0  0  0  0  0  0  0  0
   -1.7350    5.1204    4.1554 C   0  0  1  0  0  0  0  0  0  0  0  0
   -0.4242    5.0449    3.5743 O   0  0  0  0  0  0  0  0  0  0  0  0
   -0.3483    4.8924    2.1610 C   0  0  1  0  0  0  0  0  0  0  0  0
    0.1356    6.0860    1.5512 O   0  0  0  0  0  0  0  0  0  0  0  0
    1.5010    6.4127    1.8011 C   0  0  2  0  0  0  0  0  0  0  0  0
    1.8419    7.7174    1.0689 C   0  0  0  0  0  0  0  0  0  0  0  0
    1.6326    8.8816    1.9177 N   0  0  0  0  0  0  0  0  0  0  0  0
    2.4316    5.2847    1.3181 C   0  0  1  0  0  0  0  0  0  0  0  0
    3.7755    5.6059    1.6298 O   0  0  0  0  0  0  0  0  0  0  0  0
    2.0306    3.9806    2.0189 C   0  0  2  0  0  0  0  0  0  0  0  0
    2.8112    2.9058    1.5305 O   0  0  0  0  0  0  0  0  0  0  0  0
    0.5378    3.6912    1.8123 C   0  0  1  0  0  0  0  0  0  0  0  0
    0.1396    2.5108    2.5925 N   0  0  0  0  0  0  0  0  0  0  0  0
   -3.1380    1.1721    5.9634 C   0  0  2  0  0  0  0  0  0  0  0  0
   -3.6470    1.0822    7.2811 O   0  0  0  0  0  0  0  0  0  0  0  0
   -2.7666   -0.1849    5.3675 C   0  0  2  0  0  0  0  0  0  0  0  0
   -3.6194   -1.2370    5.7740 O   0  0  0  0  0  0  0  0  0  0  0  0
  2  1  1  0  0  0  0
  3  2  1  6  0  0  0
  3 30  1  0  0  0  0
  4  5  1  0  0  0  0
  4  3  1  0  0  0  0
  5 28  1  0  0  0  0
  5  6  1  6  0  0  0
  7  6  1  6  0  0  0
  8  7  1  0  0  0  0
  8  9  1  1  0  0  0
 10 11  1  6  0  0  0
 10  8  1  0  0  0  0
 12 10  1  0  0  0  0
 13 12  1  0  0  0  0
 13 15  1  0  0  0  0
 13 14  1  6  0  0  0
 15  7  1  0  0  0  0
 15 16  1  1  0  0  0
 17 16  1  1  0  0  0
 18 17  1  0  0  0  0
 19 20  1  6  0  0  0
 19 18  1  0  0  0  0
 20 21  1  0  0  0  0
 22 24  1  0  0  0  0
 22 19  1  0  0  0  0
 22 23  1  1  0  0  0
 24 25  1  6  0  0  0
 24 26  1  0  0  0  0
 26 17  1  0  0  0  0
 26 27  1  1  0  0  0
 28 29  1  1  0  0  0
 28 30  1  0  0  0  0
 30 31  1  1  0  0  0
M  END
>  <CHROM.1>
-171.82857779,-166.18225105,-132.07057436,-66.36642738,-173.46489666,176.58545013
68.79221152,135.63966193,109.50692573,91.82443506,-143.66064745,-60.55878657
-63.97997524,-150.38909246,58.59821027,-168.86859342,-0.96853997,3.73028249
4.15662788,-2.23329008,0.68018815,-0.14716678

>  <Name>
lig.pdb

>  <RI>
0

>  <Rbt.Current_Directory>
/home/itssahil/PROJECTS/Mol_Feturizer/New_Systems/rnas/2n0j

>  <Rbt.Executable>
rbdock ($Id: //depot/dev/client3/rdock/2013.1/src/exe/rbdock.cxx#4 $)

>  <Rbt.Library>
libRbt.so (2013.1, Build901 2013/11/27)

>  <Rbt.Parameter_File>
/export/apps/rDock/src/rDock_2013.1_src/data/scripts/dock_solv.prm

>  <Rbt.Receptor>
prm/pocket_docking_5.prm

>  <SCORE>
-32.8277

>  <SCORE.INTER>
-31.7999

>  <SCORE.INTER.CONST>
1

>  <SCORE.INTER.POLAR>
-3.5706

>  <SCORE.INTER.ROT>
6

>  <SCORE.INTER.SOLV>
14.5977

>  <SCORE.INTER.VDW>
-21.7639

>  <SCORE.INTER.norm>
-1.0258

>  <SCORE.INTRA>
-1.02781

>  <SCORE.INTRA.DIHEDRAL>
0.802242

>  <SCORE.INTRA.DIHEDRAL.0>
28.0161

>  <SCORE.INTRA.POLAR>
-1.45412

>  <SCORE.INTRA.POLAR.0>
-1.05798

>  <SCORE.INTRA.REPUL>
0.0249117

>  <SCORE.INTRA.REPUL.0>
0

>  <SCORE.INTRA.SOLV>
1.25261

>  <SCORE.INTRA.SOLV.lig_0>
-42.5945

>  <SCORE.INTRA.VDW>
2.7642

>  <SCORE.INTRA.VDW.0>
-5.13869

>  <SCORE.INTRA.norm>
-0.0331551

>  <SCORE.RESTR>
0

>  <SCORE.RESTR.CAVITY>
0

>  <SCORE.RESTR.norm>
0

>  <SCORE.SYSTEM>
0

>  <SCORE.SYSTEM.CONST>
0

>  <SCORE.SYSTEM.DIHEDRAL>
0

>  <SCORE.SYSTEM.SOLV>
0

>  <SCORE.SYSTEM.norm>
0

>  <SCORE.heavy>
31

>  <SCORE.norm>
-1.05896

>  <RMSD>
5.207

$$$$
lig.pdb
 OpenBabel11021811453D
libRbt.so/2013.1/901 2013/11/27
 31 33  0  0  0  0  0  0  0  0999 V2000
   -2.2608    6.5068    8.0124 O   0  0  0  0  0  0  0  0  0  0  0  0
   -2.3328    5.1478    7.6277 C   0  0  0  0  0  0  0  0  0  0  0  0
   -3.4125    4.9231    6.5605 C   0  0  1  0  0  0  0  0  0  0  0  0
   -3.0099    5.4133    5.2914 O   0  0  0  0  0  0  0  0  0  0  0  0
   -3.6889    4.6970    4.2644 C   0  0  1  0  0  0  0  0  0  0  0  0
   -2.7602    4.2847    3.2686 O   0  0  0  0  0  0  0  0  0  0  0  0
   -1.3981    4.6245    3.4736 C   0  0  2  0  0  0  0  0  0  0  0  0
   -1.1357    5.9580    2.7558 C   0  0  1  0  0  0  0  0  0  0  0  0
   -1.8129    7.0060    3.4315 O   0  0  0  0  0  0  0  0  0  0  0  0
    0.3485    6.3472    2.6801 C   0  0  2  0  0  0  0  0  0  0  0  0
    0.5321    7.5797    1.8984 N   0  0  0  0  0  0  0  0  0  0  0  0
    1.1443    5.2165    2.0389 C   0  0  0  0  0  0  0  0  0  0  0  0
    0.9244    3.9269    2.8203 C   0  0  2  0  0  0  0  0  0  0  0  0
    1.7432    2.8710    2.2151 N   0  0  0  0  0  0  0  0  0  0  0  0
   -0.5739    3.5546    2.8322 C   0  0  1  0  0  0  0  0  0  0  0  0
   -0.6585    2.3282    3.5740 O   0  0  0  0  0  0  0  0  0  0  0  0
   -1.7034    1.4275    3.2224 C   0  0  1  0  0  0  0  0  0  0  0  0
   -1.5444    0.9708    1.8819 O   0  0  0  0  0  0  0  0  0  0  0  0
   -0.4339    0.1105    1.6366 C   0  0  2  0  0  0  0  0  0  0  0  0
   -0.4244   -0.2778    0.1521 C   0  0  0  0  0  0  0  0  0  0  0  0
    0.3541    0.6597   -0.6446 N   0  0  0  0  0  0  0  0  0  0  0  0
   -0.5198   -1.1569    2.5072 C   0  0  1  0  0  0  0  0  0  0  0  0
    0.6221   -1.9663    2.2890 O   0  0  0  0  0  0  0  0  0  0  0  0
   -0.5893   -0.7390    3.9812 C   0  0  2  0  0  0  0  0  0  0  0  0
   -0.7573   -1.8790    4.8030 O   0  0  0  0  0  0  0  0  0  0  0  0
   -1.7361    0.2550    4.2092 C   0  0  1  0  0  0  0  0  0  0  0  0
   -1.7122    0.7444    5.5950 N   0  0  0  0  0  0  0  0  0  0  0  0
   -4.3163    3.4606    4.9247 C   0  0  2  0  0  0  0  0  0  0  0  0
   -5.7228    3.6084    4.9818 O   0  0  0  0  0  0  0  0  0  0  0  0
   -3.6567    3.4396    6.3027 C   0  0  2  0  0  0  0  0  0  0  0  0
   -4.4390    2.8101    7.2981 O   0  0  0  0  0  0  0  0  0  0  0  0
  2  1  1  0  0  0  0
  3  2  1  1  0  0  0
  3 30  1  0  0  0  0
  4  5  1  0  0  0  0
  4  3  1  0  0  0  0
  5 28  1  0  0  0  0
  5  6  1  6  0  0  0
  7  6  1  6  0  0  0
  8  7  1  0  0  0  0
  8  9  1  1  0  0  0
 10 11  1  6  0  0  0
 10  8  1  0  0  0  0
 12 10  1  0  0  0  0
 13 12  1  0  0  0  0
 13 15  1  0  0  0  0
 13 14  1  6  0  0  0
 15  7  1  0  0  0  0
 15 16  1  1  0  0  0
 17 16  1  1  0  0  0
 18 17  1  0  0  0  0
 19 20  1  6  0  0  0
 19 18  1  0  0  0  0
 20 21  1  0  0  0  0
 22 24  1  0  0  0  0
 22 19  1  0  0  0  0
 22 23  1  1  0  0  0
 24 25  1  1  0  0  0
 24 26  1  0  0  0  0
 26 17  1  0  0  0  0
 26 27  1  1  0  0  0
 28 29  1  1  0  0  0
 28 30  1  0  0  0  0
 30 31  1  1  0  0  0
M  END
>  <CHROM.1>
-167.97175002,73.94008935,0.82719351,-93.25286368,69.25548083,-50.95383111
70.12668718,89.39088941,62.85704716,90.15300206,55.31393197,-65.47775468
-60.76918408,74.29184683,70.61190773,-60.55515527,-1.44431141,2.95976509
3.74961336,2.17728894,0.87482982,0.05870945

>  <Name>
lig.pdb

>  <RI>
3.50357e+07

>  <Rbt.Current_Directory>
/home/itssahil/PROJECTS/Mol_Feturizer/New_Systems/rnas/2n0j

>  <Rbt.Executable>
rbdock ($Id: //depot/dev/client3/rdock/2013.1/src/exe/rbdock.cxx#4 $)

>  <Rbt.Library>
libRbt.so (2013.1, Build901 2013/11/27)

>  <Rbt.Parameter_File>
/export/apps/rDock/src/rDock_2013.1_src/data/scripts/dock_solv.prm

>  <Rbt.Receptor>
prm/pocket_docking_3.prm

>  <SCORE>
-41.4105

>  <SCORE.INTER>
-42.7691

>  <SCORE.INTER.CONST>
1

>  <SCORE.INTER.POLAR>
-5.40587

>  <SCORE.INTER.ROT>
6

>  <SCORE.INTER.SOLV>
14.6854

>  <SCORE.INTER.VDW>
-22.9883

>  <SCORE.INTER.norm>
-1.37965

>  <SCORE.INTRA>
0.984034

>  <SCORE.INTRA.DIHEDRAL>
-6.65493

>  <SCORE.INTRA.DIHEDRAL.0>
28.0161

>  <SCORE.INTRA.POLAR>
0.958718

>  <SCORE.INTRA.POLAR.0>
-1.05798

>  <SCORE.INTRA.REPUL>
0

>  <SCORE.INTRA.REPUL.0>
0

>  <SCORE.INTRA.SOLV>
-0.198759

>  <SCORE.INTRA.SOLV.lig_0>
-42.5945

>  <SCORE.INTRA.VDW>
1.15124

>  <SCORE.INTRA.VDW.0>
-5.13869

>  <SCORE.INTRA.norm>
0.031743

>  <SCORE.RESTR>
0.374555

>  <SCORE.RESTR.CAVITY>
0.374555

>  <SCORE.RESTR.norm>
0.0120824

>  <SCORE.SYSTEM>
0

>  <SCORE.SYSTEM.CONST>
0

>  <SCORE.SYSTEM.DIHEDRAL>
0

>  <SCORE.SYSTEM.SOLV>
0

>  <SCORE.SYSTEM.norm>
0

>  <SCORE.heavy>
31

>  <SCORE.norm>
-1.33582

>  <RMSD>
5.215

$$$$
lig.pdb
 OpenBabel11021811453D
libRbt.so/2013.1/901 2013/11/27
 31 33  0  0  0  0  0  0  0  0999 V2000
   -5.1006   -1.4484    4.0333 O   0  0  0  0  0  0  0  0  0  0  0  0
   -4.4322   -0.5257    4.8712 C   0  0  0  0  0  0  0  0  0  0  0  0
   -4.4673    0.8921    4.2850 C   0  0  1  0  0  0  0  0  0  0  0  0
   -3.8953    1.8429    5.1692 O   0  0  0  0  0  0  0  0  0  0  0  0
   -3.3987    2.9508    4.4245 C   0  0  1  0  0  0  0  0  0  0  0  0
   -2.0800    3.2685    4.8534 O   0  0  0  0  0  0  0  0  0  0  0  0
   -1.7421    4.6435    4.9428 C   0  0  2  0  0  0  0  0  0  0  0  0
   -2.8268    5.3380    5.7815 C   0  0  1  0  0  0  0  0  0  0  0  0
   -2.7302    4.9153    7.1326 O   0  0  0  0  0  0  0  0  0  0  0  0
   -2.7374    6.8717    5.7750 C   0  0  2  0  0  0  0  0  0  0  0  0
   -3.8595    7.4692    6.5152 N   0  0  0  0  0  0  0  0  0  0  0  0
   -2.7487    7.3811    4.3386 C   0  0  0  0  0  0  0  0  0  0  0  0
   -1.6135    6.7331    3.5554 C   0  0  2  0  0  0  0  0  0  0  0  0
   -1.6146    7.2817    2.1950 N   0  0  0  0  0  0  0  0  0  0  0  0
   -1.7699    5.1971    3.5542 C   0  0  1  0  0  0  0  0  0  0  0  0
   -0.6664    4.6998    2.7818 O   0  0  0  0  0  0  0  0  0  0  0  0
    0.5076    4.3240    3.4939 C   0  0  1  0  0  0  0  0  0  0  0  0
    0.6532    2.9065    3.5119 O   0  0  0  0  0  0  0  0  0  0  0  0
    0.9576    2.2882    2.2635 C   0  0  2  0  0  0  0  0  0  0  0  0
    1.0780    0.7732    2.4756 C   0  0  0  0  0  0  0  0  0  0  0  0
    0.9323    0.0414    1.2254 N   0  0  0  0  0  0  0  0  0  0  0  0
    2.2735    2.8405    1.6848 C   0  0  1  0  0  0  0  0  0  0  0  0
    2.5235    2.2549    0.4195 O   0  0  0  0  0  0  0  0  0  0  0  0
    2.1483    4.3623    1.5401 C   0  0  2  0  0  0  0  0  0  0  0  0
    3.3736    4.9111    1.0924 O   0  0  0  0  0  0  0  0  0  0  0  0
    1.7343    5.0012    2.8726 C   0  0  1  0  0  0  0  0  0  0  0  0
    1.4941    6.4398    2.6898 N   0  0  0  0  0  0  0  0  0  0  0  0
   -3.3694    2.5190    2.9511 C   0  0  2  0  0  0  0  0  0  0  0  0
   -4.3791    3.2009    2.2307 O   0  0  0  0  0  0  0  0  0  0  0  0
   -3.6026    1.0113    3.0340 C   0  0  2  0  0  0  0  0  0  0  0  0
   -4.1995    0.4637    1.8752 O   0  0  0  0  0  0  0  0  0  0  0  0
  2  1  1  0  0  0  0
  3  2  1  1  0  0  0
  3 30  1  0  0  0  0
  4  5  1  0  0  0  0
  4  3  1  0  0  0  0
  5 28  1  0  0  0  0
  5  6  1  1  0  0  0
  7  6  1  6  0  0  0
  8  7  1  0  0  0  0
  8  9  1  1  0  0  0
 10 11  1  1  0  0  0
 10  8  1  0  0  0  0
 12 10  1  0  0  0  0
 13 12  1  0  0  0  0
 13 15  1  0  0  0  0
 13 14  1  6  0  0  0
 15  7  1  0  0  0  0
 15 16  1  6  0  0  0
 17 16  1  6  0  0  0
 18 17  1  0  0  0  0
 19 20  1  1  0  0  0
 19 18  1  0  0  0  0
 20 21  1  0  0  0  0
 22 24  1  0  0  0  0
 22 19  1  0  0  0  0
 22 23  1  6  0  0  0
 24 25  1  1  0  0  0
 24 26  1  0  0  0  0
 26 17  1  0  0  0  0
 26 27  1  6  0  0  0
 28 29  1  6  0  0  0
 28 30  1  0  0  0  0
 30 31  1  6  0  0  0
M  END
>  <CHROM.1>
51.62378570,175.20892382,-140.85274706,51.51563815,63.44752098,-48.39970361
-158.61537355,-27.01592537,107.84757715,160.48806523,-61.61601259,-161.84996792
-66.46960653,49.80528627,165.27345916,-172.17323980,-1.40162052,3.56045046
3.43562725,-2.94665176,0.48764311,0.31868441

>  <Name>
lig.pdb

>  <RI>
3.50357e+07

>  <Rbt.Current_Directory>
/home/itssahil/PROJECTS/Mol_Feturizer/New_Systems/rnas/2n0j

>  <Rbt.Executable>
rbdock ($Id: //depot/dev/client3/rdock/2013.1/src/exe/rbdock.cxx#4 $)

>  <Rbt.Library>
libRbt.so (2013.1, Build901 2013/11/27)

>  <Rbt.Parameter_File>
/export/apps/rDock/src/rDock_2013.1_src/data/scripts/dock_solv.prm

>  <Rbt.Receptor>
prm/pocket_docking_3.prm

>  <SCORE>
-41.9258

>  <SCORE.INTER>
-44.5436

>  <SCORE.INTER.CONST>
1

>  <SCORE.INTER.POLAR>
-5.36276

>  <SCORE.INTER.ROT>
6

>  <SCORE.INTER.SOLV>
17.4133

>  <SCORE.INTER.VDW>
-25.2243

>  <SCORE.INTER.norm>
-1.43689

>  <SCORE.INTRA>
2.40958

>  <SCORE.INTRA.DIHEDRAL>
-5.10058

>  <SCORE.INTRA.DIHEDRAL.0>
28.0161

>  <SCORE.INTRA.POLAR>
0.141649

>  <SCORE.INTRA.POLAR.0>
-1.05798

>  <SCORE.INTRA.REPUL>
0

>  <SCORE.INTRA.REPUL.0>
0

>  <SCORE.INTRA.SOLV>
1.11447

>  <SCORE.INTRA.SOLV.lig_0>
-42.5945

>  <SCORE.INTRA.VDW>
3.92103

>  <SCORE.INTRA.VDW.0>
-5.13869

>  <SCORE.INTRA.norm>
0.0777285

>  <SCORE.RESTR>
0.208161

>  <SCORE.RESTR.CAVITY>
0.208161

>  <SCORE.RESTR.norm>
0.00671487

>  <SCORE.SYSTEM>
0

>  <SCORE.SYSTEM.CONST>
0

>  <SCORE.SYSTEM.DIHEDRAL>
0

>  <SCORE.SYSTEM.SOLV>
0

>  <SCORE.SYSTEM.norm>
0

>  <SCORE.heavy>
31

>  <SCORE.norm>
-1.35245

>  <RMSD>
5.217

$$$$
lig.pdb
 OpenBabel11021811453D
libRbt.so/2013.1/901 2013/11/27
 31 33  0  0  0  0  0  0  0  0999 V2000
   -3.8231   -1.9285    3.5459 O   0  0  0  0  0  0  0  0  0  0  0  0
   -4.3528   -1.3246    2.3820 C   0  0  0  0  0  0  0  0  0  0  0  0
   -3.3709   -0.3109    1.7792 C   0  0  1  0  0  0  0  0  0  0  0  0
   -3.0288    0.7074    2.7061 O   0  0  0  0  0  0  0  0  0  0  0  0
   -1.7462    1.2366    2.3839 C   0  0  1  0  0  0  0  0  0  0  0  0
   -0.9454    1.3092    3.5575 O   0  0  0  0  0  0  0  0  0  0  0  0
   -1.1399    2.4300    4.4054 C   0  0  2  0  0  0  0  0  0  0  0  0
   -2.6224    2.4587    4.8098 C   0  0  1  0  0  0  0  0  0  0  0  0
   -2.9024    1.3717    5.6778 O   0  0  0  0  0  0  0  0  0  0  0  0
   -3.0491    3.7442    5.5348 C   0  0  2  0  0  0  0  0  0  0  0  0
   -4.4954    3.7436    5.8039 N   0  0  0  0  0  0  0  0  0  0  0  0
   -2.6920    4.9571    4.6838 C   0  0  0  0  0  0  0  0  0  0  0  0
   -1.2017    4.9404    4.3665 C   0  0  2  0  0  0  0  0  0  0  0  0
   -0.8770    6.1448    3.5947 N   0  0  0  0  0  0  0  0  0  0  0  0
   -0.8295    3.6519    3.6017 C   0  0  1  0  0  0  0  0  0  0  0  0
    0.5795    3.7520    3.3443 O   0  0  0  0  0  0  0  0  0  0  0  0
    0.9989    3.6699    1.9864 C   0  0  1  0  0  0  0  0  0  0  0  0
    1.0324    4.9641    1.3908 O   0  0  0  0  0  0  0  0  0  0  0  0
    2.0404    5.8522    1.8689 C   0  0  2  0  0  0  0  0  0  0  0  0
    1.9250    7.1854    1.1179 C   0  0  0  0  0  0  0  0  0  0  0  0
    0.6977    7.8907    1.4587 N   0  0  0  0  0  0  0  0  0  0  0  0
    3.4434    5.2536    1.6571 C   0  0  1  0  0  0  0  0  0  0  0  0
    4.4225    6.1264    2.1920 O   0  0  0  0  0  0  0  0  0  0  0  0
    3.5121    3.8951    2.3658 C   0  0  2  0  0  0  0  0  0  0  0  0
    4.7614    3.2786    2.1163 O   0  0  0  0  0  0  0  0  0  0  0  0
    2.3672    2.9839    1.9032 C   0  0  1  0  0  0  0  0  0  0  0  0
    2.3688    1.7366    2.6808 N   0  0  0  0  0  0  0  0  0  0  0  0
   -1.1033    0.2657    1.3829 C   0  0  2  0  0  0  0  0  0  0  0  0
   -1.0549    0.8612    0.0997 O   0  0  0  0  0  0  0  0  0  0  0  0
   -2.0262   -0.9503    1.4479 C   0  0  2  0  0  0  0  0  0  0  0  0
   -2.0383   -1.7190    0.2613 O   0  0  0  0  0  0  0  0  0  0  0  0
  2  1  1  0  0  0  0
  3  2  1  1  0  0  0
  3 30  1  0  0  0  0
  4  5  1  0  0  0  0
  4  3  1  0  0  0  0
  5 28  1  0  0  0  0
  5  6  1  1  0  0  0
  7  6  1  6  0  0  0
  8  7  1  0  0  0  0
  8  9  1  1  0  0  0
 10 11  1  6  0  0  0
 10  8  1  0  0  0  0
 12 10  1  0  0  0  0
 13 12  1  0  0  0  0
 13 15  1  0  0  0  0
 13 14  1  6  0  0  0
 15  7  1  0  0  0  0
 15 16  1  1  0  0  0
 17 16  1  1  0  0  0
 18 17  1  0  0  0  0
 19 20  1  6  0  0  0
 19 18  1  0  0  0  0
 20 21  1  0  0  0  0
 22 24  1  0  0  0  0
 22 19  1  0  0  0  0
 22 23  1  1  0  0  0
 24 25  1  6  0  0  0
 24 26  1  0  0  0  0
 26 17  1  0  0  0  0
 26 27  1  1  0  0  0
 28 29  1  6  0  0  0
 28 30  1  0  0  0  0
 30 31  1  6  0  0  0
M  END
>  <CHROM.1>
-61.58978566,-58.03436450,-81.76410543,56.83390920,60.93677484,58.98788295
-155.79128664,115.96166400,90.01508591,67.56407467,165.28576107,64.62009462
-61.20084868,-67.15227729,179.08224777,-61.37600092,-0.48366523,2.83456751
2.77472629,-2.51354973,0.50202006,0.41876838

>  <Name>
lig.pdb

>  <RI>
2.67765e+07

>  <Rbt.Current_Directory>
/home/itssahil/PROJECTS/Mol_Feturizer/New_Systems/rnas/2n0j

>  <Rbt.Executable>
rbdock ($Id: //depot/dev/client3/rdock/2013.1/src/exe/rbdock.cxx#4 $)

>  <Rbt.Library>
libRbt.so (2013.1, Build901 2013/11/27)

>  <Rbt.Parameter_File>
/export/apps/rDock/src/rDock_2013.1_src/data/scripts/dock_solv.prm

>  <Rbt.Receptor>
prm/pocket_docking_2.prm

>  <SCORE>
-30.3628

>  <SCORE.INTER>
-31.0422

>  <SCORE.INTER.CONST>
1

>  <SCORE.INTER.POLAR>
-3.51821

>  <SCORE.INTER.ROT>
6

>  <SCORE.INTER.SOLV>
11.8454

>  <SCORE.INTER.VDW>
-20.5159

>  <SCORE.INTER.norm>
-1.00136

>  <SCORE.INTRA>
-0.195775

>  <SCORE.INTRA.DIHEDRAL>
-12.5162

>  <SCORE.INTRA.DIHEDRAL.0>
28.0161

>  <SCORE.INTRA.POLAR>
0.964463

>  <SCORE.INTRA.POLAR.0>
-1.05798

>  <SCORE.INTRA.REPUL>
0

>  <SCORE.INTRA.REPUL.0>
0

>  <SCORE.INTRA.SOLV>
1.12403

>  <SCORE.INTRA.SOLV.lig_0>
-42.5945

>  <SCORE.INTRA.VDW>
2.22115

>  <SCORE.INTRA.VDW.0>
-5.13869

>  <SCORE.INTRA.norm>
-0.00631531

>  <SCORE.RESTR>
0.875149

>  <SCORE.RESTR.CAVITY>
0.875149

>  <SCORE.RESTR.norm>
0.0282306

>  <SCORE.SYSTEM>
0

>  <SCORE.SYSTEM.CONST>
0

>  <SCORE.SYSTEM.DIHEDRAL>
0

>  <SCORE.SYSTEM.SOLV>
0

>  <SCORE.SYSTEM.norm>
0

>  <SCORE.heavy>
31

>  <SCORE.norm>
-0.979446

>  <RMSD>
5.220

$$$$
lig.pdb
 OpenBabel11021811453D
libRbt.so/2013.1/901 2013/11/27
 31 33  0  0  0  0  0  0  0  0999 V2000
   -5.9664    0.0137    8.1825 O   0  0  0  0  0  0  0  0  0  0  0  0
   -5.3202    1.2659    8.0615 C   0  0  0  0  0  0  0  0  0  0  0  0
   -5.0652    1.6259    6.5916 C   0  0  1  0  0  0  0  0  0  0  0  0
   -4.2171    2.7562    6.4647 O   0  0  0  0  0  0  0  0  0  0  0  0
   -3.5328    2.7034    5.2166 C   0  0  1  0  0  0  0  0  0  0  0  0
   -2.1469    2.9558    5.4150 O   0  0  0  0  0  0  0  0  0  0  0  0
   -1.6260    4.1628    4.8814 C   0  0  2  0  0  0  0  0  0  0  0  0
   -2.4678    5.3219    5.4381 C   0  0  1  0  0  0  0  0  0  0  0  0
   -2.2154    5.4723    6.8263 O   0  0  0  0  0  0  0  0  0  0  0  0
   -2.1850    6.6774    4.7728 C   0  0  2  0  0  0  0  0  0  0  0  0
   -3.0913    7.7167    5.2853 N   0  0  0  0  0  0  0  0  0  0  0  0
   -2.3560    6.5547    3.2632 C   0  0  0  0  0  0  0  0  0  0  0  0
   -1.4501    5.4505    2.7323 C   0  0  2  0  0  0  0  0  0  0  0  0
   -1.5943    5.3918    1.2737 N   0  0  0  0  0  0  0  0  0  0  0  0
   -1.8000    4.1019    3.3977 C   0  0  1  0  0  0  0  0  0  0  0  0
   -0.9042    3.1429    2.8152 O   0  0  0  0  0  0  0  0  0  0  0  0
   -0.1513    2.3307    3.7097 C   0  0  1  0  0  0  0  0  0  0  0  0
   -0.6697    1.0037    3.7421 O   0  0  0  0  0  0  0  0  0  0  0  0
   -0.4948    0.2296    2.5574 C   0  0  2  0  0  0  0  0  0  0  0  0
   -1.1088   -1.1596    2.7763 C   0  0  0  0  0  0  0  0  0  0  0  0
   -0.8552   -1.6543    4.1219 N   0  0  0  0  0  0  0  0  0  0  0  0
    0.9988    0.0910    2.2088 C   0  0  1  0  0  0  0  0  0  0  0  0
    1.1434   -0.6308    0.9986 O   0  0  0  0  0  0  0  0  0  0  0  0
    1.6016    1.4930    2.0555 C   0  0  2  0  0  0  0  0  0  0  0  0
    2.9942    1.4010    1.8210 O   0  0  0  0  0  0  0  0  0  0  0  0
    1.3271    2.3405    3.3051 C   0  0  1  0  0  0  0  0  0  0  0  0
    1.7968    3.7173    3.0946 N   0  0  0  0  0  0  0  0  0  0  0  0
   -3.7222    1.2827    4.6654 C   0  0  2  0  0  0  0  0  0  0  0  0
   -4.5957    1.3121    3.5519 O   0  0  0  0  0  0  0  0  0  0  0  0
   -4.2979    0.5275    5.8624 C   0  0  2  0  0  0  0  0  0  0  0  0
   -5.0965   -0.5828    5.5037 O   0  0  0  0  0  0  0  0  0  0  0  0
  2  1  1  0  0  0  0
  3  2  1  1  0  0  0
  3 30  1  0  0  0  0
  4  5  1  0  0  0  0
  4  3  1  0  0  0  0
  5 28  1  0  0  0  0
  5  6  1  1  0  0  0
  7  6  1  1  0  0  0
  8  7  1  0  0  0  0
  8  9  1  1  0  0  0
 10 11  1  1  0  0  0
 10  8  1  0  0  0  0
 12 10  1  0  0  0  0
 13 12  1  0  0  0  0
 13 15  1  0  0  0  0
 13 14  1  6  0  0  0
 15  7  1  0  0  0  0
 15 16  1  6  0  0  0
 17 16  1  6  0  0  0
 18 17  1  0  0  0  0
 19 20  1  1  0  0  0
 19 18  1  0  0  0  0
 20 21  1  0  0  0  0
 22 24  1  0  0  0  0
 22 19  1  0  0  0  0
 22 23  1  6  0  0  0
 24 25  1  1  0  0  0
 24 26  1  0  0  0  0
 26 17  1  0  0  0  0
 26 27  1  6  0  0  0
 28 29  1  6  0  0  0
 28 30  1  0  0  0  0
 30 31  1  6  0  0  0
M  END
>  <CHROM.1>
-56.60574501,-169.73097908,-112.44889489,54.84860855,-171.30734450,-166.07485271
-46.51367370,7.13256630,105.65846832,-39.14448718,-100.41405595,-71.28806783
-54.92801090,-73.61523557,-178.22101882,-74.30142976,-1.84756605,2.45701836
4.21621335,2.98289874,0.64871304,0.02144823

>  <Name>
lig.pdb

>  <RI>
3.50357e+07

>  <Rbt.Current_Directory>
/home/itssahil/PROJECTS/Mol_Feturizer/New_Systems/rnas/2n0j

>  <Rbt.Executable>
rbdock ($Id: //depot/dev/client3/rdock/2013.1/src/exe/rbdock.cxx#4 $)

>  <Rbt.Library>
libRbt.so (2013.1, Build901 2013/11/27)

>  <Rbt.Parameter_File>
/export/apps/rDock/src/rDock_2013.1_src/data/scripts/dock_solv.prm

>  <Rbt.Receptor>
prm/pocket_docking_3.prm

>  <SCORE>
-30.4444

>  <SCORE.INTER>
-38.686

>  <SCORE.INTER.CONST>
1

>  <SCORE.INTER.POLAR>
-5.34161

>  <SCORE.INTER.ROT>
6

>  <SCORE.INTER.SOLV>
17.6512

>  <SCORE.INTER.VDW>
-21.469

>  <SCORE.INTER.norm>
-1.24794

>  <SCORE.INTRA>
8.22603

>  <SCORE.INTRA.DIHEDRAL>
0.504826

>  <SCORE.INTRA.DIHEDRAL.0>
28.0161

>  <SCORE.INTRA.POLAR>
0.660848

>  <SCORE.INTRA.POLAR.0>
-1.05798

>  <SCORE.INTRA.REPUL>
0

>  <SCORE.INTRA.REPUL.0>
0

>  <SCORE.INTRA.SOLV>
0.722266

>  <SCORE.INTRA.SOLV.lig_0>
-42.5945

>  <SCORE.INTRA.VDW>
5.3656

>  <SCORE.INTRA.VDW.0>
-5.13869

>  <SCORE.INTRA.norm>
0.265356

>  <SCORE.RESTR>
0.0156074

>  <SCORE.RESTR.CAVITY>
0.0156074

>  <SCORE.RESTR.norm>
0.000503464

>  <SCORE.SYSTEM>
0

>  <SCORE.SYSTEM.CONST>
0

>  <SCORE.SYSTEM.DIHEDRAL>
0

>  <SCORE.SYSTEM.SOLV>
0

>  <SCORE.SYSTEM.norm>
0

>  <SCORE.heavy>
31

>  <SCORE.norm>
-0.982077

>  <RMSD>
5.226

$$$$
lig.pdb
 OpenBabel11021811453D
libRbt.so/2013.1/901 2013/11/27
 31 33  0  0  0  0  0  0  0  0999 V2000
   -0.8397   -0.9025    2.8772 O   0  0  0  0  0  0  0  0  0  0  0  0
   -2.2167   -1.0562    3.1607 C   0  0  0  0  0  0  0  0  0  0  0  0
   -2.9096    0.3025    3.3306 C   0  0  1  0  0  0  0  0  0  0  0  0
   -2.4240    1.0043    4.4640 O   0  0  0  0  0  0  0  0  0  0  0  0
   -2.5973    2.4048    4.2702 C   0  0  1  0  0  0  0  0  0  0  0  0
   -1.3941    3.0898    4.5971 O   0  0  0  0  0  0  0  0  0  0  0  0
   -1.5204    4.3601    5.2163 C   0  0  2  0  0  0  0  0  0  0  0  0
   -2.4587    4.2008    6.4231 C   0  0  1  0  0  0  0  0  0  0  0  0
   -1.8158    3.4366    7.4311 O   0  0  0  0  0  0  0  0  0  0  0  0
   -2.8887    5.5302    7.0619 C   0  0  2  0  0  0  0  0  0  0  0  0
   -3.8587    5.3063    8.1450 N   0  0  0  0  0  0  0  0  0  0  0  0
   -3.5105    6.4323    6.0024 C   0  0  0  0  0  0  0  0  0  0  0  0
   -2.5253    6.6336    4.8575 C   0  0  2  0  0  0  0  0  0  0  0  0
   -3.1276    7.5476    3.8810 N   0  0  0  0  0  0  0  0  0  0  0  0
   -2.1567    5.2762    4.2208 C   0  0  1  0  0  0  0  0  0  0  0  0
   -1.2464    5.5871    3.1549 O   0  0  0  0  0  0  0  0  0  0  0  0
    0.1196    5.7835    3.5042 C   0  0  1  0  0  0  0  0  0  0  0  0
    0.7517    4.5374    3.7839 O   0  0  0  0  0  0  0  0  0  0  0  0
    0.9423    3.6638    2.6731 C   0  0  2  0  0  0  0  0  0  0  0  0
    1.6326    2.3831    3.1607 C   0  0  0  0  0  0  0  0  0  0  0  0
    0.7117    1.5163    3.8821 N   0  0  0  0  0  0  0  0  0  0  0  0
    1.8004    4.3380    1.5865 C   0  0  1  0  0  0  0  0  0  0  0  0
    1.9262    3.4743    0.4709 O   0  0  0  0  0  0  0  0  0  0  0  0
    1.1196    5.6448    1.1607 C   0  0  2  0  0  0  0  0  0  0  0  0
    1.9286    6.3326    0.2251 O   0  0  0  0  0  0  0  0  0  0  0  0
    0.8430    6.5342    2.3804 C   0  0  1  0  0  0  0  0  0  0  0  0
    0.0780    7.7224    1.9759 N   0  0  0  0  0  0  0  0  0  0  0  0
   -2.9180    2.6115    2.7828 C   0  0  2  0  0  0  0  0  0  0  0  0
   -4.2743    2.9872    2.6317 O   0  0  0  0  0  0  0  0  0  0  0  0
   -2.5998    1.2470    2.1735 C   0  0  2  0  0  0  0  0  0  0  0  0
   -3.3314    0.9649    0.9970 O   0  0  0  0  0  0  0  0  0  0  0  0
  2  1  1  0  0  0  0
  3  2  1  6  0  0  0
  3 30  1  0  0  0  0
  4  5  1  0  0  0  0
  4  3  1  0  0  0  0
  5 28  1  0  0  0  0
  5  6  1  6  0  0  0
  7  6  1  6  0  0  0
  8  7  1  0  0  0  0
  8  9  1  1  0  0  0
 10 11  1  1  0  0  0
 10  8  1  0  0  0  0
 12 10  1  0  0  0  0
 13 12  1  0  0  0  0
 13 15  1  0  0  0  0
 13 14  1  6  0  0  0
 15  7  1  0  0  0  0
 15 16  1  6  0  0  0
 17 16  1  6  0  0  0
 18 17  1  0  0  0  0
 19 20  1  1  0  0  0
 19 18  1  0  0  0  0
 20 21  1  0  0  0  0
 22 24  1  0  0  0  0
 22 19  1  0  0  0  0
 22 23  1  6  0  0  0
 24 25  1  6  0  0  0
 24 26  1  0  0  0  0
 26 17  1  0  0  0  0
 26 27  1  6  0  0  0
 28 29  1  1  0  0  0
 28 30  1  0  0  0  0
 30 31  1  6  0  0  0
M  END
>  <CHROM.1>
-65.73140262,-65.16841072,-143.96857037,51.76589659,41.57086958,66.61785350
-134.88919219,-38.54295917,75.03960382,75.13369244,-25.54504610,-52.74858354
47.89031027,157.67331701,-177.71842965,65.60784388,-1.25144689,3.82078637
3.60508883,-2.63118611,0.79667607,0.29409051

>  <Name>
lig.pdb

>  <RI>
0

>  <Rbt.Current_Directory>
/home/itssahil/PROJECTS/Mol_Feturizer/New_Systems/rnas/2n0j

>  <Rbt.Executable>
rbdock ($Id: //depot/dev/client3/rdock/2013.1/src/exe/rbdock.cxx#4 $)

>  <Rbt.Library>
libRbt.so (2013.1, Build901 2013/11/27)

>  <Rbt.Parameter_File>
/export/apps/rDock/src/rDock_2013.1_src/data/scripts/dock_solv.prm

>  <Rbt.Receptor>
prm/pocket_docking_5.prm

>  <SCORE>
-33.7556

>  <SCORE.INTER>
-32.3963

>  <SCORE.INTER.CONST>
1

>  <SCORE.INTER.POLAR>
-3.87286

>  <SCORE.INTER.ROT>
6

>  <SCORE.INTER.SOLV>
16.0536

>  <SCORE.INTER.VDW>
-21.6392

>  <SCORE.INTER.norm>
-1.04504

>  <SCORE.INTRA>
-1.35931

>  <SCORE.INTRA.DIHEDRAL>
-9.34216

>  <SCORE.INTRA.DIHEDRAL.0>
28.0161

>  <SCORE.INTRA.POLAR>
-0.847853

>  <SCORE.INTRA.POLAR.0>
-1.05798

>  <SCORE.INTRA.REPUL>
0

>  <SCORE.INTRA.REPUL.0>
0

>  <SCORE.INTRA.SOLV>
2.56777

>  <SCORE.INTRA.SOLV.lig_0>
-42.5945

>  <SCORE.INTRA.VDW>
4.91059

>  <SCORE.INTRA.VDW.0>
-5.13869

>  <SCORE.INTRA.norm>
-0.0438486

>  <SCORE.RESTR>
0

>  <SCORE.RESTR.CAVITY>
0

>  <SCORE.RESTR.norm>
0

>  <SCORE.SYSTEM>
0

>  <SCORE.SYSTEM.CONST>
0

>  <SCORE.SYSTEM.DIHEDRAL>
0

>  <SCORE.SYSTEM.SOLV>
0

>  <SCORE.SYSTEM.norm>
0

>  <SCORE.heavy>
31

>  <SCORE.norm>
-1.08889

>  <RMSD>
5.232

$$$$
lig.pdb
 OpenBabel11021811453D
libRbt.so/2013.1/901 2013/11/27
 31 33  0  0  0  0  0  0  0  0999 V2000
   -1.8614   -2.7750    3.4805 O   0  0  0  0  0  0  0  0  0  0  0  0
   -1.3998   -1.8105    2.5549 C   0  0  0  0  0  0  0  0  0  0  0  0
   -2.1831   -0.4963    2.6763 C   0  0  1  0  0  0  0  0  0  0  0  0
   -2.1775    0.0001    4.0054 O   0  0  0  0  0  0  0  0  0  0  0  0
   -2.3485    1.4141    3.9888 C   0  0  1  0  0  0  0  0  0  0  0  0
   -1.3838    2.0269    4.8360 O   0  0  0  0  0  0  0  0  0  0  0  0
   -1.6294    3.3665    5.2335 C   0  0  2  0  0  0  0  0  0  0  0  0
   -3.0733    3.4423    5.7548 C   0  0  1  0  0  0  0  0  0  0  0  0
   -3.1756    2.7397    6.9833 O   0  0  0  0  0  0  0  0  0  0  0  0
   -3.5751    4.8729    6.0033 C   0  0  2  0  0  0  0  0  0  0  0  0
   -4.9900    4.8737    6.4062 N   0  0  0  0  0  0  0  0  0  0  0  0
   -3.4079    5.7037    4.7365 C   0  0  0  0  0  0  0  0  0  0  0  0
   -1.9512    5.6719    4.2906 C   0  0  2  0  0  0  0  0  0  0  0  0
   -1.8094    6.5222    3.1038 N   0  0  0  0  0  0  0  0  0  0  0  0
   -1.5059    4.2200    4.0122 C   0  0  1  0  0  0  0  0  0  0  0  0
   -0.1374    4.3132    3.5879 O   0  0  0  0  0  0  0  0  0  0  0  0
    0.1511    3.9503    2.2419 C   0  0  1  0  0  0  0  0  0  0  0  0
    0.3883    5.1096    1.4480 O   0  0  0  0  0  0  0  0  0  0  0  0
    1.5835    5.8340    1.7313 C   0  0  2  0  0  0  0  0  0  0  0  0
    1.6707    7.0387    0.7849 C   0  0  0  0  0  0  0  0  0  0  0  0
    3.0511    7.4283    0.5351 N   0  0  0  0  0  0  0  0  0  0  0  0
    2.8231    4.9380    1.5512 C   0  0  1  0  0  0  0  0  0  0  0  0
    3.9913    5.6618    1.8944 O   0  0  0  0  0  0  0  0  0  0  0  0
    2.6821    3.7122    2.4621 C   0  0  2  0  0  0  0  0  0  0  0  0
    3.7648    2.8247    2.2549 O   0  0  0  0  0  0  0  0  0  0  0  0
    1.3498    2.9956    2.2041 C   0  0  1  0  0  0  0  0  0  0  0  0
    1.1700    1.9010    3.1686 N   0  0  0  0  0  0  0  0  0  0  0  0
   -2.1244    1.8721    2.5403 C   0  0  2  0  0  0  0  0  0  0  0  0
   -3.3547    2.2757    1.9685 O   0  0  0  0  0  0  0  0  0  0  0  0
   -1.5320    0.6290    1.8784 C   0  0  2  0  0  0  0  0  0  0  0  0
   -1.7749    0.5548    0.4875 O   0  0  0  0  0  0  0  0  0  0  0  0
  2  1  1  0  0  0  0
  3  2  1  1  0  0  0
  3 30  1  0  0  0  0
  4  5  1  0  0  0  0
  4  3  1  0  0  0  0
  5 28  1  0  0  0  0
  5  6  1  1  0  0  0
  7  6  1  6  0  0  0
  8  7  1  0  0  0  0
  8  9  1  1  0  0  0
 10 11  1  6  0  0  0
 10  8  1  0  0  0  0
 12 10  1  0  0  0  0
 13 12  1  0  0  0  0
 13 15  1  0  0  0  0
 13 14  1  6  0  0  0
 15  7  1  0  0  0  0
 15 16  1  1  0  0  0
 17 16  1  1  0  0  0
 18 17  1  0  0  0  0
 19 20  1  6  0  0  0
 19 18  1  0  0  0  0
 20 21  1  0  0  0  0
 22 24  1  0  0  0  0
 22 19  1  0  0  0  0
 22 23  1  1  0  0  0
 24 25  1  6  0  0  0
 24 26  1  0  0  0  0
 26 17  1  0  0  0  0
 26 27  1  1  0  0  0
 28 29  1  6  0  0  0
 28 30  1  0  0  0  0
 30 31  1  6  0  0  0
M  END
>  <CHROM.1>
-163.93360806,53.89404363,-162.88979149,49.32003953,58.70148095,89.83945969
-39.12644709,125.32796609,104.96626347,-152.08470695,-159.87148444,-179.56294747
60.58691344,120.21214121,-178.08540705,-62.05148871,-0.71113289,3.23845251
3.17637612,-2.58189841,0.58427149,0.18689917

>  <Name>
lig.pdb

>  <RI>
2.67765e+07

>  <Rbt.Current_Directory>
/home/itssahil/PROJECTS/Mol_Feturizer/New_Systems/rnas/2n0j

>  <Rbt.Executable>
rbdock ($Id: //depot/dev/client3/rdock/2013.1/src/exe/rbdock.cxx#4 $)

>  <Rbt.Library>
libRbt.so (2013.1, Build901 2013/11/27)

>  <Rbt.Parameter_File>
/export/apps/rDock/src/rDock_2013.1_src/data/scripts/dock_solv.prm

>  <Rbt.Receptor>
prm/pocket_docking_2.prm

>  <SCORE>
-28.2649

>  <SCORE.INTER>
-33.1333

>  <SCORE.INTER.CONST>
1

>  <SCORE.INTER.POLAR>
-4.18305

>  <SCORE.INTER.ROT>
6

>  <SCORE.INTER.SOLV>
13.1006

>  <SCORE.INTER.VDW>
-20.1122

>  <SCORE.INTER.norm>
-1.06881

>  <SCORE.INTRA>
2.79278

>  <SCORE.INTRA.DIHEDRAL>
-1.65623

>  <SCORE.INTRA.DIHEDRAL.0>
28.0161

>  <SCORE.INTRA.POLAR>
-0.735078

>  <SCORE.INTRA.POLAR.0>
-1.05798

>  <SCORE.INTRA.REPUL>
0

>  <SCORE.INTRA.REPUL.0>
0

>  <SCORE.INTRA.SOLV>
1.97744

>  <SCORE.INTRA.SOLV.lig_0>
-42.5945

>  <SCORE.INTRA.VDW>
5.13144

>  <SCORE.INTRA.VDW.0>
-5.13869

>  <SCORE.INTRA.norm>
0.0900897

>  <SCORE.RESTR>
2.07554

>  <SCORE.RESTR.CAVITY>
2.07554

>  <SCORE.RESTR.norm>
0.066953

>  <SCORE.SYSTEM>
0

>  <SCORE.SYSTEM.CONST>
0

>  <SCORE.SYSTEM.DIHEDRAL>
0

>  <SCORE.SYSTEM.SOLV>
0

>  <SCORE.SYSTEM.norm>
0

>  <SCORE.heavy>
31

>  <SCORE.norm>
-0.911772

>  <RMSD>
5.237

$$$$
lig.pdb
 OpenBabel11021811453D
libRbt.so/2013.1/901 2013/11/27
 31 33  0  0  0  0  0  0  0  0999 V2000
   -6.8530   -0.0459   -0.0279 O   0  0  0  0  0  0  0  0  0  0  0  0
   -5.9066    0.8615    0.5024 C   0  0  0  0  0  0  0  0  0  0  0  0
   -4.4724    0.3465    0.3206 C   0  0  1  0  0  0  0  0  0  0  0  0
   -3.5251    1.1862    0.9612 O   0  0  0  0  0  0  0  0  0  0  0  0
   -2.3663    0.4300    1.2989 C   0  0  1  0  0  0  0  0  0  0  0  0
   -1.9949    0.6921    2.6470 O   0  0  0  0  0  0  0  0  0  0  0  0
   -2.1661    2.0189    3.1192 C   0  0  2  0  0  0  0  0  0  0  0  0
   -3.6624    2.2244    3.4040 C   0  0  1  0  0  0  0  0  0  0  0  0
   -4.0451    1.4516    4.5308 O   0  0  0  0  0  0  0  0  0  0  0  0
   -4.0499    3.6819    3.6966 C   0  0  2  0  0  0  0  0  0  0  0  0
   -5.5052    3.8183    3.8630 N   0  0  0  0  0  0  0  0  0  0  0  0
   -3.5839    4.5770    2.5543 C   0  0  0  0  0  0  0  0  0  0  0  0
   -2.0834    4.4082    2.3496 C   0  0  2  0  0  0  0  0  0  0  0  0
   -1.6540    5.3197    1.2836 N   0  0  0  0  0  0  0  0  0  0  0  0
   -1.7484    2.9383    2.0166 C   0  0  1  0  0  0  0  0  0  0  0  0
   -0.3253    2.9019    1.8301 O   0  0  0  0  0  0  0  0  0  0  0  0
    0.4856    3.2101    2.9589 C   0  0  1  0  0  0  0  0  0  0  0  0
    0.7040    2.0479    3.7540 O   0  0  0  0  0  0  0  0  0  0  0  0
    1.5239    1.0340    3.1767 C   0  0  2  0  0  0  0  0  0  0  0  0
    1.6477   -0.1299    4.1690 C   0  0  0  0  0  0  0  0  0  0  0  0
    2.1308   -1.3408    3.5209 N   0  0  0  0  0  0  0  0  0  0  0  0
    2.9223    1.5851    2.8414 C   0  0  1  0  0  0  0  0  0  0  0  0
    3.6972    0.5773    2.2166 O   0  0  0  0  0  0  0  0  0  0  0  0
    2.7666    2.7840    1.8976 C   0  0  2  0  0  0  0  0  0  0  0  0
    4.0299    3.3679    1.6400 O   0  0  0  0  0  0  0  0  0  0  0  0
    1.8115    3.8251    2.4969 C   0  0  1  0  0  0  0  0  0  0  0  0
    1.5715    4.9059    1.5301 N   0  0  0  0  0  0  0  0  0  0  0  0
   -2.7427   -1.0512    1.1487 C   0  0  2  0  0  0  0  0  0  0  0  0
   -2.0898   -1.6004    0.0193 O   0  0  0  0  0  0  0  0  0  0  0  0
   -4.2626   -1.0026    1.0010 C   0  0  2  0  0  0  0  0  0  0  0  0
   -4.7990   -2.0937    0.2793 O   0  0  0  0  0  0  0  0  0  0  0  0
  2  1  1  0  0  0  0
  3  2  1  1  0  0  0
  3 30  1  0  0  0  0
  4  5  1  0  0  0  0
  4  3  1  0  0  0  0
  5 28  1  0  0  0  0
  5  6  1  1  0  0  0
  7  6  1  6  0  0  0
  8  7  1  0  0  0  0
  8  9  1  1  0  0  0
 10 11  1  6  0  0  0
 10  8  1  0  0  0  0
 12 10  1  0  0  0  0
 13 12  1  0  0  0  0
 13 15  1  0  0  0  0
 13 14  1  6  0  0  0
 15  7  1  0  0  0  0
 15 16  1  1  0  0  0
 17 16  1  6  0  0  0
 18 17  1  0  0  0  0
 19 20  1  1  0  0  0
 19 18  1  0  0  0  0
 20 21  1  0  0  0  0
 22 24  1  0  0  0  0
 22 19  1  0  0  0  0
 22 23  1  6  0  0  0
 24 25  1  1  0  0  0
 24 26  1  0  0  0  0
 26 17  1  0  0  0  0
 26 27  1  6  0  0  0
 28 29  1  6  0  0  0
 28 30  1  0  0  0  0
 30 31  1  6  0  0  0
M  END
>  <CHROM.1>
-65.43399245,-174.38928243,-36.76384037,76.85641154,-60.62550683,179.57383165
-73.43901265,-56.78034048,85.79719613,163.44066963,43.91509353,-162.53041529
-54.99095931,-174.54872337,-57.17063159,-176.60846690,-1.43113565,1.68417193
2.13762445,-2.89480793,-0.10957244,0.22660502

>  <Name>
lig.pdb

>  <RI>
3.32461e+07

>  <Rbt.Current_Directory>
/home/itssahil/PROJECTS/Mol_Feturizer/New_Systems/rnas/2n0j

>  <Rbt.Executable>
rbdock ($Id: //depot/dev/client3/rdock/2013.1/src/exe/rbdock.cxx#4 $)

>  <Rbt.Library>
libRbt.so (2013.1, Build901 2013/11/27)

>  <Rbt.Parameter_File>
/export/apps/rDock/src/rDock_2013.1_src/data/scripts/dock_solv.prm

>  <Rbt.Receptor>
prm/pocket_docking_7.prm

>  <SCORE>
-37.0567

>  <SCORE.INTER>
-36.2595

>  <SCORE.INTER.CONST>
1

>  <SCORE.INTER.POLAR>
-4.48921

>  <SCORE.INTER.ROT>
6

>  <SCORE.INTER.SOLV>
16.0565

>  <SCORE.INTER.VDW>
-22.1612

>  <SCORE.INTER.norm>
-1.16966

>  <SCORE.INTRA>
-0.797155

>  <SCORE.INTRA.DIHEDRAL>
-17.1794

>  <SCORE.INTRA.DIHEDRAL.0>
28.0161

>  <SCORE.INTRA.POLAR>
0.33931

>  <SCORE.INTRA.POLAR.0>
-1.05798

>  <SCORE.INTRA.REPUL>
0

>  <SCORE.INTRA.REPUL.0>
0

>  <SCORE.INTRA.SOLV>
1.40535

>  <SCORE.INTRA.SOLV.lig_0>
-42.5945

>  <SCORE.INTRA.VDW>
5.93623

>  <SCORE.INTRA.VDW.0>
-5.13869

>  <SCORE.INTRA.norm>
-0.0257147

>  <SCORE.RESTR>
0

>  <SCORE.RESTR.CAVITY>
0

>  <SCORE.RESTR.norm>
0

>  <SCORE.SYSTEM>
0

>  <SCORE.SYSTEM.CONST>
0

>  <SCORE.SYSTEM.DIHEDRAL>
0

>  <SCORE.SYSTEM.SOLV>
0

>  <SCORE.SYSTEM.norm>
0

>  <SCORE.heavy>
31

>  <SCORE.norm>
-1.19538

>  <RMSD>
5.239

$$$$
lig.pdb
 OpenBabel11021811453D
libRbt.so/2013.1/901 2013/11/27
 31 33  0  0  0  0  0  0  0  0999 V2000
   -4.0665   -2.7127    3.4130 O   0  0  0  0  0  0  0  0  0  0  0  0
   -3.6798   -2.3573    4.7261 C   0  0  0  0  0  0  0  0  0  0  0  0
   -2.1533   -2.2680    4.8566 C   0  0  1  0  0  0  0  0  0  0  0  0
   -1.5884   -1.4173    3.8715 O   0  0  0  0  0  0  0  0  0  0  0  0
   -0.3567   -0.8844    4.3488 C   0  0  1  0  0  0  0  0  0  0  0  0
   -0.3198    0.5201    4.1254 O   0  0  0  0  0  0  0  0  0  0  0  0
    0.5264    0.9883    3.0874 C   0  0  2  0  0  0  0  0  0  0  0  0
    1.8832    0.2818    3.2356 C   0  0  1  0  0  0  0  0  0  0  0  0
    1.7439   -1.0932    2.9140 O   0  0  0  0  0  0  0  0  0  0  0  0
    2.9884    0.8523    2.3339 C   0  0  2  0  0  0  0  0  0  0  0  0
    4.2777    0.1950    2.5983 N   0  0  0  0  0  0  0  0  0  0  0  0
    3.1247    2.3513    2.5735 C   0  0  0  0  0  0  0  0  0  0  0  0
    1.7812    3.0322    2.3419 C   0  0  2  0  0  0  0  0  0  0  0  0
    1.9544    4.4772    2.5256 N   0  0  0  0  0  0  0  0  0  0  0  0
    0.7150    2.4564    3.2986 C   0  0  1  0  0  0  0  0  0  0  0  0
   -0.4924    3.1759    3.0051 O   0  0  0  0  0  0  0  0  0  0  0  0
   -1.6582    2.8141    3.7374 C   0  0  1  0  0  0  0  0  0  0  0  0
   -1.7462    3.5638    4.9461 O   0  0  0  0  0  0  0  0  0  0  0  0
   -2.0105    4.9580    4.8054 C   0  0  2  0  0  0  0  0  0  0  0  0
   -2.0716    5.5955    6.1998 C   0  0  0  0  0  0  0  0  0  0  0  0
   -2.6924    6.9119    6.1632 N   0  0  0  0  0  0  0  0  0  0  0  0
   -3.3411    5.1915    4.0660 C   0  0  1  0  0  0  0  0  0  0  0  0
   -3.5523    6.5808    3.8870 O   0  0  0  0  0  0  0  0  0  0  0  0
   -3.2763    4.4935    2.7018 C   0  0  2  0  0  0  0  0  0  0  0  0
   -4.5176    4.6156    2.0331 O   0  0  0  0  0  0  0  0  0  0  0  0
   -2.9043    3.0138    2.8672 C   0  0  1  0  0  0  0  0  0  0  0  0
   -2.7207    2.3889    1.5496 N   0  0  0  0  0  0  0  0  0  0  0  0
   -0.3053   -1.1659    5.8575 C   0  0  2  0  0  0  0  0  0  0  0  0
    0.6632   -2.1623    6.1273 O   0  0  0  0  0  0  0  0  0  0  0  0
   -1.7325   -1.6136    6.1687 C   0  0  2  0  0  0  0  0  0  0  0  0
   -1.8280   -2.4712    7.2888 O   0  0  0  0  0  0  0  0  0  0  0  0
  2  1  1  0  0  0  0
  3  2  1  6  0  0  0
  3 30  1  0  0  0  0
  4  5  1  0  0  0  0
  4  3  1  0  0  0  0
  5 28  1  0  0  0  0
  5  6  1  1  0  0  0
  7  6  1  1  0  0  0
  8  7  1  0  0  0  0
  8  9  1  6  0  0  0
 10 11  1  1  0  0  0
 10  8  1  0  0  0  0
 12 10  1  0  0  0  0
 13 12  1  0  0  0  0
 13 15  1  0  0  0  0
 13 14  1  1  0  0  0
 15  7  1  0  0  0  0
 15 16  1  6  0  0  0
 17 16  1  6  0  0  0
 18 17  1  0  0  0  0
 19 20  1  1  0  0  0
 19 18  1  0  0  0  0
 20 21  1  0  0  0  0
 22 24  1  0  0  0  0
 22 19  1  0  0  0  0
 22 23  1  6  0  0  0
 24 25  1  1  0  0  0
 24 26  1  0  0  0  0
 26 17  1  0  0  0  0
 26 27  1  6  0  0  0
 28 29  1  6  0  0  0
 28 30  1  0  0  0  0
 30 31  1  1  0  0  0
M  END
>  <CHROM.1>
72.13515471,52.91488950,-106.61310245,-46.37363753,163.72039434,87.61065108
73.86662754,57.78952431,88.69491694,-164.19090065,-17.10811209,146.27627640
174.04752427,-155.68716147,173.82460747,-38.94887236,-0.90123755,1.62260780
3.91926862,1.22484057,-0.29056498,2.94601942

>  <Name>
lig.pdb

>  <RI>
2.74555e+07

>  <Rbt.Current_Directory>
/home/itssahil/PROJECTS/Mol_Feturizer/New_Systems/rnas/2n0j

>  <Rbt.Executable>
rbdock ($Id: //depot/dev/client3/rdock/2013.1/src/exe/rbdock.cxx#4 $)

>  <Rbt.Library>
libRbt.so (2013.1, Build901 2013/11/27)

>  <Rbt.Parameter_File>
/export/apps/rDock/src/rDock_2013.1_src/data/scripts/dock_solv.prm

>  <Rbt.Receptor>
prm/pocket_docking_6.prm

>  <SCORE>
-38.9672

>  <SCORE.INTER>
-49.3512

>  <SCORE.INTER.CONST>
1

>  <SCORE.INTER.POLAR>
-7.31545

>  <SCORE.INTER.ROT>
6

>  <SCORE.INTER.SOLV>
23.8874

>  <SCORE.INTER.VDW>
-24.0784

>  <SCORE.INTER.norm>
-1.59197

>  <SCORE.INTRA>
10.2847

>  <SCORE.INTRA.DIHEDRAL>
-1.32805

>  <SCORE.INTRA.DIHEDRAL.0>
28.0161

>  <SCORE.INTRA.POLAR>
0.344331

>  <SCORE.INTRA.POLAR.0>
-1.05798

>  <SCORE.INTRA.REPUL>
0

>  <SCORE.INTRA.REPUL.0>
0

>  <SCORE.INTRA.SOLV>
0.453682

>  <SCORE.INTRA.SOLV.lig_0>
-42.5945

>  <SCORE.INTRA.VDW>
9.55118

>  <SCORE.INTRA.VDW.0>
-5.13869

>  <SCORE.INTRA.norm>
0.331765

>  <SCORE.RESTR>
0.0992841

>  <SCORE.RESTR.CAVITY>
0.0992841

>  <SCORE.RESTR.norm>
0.00320271

>  <SCORE.SYSTEM>
0

>  <SCORE.SYSTEM.CONST>
0

>  <SCORE.SYSTEM.DIHEDRAL>
0

>  <SCORE.SYSTEM.SOLV>
0

>  <SCORE.SYSTEM.norm>
0

>  <SCORE.heavy>
31

>  <SCORE.norm>
-1.25701

>  <RMSD>
5.248

$$$$
lig.pdb
 OpenBabel11021811453D
libRbt.so/2013.1/901 2013/11/27
 31 33  0  0  0  0  0  0  0  0999 V2000
   -1.1526   -1.8934    4.2010 O   0  0  0  0  0  0  0  0  0  0  0  0
   -2.5015   -1.8237    3.7819 C   0  0  0  0  0  0  0  0  0  0  0  0
   -3.0022   -0.3736    3.7413 C   0  0  1  0  0  0  0  0  0  0  0  0
   -2.7979    0.2899    4.9787 O   0  0  0  0  0  0  0  0  0  0  0  0
   -2.6910    1.6929    4.7574 C   0  0  1  0  0  0  0  0  0  0  0  0
   -1.5632    2.2071    5.4556 O   0  0  0  0  0  0  0  0  0  0  0  0
   -1.5549    3.5977    5.7367 C   0  0  2  0  0  0  0  0  0  0  0  0
   -2.9350    3.9688    6.3023 C   0  0  1  0  0  0  0  0  0  0  0  0
   -3.0908    3.4011    7.5934 O   0  0  0  0  0  0  0  0  0  0  0  0
   -3.1711    5.4808    6.4363 C   0  0  2  0  0  0  0  0  0  0  0  0
   -4.5417    5.7632    6.8900 N   0  0  0  0  0  0  0  0  0  0  0  0
   -2.9315    6.1596    5.0929 C   0  0  0  0  0  0  0  0  0  0  0  0
   -1.5272    5.8359    4.5977 C   0  0  2  0  0  0  0  0  0  0  0  0
   -1.3051    6.5450    3.3329 N   0  0  0  0  0  0  0  0  0  0  0  0
   -1.3520    4.3103    4.4380 C   0  0  1  0  0  0  0  0  0  0  0  0
   -0.0121    4.1264    3.9561 O   0  0  0  0  0  0  0  0  0  0  0  0
    0.1707    4.0883    2.5448 C   0  0  1  0  0  0  0  0  0  0  0  0
    0.5631    5.3670    2.0534 O   0  0  0  0  0  0  0  0  0  0  0  0
    1.8669    5.8113    2.4224 C   0  0  2  0  0  0  0  0  0  0  0  0
    2.1134    7.1949    1.8063 C   0  0  0  0  0  0  0  0  0  0  0  0
    1.2676    8.2128    2.4131 N   0  0  0  0  0  0  0  0  0  0  0  0
    2.9416    4.8229    1.9328 C   0  0  1  0  0  0  0  0  0  0  0  0
    4.2207    5.2550    2.3614 O   0  0  0  0  0  0  0  0  0  0  0  0
    2.6375    3.4363    2.5134 C   0  0  2  0  0  0  0  0  0  0  0  0
    3.5580    2.4858    2.0111 O   0  0  0  0  0  0  0  0  0  0  0  0
    1.2005    3.0127    2.1807 C   0  0  1  0  0  0  0  0  0  0  0  0
    0.8807    1.7431    2.8488 N   0  0  0  0  0  0  0  0  0  0  0  0
   -2.4943    1.8912    3.2474 C   0  0  2  0  0  0  0  0  0  0  0  0
   -3.6629    2.4543    2.6808 O   0  0  0  0  0  0  0  0  0  0  0  0
   -2.2080    0.4743    2.7528 C   0  0  2  0  0  0  0  0  0  0  0  0
   -2.5670    0.2600    1.4022 O   0  0  0  0  0  0  0  0  0  0  0  0
  2  1  1  0  0  0  0
  3  2  1  1  0  0  0
  3 30  1  0  0  0  0
  4  5  1  0  0  0  0
  4  3  1  0  0  0  0
  5 28  1  0  0  0  0
  5  6  1  1  0  0  0
  7  6  1  6  0  0  0
  8  7  1  0  0  0  0
  8  9  1  1  0  0  0
 10 11  1  6  0  0  0
 10  8  1  0  0  0  0
 12 10  1  0  0  0  0
 13 12  1  0  0  0  0
 13 15  1  0  0  0  0
 13 14  1  6  0  0  0
 15  7  1  0  0  0  0
 15 16  1  1  0  0  0
 17 16  1  1  0  0  0
 18 17  1  0  0  0  0
 19 20  1  6  0  0  0
 19 18  1  0  0  0  0
 20 21  1  0  0  0  0
 22 24  1  0  0  0  0
 22 19  1  0  0  0  0
 22 23  1  1  0  0  0
 24 25  1  6  0  0  0
 24 26  1  0  0  0  0
 26 17  1  0  0  0  0
 26 27  1  1  0  0  0
 28 29  1  6  0  0  0
 28 30  1  0  0  0  0
 30 31  1  6  0  0  0
M  END
>  <CHROM.1>
-172.06422583,-53.93081064,-158.78469518,46.57188595,-162.68790742,161.95887015
61.05718820,147.72811872,96.66809721,68.28879450,-88.48197083,62.75859607
67.26057360,-157.27936350,67.84274959,-173.89347037,-0.81776988,3.40881462
3.75218224,-2.53055858,0.57324502,0.21043294

>  <Name>
lig.pdb

>  <RI>
3.50357e+07

>  <Rbt.Current_Directory>
/home/itssahil/PROJECTS/Mol_Feturizer/New_Systems/rnas/2n0j

>  <Rbt.Executable>
rbdock ($Id: //depot/dev/client3/rdock/2013.1/src/exe/rbdock.cxx#4 $)

>  <Rbt.Library>
libRbt.so (2013.1, Build901 2013/11/27)

>  <Rbt.Parameter_File>
/export/apps/rDock/src/rDock_2013.1_src/data/scripts/dock_solv.prm

>  <Rbt.Receptor>
prm/pocket_docking_3.prm

>  <SCORE>
-31.1762

>  <SCORE.INTER>
-31.0815

>  <SCORE.INTER.CONST>
1

>  <SCORE.INTER.POLAR>
-3.16903

>  <SCORE.INTER.ROT>
6

>  <SCORE.INTER.SOLV>
12.2477

>  <SCORE.INTER.VDW>
-21.8401

>  <SCORE.INTER.norm>
-1.00263

>  <SCORE.INTRA>
-0.094674

>  <SCORE.INTRA.DIHEDRAL>
-9.62662

>  <SCORE.INTRA.DIHEDRAL.0>
28.0161

>  <SCORE.INTRA.POLAR>
0.251477

>  <SCORE.INTRA.POLAR.0>
-1.05798

>  <SCORE.INTRA.REPUL>
0.0026719

>  <SCORE.INTRA.REPUL.0>
0

>  <SCORE.INTRA.SOLV>
1.60924

>  <SCORE.INTRA.SOLV.lig_0>
-42.5945

>  <SCORE.INTRA.VDW>
3.04563

>  <SCORE.INTRA.VDW.0>
-5.13869

>  <SCORE.INTRA.norm>
-0.003054

>  <SCORE.RESTR>
0

>  <SCORE.RESTR.CAVITY>
0

>  <SCORE.RESTR.norm>
0

>  <SCORE.SYSTEM>
0

>  <SCORE.SYSTEM.CONST>
0

>  <SCORE.SYSTEM.DIHEDRAL>
0

>  <SCORE.SYSTEM.SOLV>
0

>  <SCORE.SYSTEM.norm>
0

>  <SCORE.heavy>
31

>  <SCORE.norm>
-1.00568

>  <RMSD>
5.249

$$$$
lig.pdb
 OpenBabel11021811453D
libRbt.so/2013.1/901 2013/11/27
 31 33  0  0  0  0  0  0  0  0999 V2000
   -4.0179    4.7415    8.4343 O   0  0  0  0  0  0  0  0  0  0  0  0
   -4.3686    3.6186    7.6494 C   0  0  0  0  0  0  0  0  0  0  0  0
   -4.6552    4.0177    6.1955 C   0  0  1  0  0  0  0  0  0  0  0  0
   -3.4781    4.4319    5.5204 O   0  0  0  0  0  0  0  0  0  0  0  0
   -3.6269    4.2129    4.1208 C   0  0  1  0  0  0  0  0  0  0  0  0
   -2.4712    3.5601    3.6089 O   0  0  0  0  0  0  0  0  0  0  0  0
   -1.2306    4.2332    3.7527 C   0  0  2  0  0  0  0  0  0  0  0  0
   -1.2455    5.4476    2.8108 C   0  0  1  0  0  0  0  0  0  0  0  0
   -2.1693    6.4125    3.2892 O   0  0  0  0  0  0  0  0  0  0  0  0
    0.1147    6.1477    2.6698 C   0  0  2  0  0  0  0  0  0  0  0  0
    0.0487    7.2363    1.6826 N   0  0  0  0  0  0  0  0  0  0  0  0
    1.1712    5.1366    2.2402 C   0  0  0  0  0  0  0  0  0  0  0  0
    1.2148    3.9850    3.2371 C   0  0  2  0  0  0  0  0  0  0  0  0
    2.2753    3.0571    2.8296 N   0  0  0  0  0  0  0  0  0  0  0  0
   -0.1602    3.2869    3.3122 C   0  0  1  0  0  0  0  0  0  0  0  0
    0.0025    2.2200    4.2591 O   0  0  0  0  0  0  0  0  0  0  0  0
   -0.1540    0.8911    3.7732 C   0  0  1  0  0  0  0  0  0  0  0  0
    1.1077    0.3348    3.4136 O   0  0  0  0  0  0  0  0  0  0  0  0
    2.0053    0.0617    4.4874 C   0  0  2  0  0  0  0  0  0  0  0  0
    3.3001   -0.5299    3.9146 C   0  0  0  0  0  0  0  0  0  0  0  0
    3.6610    0.0903    2.6477 N   0  0  0  0  0  0  0  0  0  0  0  0
    1.3780   -0.9266    5.4882 C   0  0  1  0  0  0  0  0  0  0  0  0
    2.2637   -1.1362    6.5736 O   0  0  0  0  0  0  0  0  0  0  0  0
    0.0565   -0.3390    5.9989 C   0  0  2  0  0  0  0  0  0  0  0  0
   -0.5885   -1.2633    6.8548 O   0  0  0  0  0  0  0  0  0  0  0  0
   -0.8616    0.0303    4.8259 C   0  0  1  0  0  0  0  0  0  0  0  0
   -2.0677    0.7078    5.3226 N   0  0  0  0  0  0  0  0  0  0  0  0
   -4.8519    3.3046    3.9407 C   0  0  2  0  0  0  0  0  0  0  0  0
   -5.9181    4.0430    3.3737 O   0  0  0  0  0  0  0  0  0  0  0  0
   -5.1374    2.8323    5.3654 C   0  0  2  0  0  0  0  0  0  0  0  0
   -6.4911    2.4923    5.5912 O   0  0  0  0  0  0  0  0  0  0  0  0
  2  1  1  0  0  0  0
  3  2  1  1  0  0  0
  3 30  1  0  0  0  0
  4  5  1  0  0  0  0
  4  3  1  0  0  0  0
  5 28  1  0  0  0  0
  5  6  1  1  0  0  0
  7  6  1  6  0  0  0
  8  7  1  0  0  0  0
  8  9  1  1  0  0  0
 10 11  1  6  0  0  0
 10  8  1  0  0  0  0
 12 10  1  0  0  0  0
 13 12  1  0  0  0  0
 13 15  1  0  0  0  0
 13 14  1  6  0  0  0
 15  7  1  0  0  0  0
 15 16  1  1  0  0  0
 17 16  1  1  0  0  0
 18 17  1  0  0  0  0
 19 20  1  6  0  0  0
 19 18  1  0  0  0  0
 20 21  1  0  0  0  0
 22 24  1  0  0  0  0
 22 19  1  0  0  0  0
 22 23  1  1  0  0  0
 24 25  1  1  0  0  0
 24 26  1  0  0  0  0
 26 17  1  0  0  0  0
 26 27  1  1  0  0  0
 28 29  1  1  0  0  0
 28 30  1  0  0  0  0
 30 31  1  6  0  0  0
M  END
>  <CHROM.1>
56.14547001,69.01493166,-59.98817831,-70.09243517,-153.07764133,-50.81653667
57.48171863,122.75920853,94.33196143,37.16158921,-5.39462349,-174.65743438
59.86246777,-56.84714584,-52.11590989,-179.23736435,-1.13724480,2.65755401
4.43849887,2.69743092,0.40610106,-0.53339084

>  <Name>
lig.pdb

>  <RI>
3.32461e+07

>  <Rbt.Current_Directory>
/home/itssahil/PROJECTS/Mol_Feturizer/New_Systems/rnas/2n0j

>  <Rbt.Executable>
rbdock ($Id: //depot/dev/client3/rdock/2013.1/src/exe/rbdock.cxx#4 $)

>  <Rbt.Library>
libRbt.so (2013.1, Build901 2013/11/27)

>  <Rbt.Parameter_File>
/export/apps/rDock/src/rDock_2013.1_src/data/scripts/dock_solv.prm

>  <Rbt.Receptor>
prm/pocket_docking_7.prm

>  <SCORE>
-47.9217

>  <SCORE.INTER>
-48.7262

>  <SCORE.INTER.CONST>
1

>  <SCORE.INTER.POLAR>
-6.34767

>  <SCORE.INTER.ROT>
6

>  <SCORE.INTER.SOLV>
14.8447

>  <SCORE.INTER.VDW>
-23.8735

>  <SCORE.INTER.norm>
-1.57181

>  <SCORE.INTRA>
0.790978

>  <SCORE.INTRA.DIHEDRAL>
-6.33557

>  <SCORE.INTRA.DIHEDRAL.0>
28.0161

>  <SCORE.INTRA.POLAR>
0.789912

>  <SCORE.INTRA.POLAR.0>
-1.05798

>  <SCORE.INTRA.REPUL>
0

>  <SCORE.INTRA.REPUL.0>
0

>  <SCORE.INTRA.SOLV>
0.404277

>  <SCORE.INTRA.SOLV.lig_0>
-42.5945

>  <SCORE.INTRA.VDW>
1.07092

>  <SCORE.INTRA.VDW.0>
-5.13869

>  <SCORE.INTRA.norm>
0.0255154

>  <SCORE.RESTR>
0.0134343

>  <SCORE.RESTR.CAVITY>
0.0134343

>  <SCORE.RESTR.norm>
0.000433365

>  <SCORE.SYSTEM>
0

>  <SCORE.SYSTEM.CONST>
0

>  <SCORE.SYSTEM.DIHEDRAL>
0

>  <SCORE.SYSTEM.SOLV>
0

>  <SCORE.SYSTEM.norm>
0

>  <SCORE.heavy>
31

>  <SCORE.norm>
-1.54586

>  <RMSD>
5.260

$$$$
lig.pdb
 OpenBabel11021811453D
libRbt.so/2013.1/901 2013/11/27
 31 33  0  0  0  0  0  0  0  0999 V2000
   -6.9467    4.9258    7.0651 O   0  0  0  0  0  0  0  0  0  0  0  0
   -6.6119    3.6282    7.5170 C   0  0  0  0  0  0  0  0  0  0  0  0
   -6.0399    2.7688    6.3814 C   0  0  1  0  0  0  0  0  0  0  0  0
   -4.9020    3.3714    5.7855 O   0  0  0  0  0  0  0  0  0  0  0  0
   -4.0727    2.3653    5.2123 C   0  0  1  0  0  0  0  0  0  0  0  0
   -2.7201    2.5764    5.5993 O   0  0  0  0  0  0  0  0  0  0  0  0
   -2.0475    3.6847    5.0230 C   0  0  2  0  0  0  0  0  0  0  0  0
   -2.7057    4.9640    5.5637 C   0  0  1  0  0  0  0  0  0  0  0  0
   -2.4033    5.1113    6.9422 O   0  0  0  0  0  0  0  0  0  0  0  0
   -2.2509    6.2495    4.8561 C   0  0  2  0  0  0  0  0  0  0  0  0
   -2.9907    7.4182    5.3571 N   0  0  0  0  0  0  0  0  0  0  0  0
   -2.4716    6.1152    3.3540 C   0  0  0  0  0  0  0  0  0  0  0  0
   -1.7417    4.8818    2.8364 C   0  0  2  0  0  0  0  0  0  0  0  0
   -1.9257    4.8083    1.3830 N   0  0  0  0  0  0  0  0  0  0  0  0
   -2.2619    3.6126    3.5451 C   0  0  1  0  0  0  0  0  0  0  0  0
   -1.5228    2.5232    2.9722 O   0  0  0  0  0  0  0  0  0  0  0  0
   -0.2361    2.2533    3.5182 C   0  0  1  0  0  0  0  0  0  0  0  0
   -0.3429    1.4237    4.6720 O   0  0  0  0  0  0  0  0  0  0  0  0
   -0.7614    0.0795    4.4454 C   0  0  2  0  0  0  0  0  0  0  0  0
   -0.8169   -0.6572    5.7903 C   0  0  0  0  0  0  0  0  0  0  0  0
    0.5052   -0.7931    6.3847 N   0  0  0  0  0  0  0  0  0  0  0  0
    0.2098   -0.6437    3.4938 C   0  0  1  0  0  0  0  0  0  0  0  0
   -0.2581   -1.9561    3.2383 O   0  0  0  0  0  0  0  0  0  0  0  0
    0.2935    0.1454    2.1813 C   0  0  2  0  0  0  0  0  0  0  0  0
    1.2459   -0.4462    1.3176 O   0  0  0  0  0  0  0  0  0  0  0  0
    0.6591    1.6110    2.4525 C   0  0  1  0  0  0  0  0  0  0  0  0
    0.6109    2.3830    1.2026 N   0  0  0  0  0  0  0  0  0  0  0  0
   -4.5608    1.0184    5.7652 C   0  0  2  0  0  0  0  0  0  0  0  0
   -5.2059    0.2843    4.7413 O   0  0  0  0  0  0  0  0  0  0  0  0
   -5.5037    1.4354    6.8927 C   0  0  2  0  0  0  0  0  0  0  0  0
   -6.5130    0.4850    7.1707 O   0  0  0  0  0  0  0  0  0  0  0  0
  2  1  1  0  0  0  0
  3  2  1  1  0  0  0
  3 30  1  0  0  0  0
  4  5  1  0  0  0  0
  4  3  1  0  0  0  0
  5 28  1  0  0  0  0
  5  6  1  1  0  0  0
  7  6  1  1  0  0  0
  8  7  1  0  0  0  0
  8  9  1  1  0  0  0
 10 11  1  1  0  0  0
 10  8  1  0  0  0  0
 12 10  1  0  0  0  0
 13 12  1  0  0  0  0
 13 15  1  0  0  0  0
 13 14  1  6  0  0  0
 15  7  1  0  0  0  0
 15 16  1  6  0  0  0
 17 16  1  6  0  0  0
 18 17  1  0  0  0  0
 19 20  1  1  0  0  0
 19 18  1  0  0  0  0
 20 21  1  0  0  0  0
 22 24  1  0  0  0  0
 22 19  1  0  0  0  0
 22 23  1  6  0  0  0
 24 25  1  6  0  0  0
 24 26  1  0  0  0  0
 26 17  1  0  0  0  0
 26 27  1  6  0  0  0
 28 29  1  6  0  0  0
 28 30  1  0  0  0  0
 30 31  1  6  0  0  0
M  END
>  <CHROM.1>
-177.45206551,57.04667659,-71.40133406,67.33101537,62.07157225,-45.83575828
13.36542145,-37.14561453,84.41411971,-65.60277208,62.79126181,-80.36156025
61.57200412,-171.89890047,-58.03214855,62.56142582,-2.40152577,2.42712109
4.59951240,2.73122478,0.64104333,-0.19692472

>  <Name>
lig.pdb

>  <RI>
0

>  <Rbt.Current_Directory>
/home/itssahil/PROJECTS/Mol_Feturizer/New_Systems/rnas/2n0j

>  <Rbt.Executable>
rbdock ($Id: //depot/dev/client3/rdock/2013.1/src/exe/rbdock.cxx#4 $)

>  <Rbt.Library>
libRbt.so (2013.1, Build901 2013/11/27)

>  <Rbt.Parameter_File>
/export/apps/rDock/src/rDock_2013.1_src/data/scripts/dock_solv.prm

>  <Rbt.Receptor>
prm/pocket_docking_8.prm

>  <SCORE>
-37.9861

>  <SCORE.INTER>
-38.8177

>  <SCORE.INTER.CONST>
1

>  <SCORE.INTER.POLAR>
-5.39445

>  <SCORE.INTER.ROT>
6

>  <SCORE.INTER.SOLV>
14.6037

>  <SCORE.INTER.VDW>
-20.3649

>  <SCORE.INTER.norm>
-1.25218

>  <SCORE.INTRA>
0.831555

>  <SCORE.INTRA.DIHEDRAL>
-15.9415

>  <SCORE.INTRA.DIHEDRAL.0>
28.0161

>  <SCORE.INTRA.POLAR>
1.02523

>  <SCORE.INTRA.POLAR.0>
-1.05798

>  <SCORE.INTRA.REPUL>
0

>  <SCORE.INTRA.REPUL.0>
0

>  <SCORE.INTRA.SOLV>
0.353778

>  <SCORE.INTRA.SOLV.lig_0>
-42.5945

>  <SCORE.INTRA.VDW>
5.13964

>  <SCORE.INTRA.VDW.0>
-5.13869

>  <SCORE.INTRA.norm>
0.0268244

>  <SCORE.RESTR>
0

>  <SCORE.RESTR.CAVITY>
0

>  <SCORE.RESTR.norm>
0

>  <SCORE.SYSTEM>
0

>  <SCORE.SYSTEM.CONST>
0

>  <SCORE.SYSTEM.DIHEDRAL>
0

>  <SCORE.SYSTEM.SOLV>
0

>  <SCORE.SYSTEM.norm>
0

>  <SCORE.heavy>
31

>  <SCORE.norm>
-1.22536

>  <RMSD>
5.269

$$$$
lig.pdb
 OpenBabel11021811453D
libRbt.so/2013.1/901 2013/11/27
 31 33  0  0  0  0  0  0  0  0999 V2000
   -4.2542    0.9059   -1.1936 O   0  0  0  0  0  0  0  0  0  0  0  0
   -3.5728    0.5514   -0.0061 C   0  0  0  0  0  0  0  0  0  0  0  0
   -2.2257    1.2780    0.1059 C   0  0  1  0  0  0  0  0  0  0  0  0
   -2.2177    2.2130    1.1730 O   0  0  0  0  0  0  0  0  0  0  0  0
   -0.8826    2.4060    1.6302 C   0  0  1  0  0  0  0  0  0  0  0  0
   -0.8415    2.3209    3.0497 O   0  0  0  0  0  0  0  0  0  0  0  0
   -1.1604    3.4960    3.7780 C   0  0  2  0  0  0  0  0  0  0  0  0
   -2.5425    3.2890    4.4176 C   0  0  1  0  0  0  0  0  0  0  0  0
   -2.4531    2.3132    5.4439 O   0  0  0  0  0  0  0  0  0  0  0  0
   -3.1390    4.5583    5.0447 C   0  0  2  0  0  0  0  0  0  0  0  0
   -4.4982    4.3096    5.5494 N   0  0  0  0  0  0  0  0  0  0  0  0
   -3.1794    5.6741    4.0072 C   0  0  0  0  0  0  0  0  0  0  0  0
   -1.7804    5.9076    3.4500 C   0  0  2  0  0  0  0  0  0  0  0  0
   -1.8394    7.0207    2.4965 N   0  0  0  0  0  0  0  0  0  0  0  0
   -1.2414    4.6183    2.7935 C   0  0  1  0  0  0  0  0  0  0  0  0
    0.0614    4.9578    2.2945 O   0  0  0  0  0  0  0  0  0  0  0  0
    1.1299    4.9852    3.2348 C   0  0  1  0  0  0  0  0  0  0  0  0
    1.7241    3.6960    3.3592 O   0  0  0  0  0  0  0  0  0  0  0  0
    2.4524    3.2257    2.2270 C   0  0  2  0  0  0  0  0  0  0  0  0
    3.0172    1.8342    2.5424 C   0  0  0  0  0  0  0  0  0  0  0  0
    4.2014    1.5410    1.7478 N   0  0  0  0  0  0  0  0  0  0  0  0
    3.6021    4.1884    1.8764 C   0  0  1  0  0  0  0  0  0  0  0  0
    4.2728    3.7311    0.7155 O   0  0  0  0  0  0  0  0  0  0  0  0
    3.0175    5.5840    1.6257 C   0  0  2  0  0  0  0  0  0  0  0  0
    4.0589    6.5122    1.3866 O   0  0  0  0  0  0  0  0  0  0  0  0
    2.1647    6.0367    2.8185 C   0  0  1  0  0  0  0  0  0  0  0  0
    1.5084    7.3161    2.5135 N   0  0  0  0  0  0  0  0  0  0  0  0
   -0.0372    1.2767    1.0235 C   0  0  2  0  0  0  0  0  0  0  0  0
    0.8204    1.8012    0.0269 O   0  0  0  0  0  0  0  0  0  0  0  0
   -1.0931    0.3224    0.4678 C   0  0  2  0  0  0  0  0  0  0  0  0
   -0.6380   -0.4586   -0.6194 O   0  0  0  0  0  0  0  0  0  0  0  0
  2  1  1  0  0  0  0
  3  2  1  1  0  0  0
  3 30  1  0  0  0  0
  4  5  1  0  0  0  0
  4  3  1  0  0  0  0
  5 28  1  0  0  0  0
  5  6  1  1  0  0  0
  7  6  1  6  0  0  0
  8  7  1  0  0  0  0
  8  9  1  1  0  0  0
 10 11  1  6  0  0  0
 10  8  1  0  0  0  0
 12 10  1  0  0  0  0
 13 12  1  0  0  0  0
 13 15  1  0  0  0  0
 13 14  1  6  0  0  0
 15  7  1  0  0  0  0
 15 16  1  1  0  0  0
 17 16  1  6  0  0  0
 18 17  1  0  0  0  0
 19 20  1  1  0  0  0
 19 18  1  0  0  0  0
 20 21  1  0  0  0  0
 22 24  1  0  0  0  0
 22 19  1  0  0  0  0
 22 23  1  6  0  0  0
 24 25  1  1  0  0  0
 24 26  1  0  0  0  0
 26 17  1  0  0  0  0
 26 27  1  6  0  0  0
 28 29  1  6  0  0  0
 28 30  1  0  0  0  0
 30 31  1  6  0  0  0
M  END
>  <CHROM.1>
61.40452390,112.67881970,-83.93201916,107.75690166,-171.97733027,79.77624522
-177.20658075,-41.35226328,88.14543328,-154.80232223,-23.20905574,-176.50793591
69.88811782,173.73047589,171.88955663,-58.17786180,-0.16421077,3.45871260
2.18801556,-2.91401258,0.25212129,0.62389903

>  <Name>
lig.pdb

>  <RI>
0

>  <Rbt.Current_Directory>
/home/itssahil/PROJECTS/Mol_Feturizer/New_Systems/rnas/2n0j

>  <Rbt.Executable>
rbdock ($Id: //depot/dev/client3/rdock/2013.1/src/exe/rbdock.cxx#4 $)

>  <Rbt.Library>
libRbt.so (2013.1, Build901 2013/11/27)

>  <Rbt.Parameter_File>
/export/apps/rDock/src/rDock_2013.1_src/data/scripts/dock_solv.prm

>  <Rbt.Receptor>
prm/pocket_docking_8.prm

>  <SCORE>
-36.2046

>  <SCORE.INTER>
-46.3146

>  <SCORE.INTER.CONST>
1

>  <SCORE.INTER.POLAR>
-5.24294

>  <SCORE.INTER.ROT>
6

>  <SCORE.INTER.SOLV>
18.4784

>  <SCORE.INTER.VDW>
-27.1594

>  <SCORE.INTER.norm>
-1.49402

>  <SCORE.INTRA>
10.11

>  <SCORE.INTRA.DIHEDRAL>
-2.31401

>  <SCORE.INTRA.DIHEDRAL.0>
28.0161

>  <SCORE.INTRA.POLAR>
0.458619

>  <SCORE.INTRA.POLAR.0>
-1.05798

>  <SCORE.INTRA.REPUL>
0

>  <SCORE.INTRA.REPUL.0>
0

>  <SCORE.INTRA.SOLV>
1.79416

>  <SCORE.INTRA.SOLV.lig_0>
-42.5945

>  <SCORE.INTRA.VDW>
8.81064

>  <SCORE.INTRA.VDW.0>
-5.13869

>  <SCORE.INTRA.norm>
0.32613

>  <SCORE.RESTR>
0

>  <SCORE.RESTR.CAVITY>
0

>  <SCORE.RESTR.norm>
0

>  <SCORE.SYSTEM>
0

>  <SCORE.SYSTEM.CONST>
0

>  <SCORE.SYSTEM.DIHEDRAL>
0

>  <SCORE.SYSTEM.SOLV>
0

>  <SCORE.SYSTEM.norm>
0

>  <SCORE.heavy>
31

>  <SCORE.norm>
-1.16789

>  <RMSD>
5.272

$$$$
lig.pdb
 OpenBabel11021811453D
libRbt.so/2013.1/901 2013/11/27
 31 33  0  0  0  0  0  0  0  0999 V2000
   -2.5068   -2.6841    3.3270 O   0  0  0  0  0  0  0  0  0  0  0  0
   -3.5442   -2.2112    2.4902 C   0  0  0  0  0  0  0  0  0  0  0  0
   -3.2325   -0.8101    1.9473 C   0  0  1  0  0  0  0  0  0  0  0  0
   -3.0511    0.1323    2.9923 O   0  0  0  0  0  0  0  0  0  0  0  0
   -2.2119    1.1912    2.5415 C   0  0  1  0  0  0  0  0  0  0  0  0
   -1.1994    1.4490    3.5070 O   0  0  0  0  0  0  0  0  0  0  0  0
   -1.4216    2.5232    4.4067 C   0  0  2  0  0  0  0  0  0  0  0  0
   -2.8974    2.4784    4.8333 C   0  0  1  0  0  0  0  0  0  0  0  0
   -3.1230    1.3444    5.6560 O   0  0  0  0  0  0  0  0  0  0  0  0
   -3.3597    3.7137    5.6210 C   0  0  2  0  0  0  0  0  0  0  0  0
   -4.8004    3.6468    5.9106 N   0  0  0  0  0  0  0  0  0  0  0  0
   -3.0613    4.9755    4.8198 C   0  0  0  0  0  0  0  0  0  0  0  0
   -1.5767    5.0289    4.4807 C   0  0  2  0  0  0  0  0  0  0  0  0
   -1.3092    6.2775    3.7588 N   0  0  0  0  0  0  0  0  0  0  0  0
   -1.1694    3.7902    3.6539 C   0  0  1  0  0  0  0  0  0  0  0  0
    0.2306    3.9545    3.3810 O   0  0  0  0  0  0  0  0  0  0  0  0
    0.6559    3.7687    2.0352 C   0  0  1  0  0  0  0  0  0  0  0  0
    0.8325    5.0245    1.3852 O   0  0  0  0  0  0  0  0  0  0  0  0
    1.9223    5.8229    1.8418 C   0  0  2  0  0  0  0  0  0  0  0  0
    1.9569    7.1261    1.0324 C   0  0  0  0  0  0  0  0  0  0  0  0
    0.7965    7.9614    1.3071 N   0  0  0  0  0  0  0  0  0  0  0  0
    3.2572    5.0722    1.6799 C   0  0  1  0  0  0  0  0  0  0  0  0
    4.3157    5.8611    2.1934 O   0  0  0  0  0  0  0  0  0  0  0  0
    3.1739    3.7470    2.4474 C   0  0  2  0  0  0  0  0  0  0  0  0
    4.3546    2.9929    2.2460 O   0  0  0  0  0  0  0  0  0  0  0  0
    1.9455    2.9406    2.0049 C   0  0  1  0  0  0  0  0  0  0  0  0
    1.8064    1.7358    2.8354 N   0  0  0  0  0  0  0  0  0  0  0  0
   -1.5642    0.7184    1.2319 C   0  0  2  0  0  0  0  0  0  0  0  0
   -2.1114    1.4337    0.1399 O   0  0  0  0  0  0  0  0  0  0  0  0
   -1.9006   -0.7717    1.2048 C   0  0  2  0  0  0  0  0  0  0  0  0
   -1.9593   -1.3178   -0.0981 O   0  0  0  0  0  0  0  0  0  0  0  0
  2  1  1  0  0  0  0
  3  2  1  1  0  0  0
  3 30  1  0  0  0  0
  4  5  1  0  0  0  0
  4  3  1  0  0  0  0
  5 28  1  0  0  0  0
  5  6  1  1  0  0  0
  7  6  1  6  0  0  0
  8  7  1  0  0  0  0
  8  9  1  1  0  0  0
 10 11  1  6  0  0  0
 10  8  1  0  0  0  0
 12 10  1  0  0  0  0
 13 12  1  0  0  0  0
 13 15  1  0  0  0  0
 13 14  1  6  0  0  0
 15  7  1  0  0  0  0
 15 16  1  1  0  0  0
 17 16  1  1  0  0  0
 18 17  1  0  0  0  0
 19 20  1  6  0  0  0
 19 18  1  0  0  0  0
 20 21  1  0  0  0  0
 22 24  1  0  0  0  0
 22 19  1  0  0  0  0
 22 23  1  1  0  0  0
 24 25  1  6  0  0  0
 24 26  1  0  0  0  0
 26 17  1  0  0  0  0
 26 27  1  1  0  0  0
 28 29  1  6  0  0  0
 28 30  1  0  0  0  0
 30 31  1  6  0  0  0
M  END
>  <CHROM.1>
-61.39662066,-59.11778224,-97.90688387,41.06239662,-69.33644528,-56.06131166
-106.68195156,107.70999437,100.19325525,66.73859428,170.81587442,57.84169700
-61.62636091,31.42171020,53.02028004,176.93843511,-0.65985175,2.79802186
2.79267219,-2.43872744,0.52215076,0.37727358

>  <Name>
lig.pdb

>  <RI>
2.67765e+07

>  <Rbt.Current_Directory>
/home/itssahil/PROJECTS/Mol_Feturizer/New_Systems/rnas/2n0j

>  <Rbt.Executable>
rbdock ($Id: //depot/dev/client3/rdock/2013.1/src/exe/rbdock.cxx#4 $)

>  <Rbt.Library>
libRbt.so (2013.1, Build901 2013/11/27)

>  <Rbt.Parameter_File>
/export/apps/rDock/src/rDock_2013.1_src/data/scripts/dock_solv.prm

>  <Rbt.Receptor>
prm/pocket_docking_2.prm

>  <SCORE>
-30.3908

>  <SCORE.INTER>
-31.2619

>  <SCORE.INTER.CONST>
1

>  <SCORE.INTER.POLAR>
-3.64941

>  <SCORE.INTER.ROT>
6

>  <SCORE.INTER.SOLV>
13.2338

>  <SCORE.INTER.VDW>
-20.6878

>  <SCORE.INTER.norm>
-1.00845

>  <SCORE.INTRA>
-0.429521

>  <SCORE.INTRA.DIHEDRAL>
-3.16412

>  <SCORE.INTRA.DIHEDRAL.0>
28.0161

>  <SCORE.INTRA.POLAR>
-0.626411

>  <SCORE.INTRA.POLAR.0>
-1.05798

>  <SCORE.INTRA.REPUL>
0

>  <SCORE.INTRA.REPUL.0>
0

>  <SCORE.INTRA.SOLV>
0.6695

>  <SCORE.INTRA.SOLV.lig_0>
-42.5945

>  <SCORE.INTRA.VDW>
2.94759

>  <SCORE.INTRA.VDW.0>
-5.13869

>  <SCORE.INTRA.norm>
-0.0138555

>  <SCORE.RESTR>
1.30064

>  <SCORE.RESTR.CAVITY>
1.30064

>  <SCORE.RESTR.norm>
0.0419562

>  <SCORE.SYSTEM>
0

>  <SCORE.SYSTEM.CONST>
0

>  <SCORE.SYSTEM.DIHEDRAL>
0

>  <SCORE.SYSTEM.SOLV>
0

>  <SCORE.SYSTEM.norm>
0

>  <SCORE.heavy>
31

>  <SCORE.norm>
-0.980348

>  <RMSD>
5.314

$$$$
lig.pdb
 OpenBabel11021811453D
libRbt.so/2013.1/901 2013/11/27
 31 33  0  0  0  0  0  0  0  0999 V2000
    1.4207   -0.5119    7.2159 O   0  0  0  0  0  0  0  0  0  0  0  0
    0.4458   -0.1727    6.2491 C   0  0  0  0  0  0  0  0  0  0  0  0
   -0.8314    0.3680    6.9060 C   0  0  1  0  0  0  0  0  0  0  0  0
   -1.1044    1.7026    6.5093 O   0  0  0  0  0  0  0  0  0  0  0  0
   -2.5023    1.9560    6.6122 C   0  0  1  0  0  0  0  0  0  0  0  0
   -2.9680    2.5830    5.4231 O   0  0  0  0  0  0  0  0  0  0  0  0
   -2.2202    3.6867    4.9379 C   0  0  2  0  0  0  0  0  0  0  0  0
   -2.8628    4.9675    5.4937 C   0  0  1  0  0  0  0  0  0  0  0  0
   -2.6414    5.0450    6.8931 O   0  0  0  0  0  0  0  0  0  0  0  0
   -2.3177    6.2623    4.8723 C   0  0  2  0  0  0  0  0  0  0  0  0
   -3.0434    7.4375    5.3787 N   0  0  0  0  0  0  0  0  0  0  0  0
   -2.4495    6.1997    3.3551 C   0  0  0  0  0  0  0  0  0  0  0  0
   -1.7350    4.9610    2.8288 C   0  0  2  0  0  0  0  0  0  0  0  0
   -1.8309    4.9555    1.3651 N   0  0  0  0  0  0  0  0  0  0  0  0
   -2.3449    3.6850    3.4480 C   0  0  1  0  0  0  0  0  0  0  0  0
   -1.6125    2.5919    2.8734 O   0  0  0  0  0  0  0  0  0  0  0  0
   -0.6806    1.9211    3.7149 C   0  0  1  0  0  0  0  0  0  0  0  0
   -0.9125    0.5151    3.7024 O   0  0  0  0  0  0  0  0  0  0  0  0
   -0.6187   -0.1615    2.4820 C   0  0  2  0  0  0  0  0  0  0  0  0
   -0.9255   -1.6549    2.6554 C   0  0  0  0  0  0  0  0  0  0  0  0
   -2.3410   -1.8885    2.9035 N   0  0  0  0  0  0  0  0  0  0  0  0
    0.8597    0.0260    2.0937 C   0  0  1  0  0  0  0  0  0  0  0  0
    1.1123   -0.6048    0.8508 O   0  0  0  0  0  0  0  0  0  0  0  0
    1.1549    1.5273    1.9866 C   0  0  2  0  0  0  0  0  0  0  0  0
    2.5285    1.7351    1.7166 O   0  0  0  0  0  0  0  0  0  0  0  0
    0.7506    2.2525    3.2773 C   0  0  1  0  0  0  0  0  0  0  0  0
    0.9191    3.7037    3.1151 N   0  0  0  0  0  0  0  0  0  0  0  0
   -3.1903    0.5931    6.7773 C   0  0  2  0  0  0  0  0  0  0  0  0
   -3.6827    0.4606    8.0978 O   0  0  0  0  0  0  0  0  0  0  0  0
   -2.0714   -0.3945    6.4500 C   0  0  2  0  0  0  0  0  0  0  0  0
   -2.2254   -1.6549    7.0720 O   0  0  0  0  0  0  0  0  0  0  0  0
  2  1  1  0  0  0  0
  3  2  1  6  0  0  0
  3 30  1  0  0  0  0
  4  5  1  0  0  0  0
  4  3  1  0  0  0  0
  5 28  1  0  0  0  0
  5  6  1  6  0  0  0
  7  6  1  1  0  0  0
  8  7  1  0  0  0  0
  8  9  1  1  0  0  0
 10 11  1  1  0  0  0
 10  8  1  0  0  0  0
 12 10  1  0  0  0  0
 13 12  1  0  0  0  0
 13 15  1  0  0  0  0
 13 14  1  6  0  0  0
 15  7  1  0  0  0  0
 15 16  1  6  0  0  0
 17 16  1  6  0  0  0
 18 17  1  0  0  0  0
 19 20  1  1  0  0  0
 19 18  1  0  0  0  0
 20 21  1  0  0  0  0
 22 24  1  0  0  0  0
 22 19  1  0  0  0  0
 22 23  1  6  0  0  0
 24 25  1  1  0  0  0
 24 26  1  0  0  0  0
 26 17  1  0  0  0  0
 26 27  1  6  0  0  0
 28 29  1  1  0  0  0
 28 30  1  0  0  0  0
 30 31  1  1  0  0  0
M  END
>  <CHROM.1>
-58.66219618,118.59011234,-48.16829675,-94.26741714,-177.23009248,-41.60252767
132.48757442,-14.14682344,127.81897138,63.67546288,63.35455751,-68.12915268
177.05411598,164.56468918,174.05247039,-61.21683947,-1.21446969,1.98796990
4.43341470,0.91655851,-0.99114235,2.66136015

>  <Name>
lig.pdb

>  <RI>
3.32461e+07

>  <Rbt.Current_Directory>
/home/itssahil/PROJECTS/Mol_Feturizer/New_Systems/rnas/2n0j

>  <Rbt.Executable>
rbdock ($Id: //depot/dev/client3/rdock/2013.1/src/exe/rbdock.cxx#4 $)

>  <Rbt.Library>
libRbt.so (2013.1, Build901 2013/11/27)

>  <Rbt.Parameter_File>
/export/apps/rDock/src/rDock_2013.1_src/data/scripts/dock_solv.prm

>  <Rbt.Receptor>
prm/pocket_docking_7.prm

>  <SCORE>
-29.3466

>  <SCORE.INTER>
-36.9189

>  <SCORE.INTER.CONST>
1

>  <SCORE.INTER.POLAR>
-4.52806

>  <SCORE.INTER.ROT>
6

>  <SCORE.INTER.SOLV>
18.8305

>  <SCORE.INTER.VDW>
-23.3959

>  <SCORE.INTER.norm>
-1.19093

>  <SCORE.INTRA>
7.57228

>  <SCORE.INTRA.DIHEDRAL>
0.905385

>  <SCORE.INTRA.DIHEDRAL.0>
28.0161

>  <SCORE.INTRA.POLAR>
1.05798

>  <SCORE.INTRA.POLAR.0>
-1.05798

>  <SCORE.INTRA.REPUL>
0

>  <SCORE.INTRA.REPUL.0>
0

>  <SCORE.INTRA.SOLV>
0.310336

>  <SCORE.INTRA.SOLV.lig_0>
-42.5945

>  <SCORE.INTRA.VDW>
3.36728

>  <SCORE.INTRA.VDW.0>
-5.13869

>  <SCORE.INTRA.norm>
0.244267

>  <SCORE.RESTR>
0

>  <SCORE.RESTR.CAVITY>
0

>  <SCORE.RESTR.norm>
0

>  <SCORE.SYSTEM>
0

>  <SCORE.SYSTEM.CONST>
0

>  <SCORE.SYSTEM.DIHEDRAL>
0

>  <SCORE.SYSTEM.SOLV>
0

>  <SCORE.SYSTEM.norm>
0

>  <SCORE.heavy>
31

>  <SCORE.norm>
-0.946664

>  <RMSD>
5.318

$$$$
lig.pdb
 OpenBabel11021811453D
libRbt.so/2013.1/901 2013/11/27
 31 33  0  0  0  0  0  0  0  0999 V2000
   -5.6737    4.7885    8.4666 O   0  0  0  0  0  0  0  0  0  0  0  0
   -4.8276    3.7208    8.8466 C   0  0  0  0  0  0  0  0  0  0  0  0
   -4.5275    2.7935    7.6611 C   0  0  1  0  0  0  0  0  0  0  0  0
   -3.7208    3.4312    6.6835 O   0  0  0  0  0  0  0  0  0  0  0  0
   -2.9846    2.4516    5.9574 C   0  0  1  0  0  0  0  0  0  0  0  0
   -1.6192    2.8411    5.8697 O   0  0  0  0  0  0  0  0  0  0  0  0
   -1.3275    4.0154    5.1289 C   0  0  2  0  0  0  0  0  0  0  0  0
   -2.2047    5.1486    5.6843 C   0  0  1  0  0  0  0  0  0  0  0  0
   -1.7661    5.4977    6.9879 O   0  0  0  0  0  0  0  0  0  0  0  0
   -2.1837    6.4298    4.8367 C   0  0  2  0  0  0  0  0  0  0  0  0
   -3.1170    7.4328    5.3724 N   0  0  0  0  0  0  0  0  0  0  0  0
   -2.5638    6.1006    3.3979 C   0  0  0  0  0  0  0  0  0  0  0  0
   -1.6261    5.0310    2.8514 C   0  0  2  0  0  0  0  0  0  0  0  0
   -1.9795    4.7741    1.4511 N   0  0  0  0  0  0  0  0  0  0  0  0
   -1.7138    3.7503    3.7091 C   0  0  1  0  0  0  0  0  0  0  0  0
   -0.8105    2.8166    3.0977 O   0  0  0  0  0  0  0  0  0  0  0  0
   -1.0854    1.4319    3.2813 C   0  0  1  0  0  0  0  0  0  0  0  0
   -2.3931    1.1122    2.8139 O   0  0  0  0  0  0  0  0  0  0  0  0
   -2.5929    1.1811    1.4036 C   0  0  2  0  0  0  0  0  0  0  0  0
   -4.0470    0.8057    1.0887 C   0  0  0  0  0  0  0  0  0  0  0  0
   -4.9661    1.8839    1.4242 N   0  0  0  0  0  0  0  0  0  0  0  0
   -1.6359    0.2253    0.6673 C   0  0  1  0  0  0  0  0  0  0  0  0
   -1.8125    0.3547   -0.7322 O   0  0  0  0  0  0  0  0  0  0  0  0
   -0.1934    0.5828    1.0465 C   0  0  2  0  0  0  0  0  0  0  0  0
    0.7072   -0.3342    0.4540 O   0  0  0  0  0  0  0  0  0  0  0  0
   -0.0197    0.5895    2.5713 C   0  0  1  0  0  0  0  0  0  0  0  0
    1.3287    1.0566    2.9239 N   0  0  0  0  0  0  0  0  0  0  0  0
   -3.0943    1.1383    6.7457 C   0  0  2  0  0  0  0  0  0  0  0  0
   -3.9221    0.2269    6.0474 O   0  0  0  0  0  0  0  0  0  0  0  0
   -3.6877    1.5906    8.0790 C   0  0  2  0  0  0  0  0  0  0  0  0
   -4.4258    0.5843    8.7436 O   0  0  0  0  0  0  0  0  0  0  0  0
  2  1  1  0  0  0  0
  3  2  1  1  0  0  0
  3 30  1  0  0  0  0
  4  5  1  0  0  0  0
  4  3  1  0  0  0  0
  5 28  1  0  0  0  0
  5  6  1  1  0  0  0
  7  6  1  1  0  0  0
  8  7  1  0  0  0  0
  8  9  1  1  0  0  0
 10 11  1  1  0  0  0
 10  8  1  0  0  0  0
 12 10  1  0  0  0  0
 13 12  1  0  0  0  0
 13 15  1  0  0  0  0
 13 14  1  6  0  0  0
 15  7  1  0  0  0  0
 15 16  1  6  0  0  0
 17 16  1  6  0  0  0
 18 17  1  0  0  0  0
 19 20  1  1  0  0  0
 19 18  1  0  0  0  0
 20 21  1  0  0  0  0
 22 24  1  0  0  0  0
 22 19  1  0  0  0  0
 22 23  1  6  0  0  0
 24 25  1  6  0  0  0
 24 26  1  0  0  0  0
 26 17  1  0  0  0  0
 26 27  1  6  0  0  0
 28 29  1  6  0  0  0
 28 30  1  0  0  0  0
 30 31  1  6  0  0  0
M  END
>  <CHROM.1>
-176.85490772,68.24574630,-65.16618171,53.26160249,-61.13635780,-173.48654469
-90.79436562,85.65837882,57.05124715,75.27319406,177.55283085,-174.24516541
164.42687835,-167.48461805,178.57569155,-48.97160856,-2.41887940,2.69000541
4.27608189,2.57372263,1.11896566,0.18181282

>  <Name>
lig.pdb

>  <RI>
2.74555e+07

>  <Rbt.Current_Directory>
/home/itssahil/PROJECTS/Mol_Feturizer/New_Systems/rnas/2n0j

>  <Rbt.Executable>
rbdock ($Id: //depot/dev/client3/rdock/2013.1/src/exe/rbdock.cxx#4 $)

>  <Rbt.Library>
libRbt.so (2013.1, Build901 2013/11/27)

>  <Rbt.Parameter_File>
/export/apps/rDock/src/rDock_2013.1_src/data/scripts/dock_solv.prm

>  <Rbt.Receptor>
prm/pocket_docking_6.prm

>  <SCORE>
-40.622

>  <SCORE.INTER>
-38.3829

>  <SCORE.INTER.CONST>
1

>  <SCORE.INTER.POLAR>
-5.6151

>  <SCORE.INTER.ROT>
6

>  <SCORE.INTER.SOLV>
15.3218

>  <SCORE.INTER.VDW>
-19.5789

>  <SCORE.INTER.norm>
-1.23816

>  <SCORE.INTRA>
-2.23915

>  <SCORE.INTRA.DIHEDRAL>
-19.072

>  <SCORE.INTRA.DIHEDRAL.0>
28.0161

>  <SCORE.INTRA.POLAR>
0.970425

>  <SCORE.INTRA.POLAR.0>
-1.05798

>  <SCORE.INTRA.REPUL>
0.0345746

>  <SCORE.INTRA.REPUL.0>
0

>  <SCORE.INTRA.SOLV>
-0.098805

>  <SCORE.INTRA.SOLV.lig_0>
-42.5945

>  <SCORE.INTRA.VDW>
3.87393

>  <SCORE.INTRA.VDW.0>
-5.13869

>  <SCORE.INTRA.norm>
-0.0722305

>  <SCORE.RESTR>
0

>  <SCORE.RESTR.CAVITY>
0

>  <SCORE.RESTR.norm>
0

>  <SCORE.SYSTEM>
0

>  <SCORE.SYSTEM.CONST>
0

>  <SCORE.SYSTEM.DIHEDRAL>
0

>  <SCORE.SYSTEM.SOLV>
0

>  <SCORE.SYSTEM.norm>
0

>  <SCORE.heavy>
31

>  <SCORE.norm>
-1.31039

>  <RMSD>
5.348

$$$$
lig.pdb
 OpenBabel11021811453D
libRbt.so/2013.1/901 2013/11/27
 31 33  0  0  0  0  0  0  0  0999 V2000
   -1.4763    3.5575   10.1665 O   0  0  0  0  0  0  0  0  0  0  0  0
   -2.3546    3.9651    9.1357 C   0  0  0  0  0  0  0  0  0  0  0  0
   -2.7819    2.7787    8.2609 C   0  0  1  0  0  0  0  0  0  0  0  0
   -3.8580    3.1182    7.4008 O   0  0  0  0  0  0  0  0  0  0  0  0
   -3.8323    2.2810    6.2488 C   0  0  1  0  0  0  0  0  0  0  0  0
   -3.9788    3.0709    5.0747 O   0  0  0  0  0  0  0  0  0  0  0  0
   -2.9382    3.9884    4.7779 C   0  0  2  0  0  0  0  0  0  0  0  0
   -3.4124    5.3870    5.2036 C   0  0  1  0  0  0  0  0  0  0  0  0
   -3.4823    5.4578    6.6191 O   0  0  0  0  0  0  0  0  0  0  0  0
   -2.4980    6.5284    4.7335 C   0  0  2  0  0  0  0  0  0  0  0  0
   -3.0624    7.8389    5.0916 N   0  0  0  0  0  0  0  0  0  0  0  0
   -2.3144    6.4509    3.2224 C   0  0  0  0  0  0  0  0  0  0  0  0
   -1.7693    5.0799    2.8415 C   0  0  2  0  0  0  0  0  0  0  0  0
   -1.5512    5.0528    1.3912 N   0  0  0  0  0  0  0  0  0  0  0  0
   -2.7413    3.9698    3.2959 C   0  0  1  0  0  0  0  0  0  0  0  0
   -2.1394    2.7365    2.8740 O   0  0  0  0  0  0  0  0  0  0  0  0
   -2.5068    2.2402    1.5913 C   0  0  1  0  0  0  0  0  0  0  0  0
   -1.3543    1.8258    0.8629 O   0  0  0  0  0  0  0  0  0  0  0  0
   -0.6823    0.6671    1.3521 C   0  0  2  0  0  0  0  0  0  0  0  0
    0.5228    0.3730    0.4489 C   0  0  0  0  0  0  0  0  0  0  0  0
    0.1171   -0.2436   -0.8062 N   0  0  0  0  0  0  0  0  0  0  0  0
   -1.6285   -0.5478    1.3720 C   0  0  1  0  0  0  0  0  0  0  0  0
   -0.9563   -1.6698    1.9157 O   0  0  0  0  0  0  0  0  0  0  0  0
   -2.8522   -0.2057    2.2310 C   0  0  2  0  0  0  0  0  0  0  0  0
   -3.7833   -1.2711    2.1979 O   0  0  0  0  0  0  0  0  0  0  0  0
   -3.5109    1.0920    1.7438 C   0  0  1  0  0  0  0  0  0  0  0  0
   -4.6020    1.4759    2.6507 N   0  0  0  0  0  0  0  0  0  0  0  0
   -2.4622    1.5876    6.2335 C   0  0  2  0  0  0  0  0  0  0  0  0
   -2.6153    0.2146    6.5417 O   0  0  0  0  0  0  0  0  0  0  0  0
   -1.6789    2.3591    7.2945 C   0  0  2  0  0  0  0  0  0  0  0  0
   -0.6477    1.6050    7.9004 O   0  0  0  0  0  0  0  0  0  0  0  0
  2  1  1  0  0  0  0
  3  2  1  6  0  0  0
  3 30  1  0  0  0  0
  4  5  1  0  0  0  0
  4  3  1  0  0  0  0
  5 28  1  0  0  0  0
  5  6  1  6  0  0  0
  7  6  1  6  0  0  0
  8  7  1  0  0  0  0
  8  9  1  1  0  0  0
 10 11  1  6  0  0  0
 10  8  1  0  0  0  0
 12 10  1  0  0  0  0
 13 12  1  0  0  0  0
 13 15  1  0  0  0  0
 13 14  1  6  0  0  0
 15  7  1  0  0  0  0
 15 16  1  1  0  0  0
 17 16  1  1  0  0  0
 18 17  1  0  0  0  0
 19 20  1  6  0  0  0
 19 18  1  0  0  0  0
 20 21  1  0  0  0  0
 22 24  1  0  0  0  0
 22 19  1  0  0  0  0
 22 23  1  1  0  0  0
 24 25  1  6  0  0  0
 24 26  1  0  0  0  0
 26 17  1  0  0  0  0
 26 27  1  1  0  0  0
 28 29  1  1  0  0  0
 28 30  1  0  0  0  0
 30 31  1  1  0  0  0
M  END
>  <CHROM.1>
179.95926347,168.24047296,65.10045969,-101.54636033,-173.45406058,-153.22630557
39.91612060,147.43413411,133.96591815,-76.66739011,-109.86660395,60.18687267
62.89179636,-177.01284000,64.77678587,156.46990966,-2.34489372,2.58090604
4.20055397,-2.89833682,1.40884655,-0.82452030

>  <Name>
lig.pdb

>  <RI>
3.33129e+07

>  <Rbt.Current_Directory>
/home/itssahil/PROJECTS/Mol_Feturizer/New_Systems/rnas/2n0j

>  <Rbt.Executable>
rbdock ($Id: //depot/dev/client3/rdock/2013.1/src/exe/rbdock.cxx#4 $)

>  <Rbt.Library>
libRbt.so (2013.1, Build901 2013/11/27)

>  <Rbt.Parameter_File>
/export/apps/rDock/src/rDock_2013.1_src/data/scripts/dock_solv.prm

>  <Rbt.Receptor>
prm/pocket_docking_4.prm

>  <SCORE>
-30.3115

>  <SCORE.INTER>
-33.219

>  <SCORE.INTER.CONST>
1

>  <SCORE.INTER.POLAR>
-4.52812

>  <SCORE.INTER.ROT>
6

>  <SCORE.INTER.SOLV>
12.9953

>  <SCORE.INTER.VDW>
-18.984

>  <SCORE.INTER.norm>
-1.07158

>  <SCORE.INTRA>
2.90752

>  <SCORE.INTRA.DIHEDRAL>
-1.62512

>  <SCORE.INTRA.DIHEDRAL.0>
28.0161

>  <SCORE.INTRA.POLAR>
0.057985

>  <SCORE.INTRA.POLAR.0>
-1.05798

>  <SCORE.INTRA.REPUL>
0.0195195

>  <SCORE.INTRA.REPUL.0>
0

>  <SCORE.INTRA.SOLV>
1.78532

>  <SCORE.INTRA.SOLV.lig_0>
-42.5945

>  <SCORE.INTRA.VDW>
2.53268

>  <SCORE.INTRA.VDW.0>
-5.13869

>  <SCORE.INTRA.norm>
0.0937911

>  <SCORE.RESTR>
0

>  <SCORE.RESTR.CAVITY>
0

>  <SCORE.RESTR.norm>
0

>  <SCORE.SYSTEM>
0

>  <SCORE.SYSTEM.CONST>
0

>  <SCORE.SYSTEM.DIHEDRAL>
0

>  <SCORE.SYSTEM.SOLV>
0

>  <SCORE.SYSTEM.norm>
0

>  <SCORE.heavy>
31

>  <SCORE.norm>
-0.977789

>  <RMSD>
5.359

$$$$
lig.pdb
 OpenBabel11021811453D
libRbt.so/2013.1/901 2013/11/27
 31 33  0  0  0  0  0  0  0  0999 V2000
   -7.9949    3.8654    5.5985 O   0  0  0  0  0  0  0  0  0  0  0  0
   -7.1313    3.8384    4.4789 C   0  0  0  0  0  0  0  0  0  0  0  0
   -5.7137    3.4032    4.8741 C   0  0  1  0  0  0  0  0  0  0  0  0
   -4.8880    3.2010    3.7381 O   0  0  0  0  0  0  0  0  0  0  0  0
   -3.5237    3.3981    4.0970 C   0  0  1  0  0  0  0  0  0  0  0  0
   -2.8908    4.2425    3.1429 O   0  0  0  0  0  0  0  0  0  0  0  0
   -1.5559    4.6389    3.4142 C   0  0  2  0  0  0  0  0  0  0  0  0
   -1.3053    5.9682    2.6845 C   0  0  1  0  0  0  0  0  0  0  0  0
   -2.0579    7.0012    3.3010 O   0  0  0  0  0  0  0  0  0  0  0  0
    0.1650    6.4135    2.6813 C   0  0  2  0  0  0  0  0  0  0  0  0
    0.3443    7.6376    1.8855 N   0  0  0  0  0  0  0  0  0  0  0  0
    1.0371    5.3030    2.1074 C   0  0  0  0  0  0  0  0  0  0  0  0
    0.8238    4.0205    2.9021 C   0  0  2  0  0  0  0  0  0  0  0  0
    1.7140    2.9864    2.3638 N   0  0  0  0  0  0  0  0  0  0  0  0
   -0.6577    3.5903    2.8405 C   0  0  1  0  0  0  0  0  0  0  0  0
   -0.7363    2.3754    3.6016 O   0  0  0  0  0  0  0  0  0  0  0  0
   -1.7852    1.4704    3.2736 C   0  0  1  0  0  0  0  0  0  0  0  0
   -1.6866    1.0576    1.9133 O   0  0  0  0  0  0  0  0  0  0  0  0
   -0.5781    0.2220    1.5868 C   0  0  2  0  0  0  0  0  0  0  0  0
   -0.6370   -0.1204    0.0922 C   0  0  0  0  0  0  0  0  0  0  0  0
    0.6941   -0.2526   -0.4826 N   0  0  0  0  0  0  0  0  0  0  0  0
   -0.6037   -1.0728    2.4202 C   0  0  1  0  0  0  0  0  0  0  0  0
    0.5367   -1.8579    2.1209 O   0  0  0  0  0  0  0  0  0  0  0  0
   -0.6058   -0.7015    3.9084 C   0  0  2  0  0  0  0  0  0  0  0  0
   -0.7176   -1.8686    4.7011 O   0  0  0  0  0  0  0  0  0  0  0  0
   -1.7531    0.2678    4.2235 C   0  0  1  0  0  0  0  0  0  0  0  0
   -1.6673    0.7146    5.6212 N   0  0  0  0  0  0  0  0  0  0  0  0
   -3.5199    4.0830    5.4714 C   0  0  2  0  0  0  0  0  0  0  0  0
   -3.0691    3.1750    6.4592 O   0  0  0  0  0  0  0  0  0  0  0  0
   -4.9810    4.4921    5.6514 C   0  0  2  0  0  0  0  0  0  0  0  0
   -5.3807    4.5930    7.0039 O   0  0  0  0  0  0  0  0  0  0  0  0
  2  1  1  0  0  0  0
  3  2  1  6  0  0  0
  3 30  1  0  0  0  0
  4  5  1  0  0  0  0
  4  3  1  0  0  0  0
  5 28  1  0  0  0  0
  5  6  1  6  0  0  0
  7  6  1  6  0  0  0
  8  7  1  0  0  0  0
  8  9  1  1  0  0  0
 10 11  1  6  0  0  0
 10  8  1  0  0  0  0
 12 10  1  0  0  0  0
 13 12  1  0  0  0  0
 13 15  1  0  0  0  0
 13 14  1  6  0  0  0
 15  7  1  0  0  0  0
 15 16  1  1  0  0  0
 17 16  1  1  0  0  0
 18 17  1  0  0  0  0
 19 20  1  6  0  0  0
 19 18  1  0  0  0  0
 20 21  1  0  0  0  0
 22 24  1  0  0  0  0
 22 19  1  0  0  0  0
 22 23  1  1  0  0  0
 24 25  1  1  0  0  0
 24 26  1  0  0  0  0
 26 17  1  0  0  0  0
 26 27  1  1  0  0  0
 28 29  1  1  0  0  0
 28 30  1  0  0  0  0
 30 31  1  1  0  0  0
M  END
>  <CHROM.1>
-56.64101660,172.17719746,174.53473489,-154.55943696,-97.20582022,-56.07370805
-57.32443393,85.08387454,59.24767899,146.67739860,99.56835816,-68.85284806
56.44880055,174.68388300,-179.57923353,-176.15116104,-1.93694694,2.76120944
3.48789310,2.52198904,0.55666289,-0.01491229

>  <Name>
lig.pdb

>  <RI>
0

>  <Rbt.Current_Directory>
/home/itssahil/PROJECTS/Mol_Feturizer/New_Systems/rnas/2n0j

>  <Rbt.Executable>
rbdock ($Id: //depot/dev/client3/rdock/2013.1/src/exe/rbdock.cxx#4 $)

>  <Rbt.Library>
libRbt.so (2013.1, Build901 2013/11/27)

>  <Rbt.Parameter_File>
/export/apps/rDock/src/rDock_2013.1_src/data/scripts/dock_solv.prm

>  <Rbt.Receptor>
prm/pocket_docking_5.prm

>  <SCORE>
-43.6247

>  <SCORE.INTER>
-41.4264

>  <SCORE.INTER.CONST>
1

>  <SCORE.INTER.POLAR>
-5.62042

>  <SCORE.INTER.ROT>
6

>  <SCORE.INTER.SOLV>
14.0761

>  <SCORE.INTER.VDW>
-21.1749

>  <SCORE.INTER.norm>
-1.33633

>  <SCORE.INTRA>
-2.19829

>  <SCORE.INTRA.DIHEDRAL>
-10.5218

>  <SCORE.INTRA.DIHEDRAL.0>
28.0161

>  <SCORE.INTRA.POLAR>
0.0502918

>  <SCORE.INTRA.POLAR.0>
-1.05798

>  <SCORE.INTRA.REPUL>
0

>  <SCORE.INTRA.REPUL.0>
0

>  <SCORE.INTRA.SOLV>
1.41891

>  <SCORE.INTRA.SOLV.lig_0>
-42.5945

>  <SCORE.INTRA.VDW>
2.18216

>  <SCORE.INTRA.VDW.0>
-5.13869

>  <SCORE.INTRA.norm>
-0.0709127

>  <SCORE.RESTR>
0

>  <SCORE.RESTR.CAVITY>
0

>  <SCORE.RESTR.norm>
0

>  <SCORE.SYSTEM>
0

>  <SCORE.SYSTEM.CONST>
0

>  <SCORE.SYSTEM.DIHEDRAL>
0

>  <SCORE.SYSTEM.SOLV>
0

>  <SCORE.SYSTEM.norm>
0

>  <SCORE.heavy>
31

>  <SCORE.norm>
-1.40725

>  <RMSD>
5.364

$$$$
lig.pdb
 OpenBabel11021811453D
libRbt.so/2013.1/901 2013/11/27
 31 33  0  0  0  0  0  0  0  0999 V2000
   -1.4027    7.3334    2.5666 O   0  0  0  0  0  0  0  0  0  0  0  0
   -0.7437    6.3058    1.8526 C   0  0  0  0  0  0  0  0  0  0  0  0
   -1.1684    4.9168    2.3481 C   0  0  1  0  0  0  0  0  0  0  0  0
   -1.0886    3.9426    1.3197 O   0  0  0  0  0  0  0  0  0  0  0  0
   -0.8909    2.6547    1.8949 C   0  0  1  0  0  0  0  0  0  0  0  0
    0.1642    1.9810    1.2190 O   0  0  0  0  0  0  0  0  0  0  0  0
   -0.0969    0.6633    0.7626 C   0  0  2  0  0  0  0  0  0  0  0  0
   -1.4360    0.6863    0.0087 C   0  0  1  0  0  0  0  0  0  0  0  0
   -1.2879    1.4028   -1.2071 O   0  0  0  0  0  0  0  0  0  0  0  0
   -1.9798   -0.7063   -0.3449 C   0  0  2  0  0  0  0  0  0  0  0  0
   -3.3052   -0.6112   -0.9759 N   0  0  0  0  0  0  0  0  0  0  0  0
   -2.0785   -1.5552    0.9171 C   0  0  0  0  0  0  0  0  0  0  0  0
   -0.7170   -1.6225    1.5980 C   0  0  2  0  0  0  0  0  0  0  0  0
   -0.8288   -2.4886    2.7767 N   0  0  0  0  0  0  0  0  0  0  0  0
   -0.2326   -0.2051    1.9721 C   0  0  1  0  0  0  0  0  0  0  0  0
    1.0377   -0.3911    2.6149 O   0  0  0  0  0  0  0  0  0  0  0  0
    1.3446    0.4685    3.7075 C   0  0  1  0  0  0  0  0  0  0  0  0
    0.6002    0.0971    4.8645 O   0  0  0  0  0  0  0  0  0  0  0  0
    0.9529   -1.1454    5.4690 C   0  0  2  0  0  0  0  0  0  0  0  0
    0.0547   -1.3760    6.6915 C   0  0  0  0  0  0  0  0  0  0  0  0
    0.2161   -0.3234    7.6844 N   0  0  0  0  0  0  0  0  0  0  0  0
    2.4313   -1.1448    5.9002 C   0  0  1  0  0  0  0  0  0  0  0  0
    2.7724   -2.4078    6.4434 O   0  0  0  0  0  0  0  0  0  0  0  0
    3.3030   -0.8520    4.6726 C   0  0  2  0  0  0  0  0  0  0  0  0
    4.6630   -0.7580    5.0527 O   0  0  0  0  0  0  0  0  0  0  0  0
    2.8520    0.4432    3.9842 C   0  0  1  0  0  0  0  0  0  0  0  0
    3.6097    0.6445    2.7408 N   0  0  0  0  0  0  0  0  0  0  0  0
   -0.4999    2.8785    3.3629 C   0  0  2  0  0  0  0  0  0  0  0  0
   -1.5622    2.4796    4.2090 O   0  0  0  0  0  0  0  0  0  0  0  0
   -0.2199    4.3796    3.4151 C   0  0  2  0  0  0  0  0  0  0  0  0
   -0.4184    4.9511    4.6930 O   0  0  0  0  0  0  0  0  0  0  0  0
  2  1  1  0  0  0  0
  3  2  1  6  0  0  0
  3 30  1  0  0  0  0
  4  5  1  0  0  0  0
  4  3  1  0  0  0  0
  5 28  1  0  0  0  0
  5  6  1  6  0  0  0
  7  6  1  1  0  0  0
  8  7  1  0  0  0  0
  8  9  1  6  0  0  0
 10 11  1  1  0  0  0
 10  8  1  0  0  0  0
 12 10  1  0  0  0  0
 13 12  1  0  0  0  0
 13 15  1  0  0  0  0
 13 14  1  1  0  0  0
 15  7  1  0  0  0  0
 15 16  1  6  0  0  0
 17 16  1  6  0  0  0
 18 17  1  0  0  0  0
 19 20  1  1  0  0  0
 19 18  1  0  0  0  0
 20 21  1  0  0  0  0
 22 24  1  0  0  0  0
 22 19  1  0  0  0  0
 22 23  1  6  0  0  0
 24 25  1  1  0  0  0
 24 26  1  0  0  0  0
 26 17  1  0  0  0  0
 26 27  1  6  0  0  0
 28 29  1  1  0  0  0
 28 30  1  0  0  0  0
 30 31  1  1  0  0  0
M  END
>  <CHROM.1>
-67.93859180,150.92558232,-129.24704929,48.73975029,49.76465231,174.21515526
46.15555685,96.05425422,74.25754860,-60.47949547,-89.11206817,-69.34465536
-60.54374490,-49.67424114,176.96245539,152.47447879,0.13403228,1.00298181
3.00615461,-2.60137788,0.97822781,-2.89706213

>  <Name>
lig.pdb

>  <RI>
0

>  <Rbt.Current_Directory>
/home/itssahil/PROJECTS/Mol_Feturizer/New_Systems/rnas/2n0j

>  <Rbt.Executable>
rbdock ($Id: //depot/dev/client3/rdock/2013.1/src/exe/rbdock.cxx#4 $)

>  <Rbt.Library>
libRbt.so (2013.1, Build901 2013/11/27)

>  <Rbt.Parameter_File>
/export/apps/rDock/src/rDock_2013.1_src/data/scripts/dock_solv.prm

>  <Rbt.Receptor>
prm/blind_docking_60.prm

>  <SCORE>
-33.2084

>  <SCORE.INTER>
-39.2327

>  <SCORE.INTER.CONST>
1

>  <SCORE.INTER.POLAR>
-4.59473

>  <SCORE.INTER.ROT>
6

>  <SCORE.INTER.SOLV>
25.2031

>  <SCORE.INTER.VDW>
-26.8404

>  <SCORE.INTER.norm>
-1.26557

>  <SCORE.INTRA>
2.88707

>  <SCORE.INTRA.DIHEDRAL>
-5.2778

>  <SCORE.INTRA.DIHEDRAL.0>
28.0161

>  <SCORE.INTRA.POLAR>
0.967388

>  <SCORE.INTRA.POLAR.0>
-1.05798

>  <SCORE.INTRA.REPUL>
0

>  <SCORE.INTRA.REPUL.0>
0

>  <SCORE.INTRA.SOLV>
0.526902

>  <SCORE.INTRA.SOLV.lig_0>
-42.5945

>  <SCORE.INTRA.VDW>
1.9734

>  <SCORE.INTRA.VDW.0>
-5.13869

>  <SCORE.INTRA.norm>
0.0931312

>  <SCORE.RESTR>
3.13723

>  <SCORE.RESTR.CAVITY>
3.13723

>  <SCORE.RESTR.norm>
0.101201

>  <SCORE.SYSTEM>
0

>  <SCORE.SYSTEM.CONST>
0

>  <SCORE.SYSTEM.DIHEDRAL>
0

>  <SCORE.SYSTEM.SOLV>
0

>  <SCORE.SYSTEM.norm>
0

>  <SCORE.heavy>
31

>  <SCORE.norm>
-1.07124

>  <RMSD>
5.368

$$$$
lig.pdb
 OpenBabel11021811453D
libRbt.so/2013.1/901 2013/11/27
 31 33  0  0  0  0  0  0  0  0999 V2000
   -1.4890    2.3404    9.8055 O   0  0  0  0  0  0  0  0  0  0  0  0
   -2.6297    2.0070    9.0388 C   0  0  0  0  0  0  0  0  0  0  0  0
   -3.2326    3.2456    8.3623 C   0  0  1  0  0  0  0  0  0  0  0  0
   -2.4009    3.7365    7.3230 O   0  0  0  0  0  0  0  0  0  0  0  0
   -3.1919    4.4361    6.3671 C   0  0  1  0  0  0  0  0  0  0  0  0
   -2.8536    4.0067    5.0537 O   0  0  0  0  0  0  0  0  0  0  0  0
   -1.6582    4.5241    4.4915 C   0  0  2  0  0  0  0  0  0  0  0  0
   -2.0237    5.7890    3.6986 C   0  0  1  0  0  0  0  0  0  0  0  0
   -2.4068    6.8207    4.5943 O   0  0  0  0  0  0  0  0  0  0  0  0
   -0.8797    6.3375    2.8322 C   0  0  2  0  0  0  0  0  0  0  0  0
   -1.3285    7.4864    2.0304 N   0  0  0  0  0  0  0  0  0  0  0  0
   -0.3660    5.2419    1.9054 C   0  0  0  0  0  0  0  0  0  0  0  0
    0.0613    4.0326    2.7282 C   0  0  2  0  0  0  0  0  0  0  0  0
    0.6011    3.0176    1.8171 N   0  0  0  0  0  0  0  0  0  0  0  0
   -1.1304    3.4918    3.5475 C   0  0  1  0  0  0  0  0  0  0  0  0
   -0.6203    2.3560    4.2625 O   0  0  0  0  0  0  0  0  0  0  0  0
   -1.0692    1.0711    3.8454 C   0  0  1  0  0  0  0  0  0  0  0  0
   -0.0025    0.3319    3.2568 O   0  0  0  0  0  0  0  0  0  0  0  0
    1.0375   -0.0848    4.1389 C   0  0  2  0  0  0  0  0  0  0  0  0
    2.0889   -0.8620    3.3356 C   0  0  0  0  0  0  0  0  0  0  0  0
    1.4798   -1.8939    2.5085 N   0  0  0  0  0  0  0  0  0  0  0  0
    0.4779   -0.9747    5.2644 C   0  0  1  0  0  0  0  0  0  0  0  0
    1.5182   -1.3269    6.1588 O   0  0  0  0  0  0  0  0  0  0  0  0
   -0.6122   -0.1968    6.0121 C   0  0  2  0  0  0  0  0  0  0  0  0
   -1.2080   -1.0195    6.9976 O   0  0  0  0  0  0  0  0  0  0  0  0
   -1.6771    0.3190    5.0348 C   0  0  1  0  0  0  0  0  0  0  0  0
   -2.6446    1.1683    5.7441 N   0  0  0  0  0  0  0  0  0  0  0  0
   -4.6578    4.0849    6.6606 C   0  0  2  0  0  0  0  0  0  0  0  0
   -5.3212    5.2100    7.2060 O   0  0  0  0  0  0  0  0  0  0  0  0
   -4.5384    2.9213    7.6435 C   0  0  2  0  0  0  0  0  0  0  0  0
   -5.6484    2.7926    8.5099 O   0  0  0  0  0  0  0  0  0  0  0  0
  2  1  1  0  0  0  0
  3  2  1  6  0  0  0
  3 30  1  0  0  0  0
  4  5  1  0  0  0  0
  4  3  1  0  0  0  0
  5 28  1  0  0  0  0
  5  6  1  6  0  0  0
  7  6  1  6  0  0  0
  8  7  1  0  0  0  0
  8  9  1  1  0  0  0
 10 11  1  6  0  0  0
 10  8  1  0  0  0  0
 12 10  1  0  0  0  0
 13 12  1  0  0  0  0
 13 15  1  0  0  0  0
 13 14  1  6  0  0  0
 15  7  1  0  0  0  0
 15 16  1  1  0  0  0
 17 16  1  1  0  0  0
 18 17  1  0  0  0  0
 19 20  1  6  0  0  0
 19 18  1  0  0  0  0
 20 21  1  0  0  0  0
 22 24  1  0  0  0  0
 22 19  1  0  0  0  0
 22 23  1  1  0  0  0
 24 25  1  1  0  0  0
 24 26  1  0  0  0  0
 26 17  1  0  0  0  0
 26 27  1  1  0  0  0
 28 29  1  1  0  0  0
 28 30  1  0  0  0  0
 30 31  1  1  0  0  0
M  END
>  <CHROM.1>
-178.91560780,70.16386261,-77.74915704,-92.20122598,65.45319460,99.40109266
-158.20415895,129.97028822,111.82149694,-49.64839119,65.73287632,60.45659708
-65.17201017,-54.42433830,66.10995168,-52.63519559,-1.49838921,2.57844261
5.19009863,2.70871714,0.85328023,-0.62672321

>  <Name>
lig.pdb

>  <RI>
0

>  <Rbt.Current_Directory>
/home/itssahil/PROJECTS/Mol_Feturizer/New_Systems/rnas/2n0j

>  <Rbt.Executable>
rbdock ($Id: //depot/dev/client3/rdock/2013.1/src/exe/rbdock.cxx#4 $)

>  <Rbt.Library>
libRbt.so (2013.1, Build901 2013/11/27)

>  <Rbt.Parameter_File>
/export/apps/rDock/src/rDock_2013.1_src/data/scripts/dock_solv.prm

>  <Rbt.Receptor>
prm/pocket_docking_8.prm

>  <SCORE>
-45.672

>  <SCORE.INTER>
-43.7622

>  <SCORE.INTER.CONST>
1

>  <SCORE.INTER.POLAR>
-6.11506

>  <SCORE.INTER.ROT>
6

>  <SCORE.INTER.SOLV>
12.0011

>  <SCORE.INTER.VDW>
-20.3917

>  <SCORE.INTER.norm>
-1.41168

>  <SCORE.INTRA>
-1.90982

>  <SCORE.INTRA.DIHEDRAL>
-3.30629

>  <SCORE.INTRA.DIHEDRAL.0>
28.0161

>  <SCORE.INTRA.POLAR>
-0.222775

>  <SCORE.INTRA.POLAR.0>
-1.05798

>  <SCORE.INTRA.REPUL>
0

>  <SCORE.INTRA.REPUL.0>
0

>  <SCORE.INTRA.SOLV>
0.451973

>  <SCORE.INTRA.SOLV.lig_0>
-42.5945

>  <SCORE.INTRA.VDW>
0.274776

>  <SCORE.INTRA.VDW.0>
-5.13869

>  <SCORE.INTRA.norm>
-0.0616071

>  <SCORE.RESTR>
0

>  <SCORE.RESTR.CAVITY>
0

>  <SCORE.RESTR.norm>
0

>  <SCORE.SYSTEM>
0

>  <SCORE.SYSTEM.CONST>
0

>  <SCORE.SYSTEM.DIHEDRAL>
0

>  <SCORE.SYSTEM.SOLV>
0

>  <SCORE.SYSTEM.norm>
0

>  <SCORE.heavy>
31

>  <SCORE.norm>
-1.47329

>  <RMSD>
5.392

$$$$
lig.pdb
 OpenBabel11021811453D
libRbt.so/2013.1/901 2013/11/27
 31 33  0  0  0  0  0  0  0  0999 V2000
   -2.0805   -3.2402    1.2630 O   0  0  0  0  0  0  0  0  0  0  0  0
   -1.9557   -2.5926    2.5140 C   0  0  0  0  0  0  0  0  0  0  0  0
   -2.2191   -1.0855    2.3944 C   0  0  1  0  0  0  0  0  0  0  0  0
   -2.3576   -0.4716    3.6660 O   0  0  0  0  0  0  0  0  0  0  0  0
   -1.9998    0.9041    3.5748 C   0  0  1  0  0  0  0  0  0  0  0  0
   -1.1154    1.2441    4.6359 O   0  0  0  0  0  0  0  0  0  0  0  0
   -1.2762    2.5235    5.2276 C   0  0  2  0  0  0  0  0  0  0  0  0
   -2.7240    2.6263    5.7331 C   0  0  1  0  0  0  0  0  0  0  0  0
   -2.9068    1.7572    6.8397 O   0  0  0  0  0  0  0  0  0  0  0  0
   -3.1301    4.0365    6.1876 C   0  0  2  0  0  0  0  0  0  0  0  0
   -4.5512    4.0809    6.5652 N   0  0  0  0  0  0  0  0  0  0  0  0
   -2.8726    5.0330    5.0634 C   0  0  0  0  0  0  0  0  0  0  0  0
   -1.4107    4.9614    4.6393 C   0  0  2  0  0  0  0  0  0  0  0  0
   -1.1793    5.9670    3.5967 N   0  0  0  0  0  0  0  0  0  0  0  0
   -1.0618    3.5388    4.1512 C   0  0  1  0  0  0  0  0  0  0  0  0
    0.3202    3.5937    3.7660 O   0  0  0  0  0  0  0  0  0  0  0  0
    0.6075    3.5600    2.3721 C   0  0  1  0  0  0  0  0  0  0  0  0
    0.6032    4.8760    1.8254 O   0  0  0  0  0  0  0  0  0  0  0  0
    1.6651    5.7336    2.2382 C   0  0  2  0  0  0  0  0  0  0  0  0
    1.4984    7.0963    1.5527 C   0  0  0  0  0  0  0  0  0  0  0  0
    0.5215    7.9288    2.2399 N   0  0  0  0  0  0  0  0  0  0  0  0
    3.0327    5.1283    1.8710 C   0  0  1  0  0  0  0  0  0  0  0  0
    4.0708    5.9688    2.3426 O   0  0  0  0  0  0  0  0  0  0  0  0
    3.1484    3.7426    2.5181 C   0  0  2  0  0  0  0  0  0  0  0  0
    4.3592    3.1225    2.1273 O   0  0  0  0  0  0  0  0  0  0  0  0
    1.9515    2.8628    2.1328 C   0  0  1  0  0  0  0  0  0  0  0  0
    2.0086    1.5861    2.8590 N   0  0  0  0  0  0  0  0  0  0  0  0
   -1.2827    1.0888    2.2295 C   0  0  2  0  0  0  0  0  0  0  0  0
   -2.1082    1.8193    1.3416 O   0  0  0  0  0  0  0  0  0  0  0  0
   -1.0349   -0.3491    1.7761 C   0  0  2  0  0  0  0  0  0  0  0  0
   -0.9437   -0.4951    0.3727 O   0  0  0  0  0  0  0  0  0  0  0  0
  2  1  1  0  0  0  0
  3  2  1  1  0  0  0
  3 30  1  0  0  0  0
  4  5  1  0  0  0  0
  4  3  1  0  0  0  0
  5 28  1  0  0  0  0
  5  6  1  1  0  0  0
  7  6  1  6  0  0  0
  8  7  1  0  0  0  0
  8  9  1  1  0  0  0
 10 11  1  6  0  0  0
 10  8  1  0  0  0  0
 12 10  1  0  0  0  0
 13 12  1  0  0  0  0
 13 15  1  0  0  0  0
 13 14  1  6  0  0  0
 15  7  1  0  0  0  0
 15 16  1  1  0  0  0
 17 16  1  1  0  0  0
 18 17  1  0  0  0  0
 19 20  1  6  0  0  0
 19 18  1  0  0  0  0
 20 21  1  0  0  0  0
 22 24  1  0  0  0  0
 22 19  1  0  0  0  0
 22 23  1  1  0  0  0
 24 25  1  6  0  0  0
 24 26  1  0  0  0  0
 26 17  1  0  0  0  0
 26 27  1  1  0  0  0
 28 29  1  6  0  0  0
 28 30  1  0  0  0  0
 30 31  1  6  0  0  0
M  END
>  <CHROM.1>
172.73885936,168.40636676,-142.15135808,56.88763564,58.11606708,-64.57868104
116.57735397,131.87637874,88.22751414,80.90983121,-70.58557368,-68.35683257
-54.81310888,169.32174628,-178.26672821,64.56042984,-0.45989558,2.78961880
3.19355670,-2.31670086,0.60168194,0.36221462

>  <Name>
lig.pdb

>  <RI>
2.67765e+07

>  <Rbt.Current_Directory>
/home/itssahil/PROJECTS/Mol_Feturizer/New_Systems/rnas/2n0j

>  <Rbt.Executable>
rbdock ($Id: //depot/dev/client3/rdock/2013.1/src/exe/rbdock.cxx#4 $)

>  <Rbt.Library>
libRbt.so (2013.1, Build901 2013/11/27)

>  <Rbt.Parameter_File>
/export/apps/rDock/src/rDock_2013.1_src/data/scripts/dock_solv.prm

>  <Rbt.Receptor>
prm/pocket_docking_2.prm

>  <SCORE>
-26.6139

>  <SCORE.INTER>
-30.1024

>  <SCORE.INTER.CONST>
1

>  <SCORE.INTER.POLAR>
-3.14643

>  <SCORE.INTER.ROT>
6

>  <SCORE.INTER.SOLV>
13.2483

>  <SCORE.INTER.VDW>
-21.5963

>  <SCORE.INTER.norm>
-0.971045

>  <SCORE.INTRA>
2.12867

>  <SCORE.INTRA.DIHEDRAL>
-5.90991

>  <SCORE.INTRA.DIHEDRAL.0>
28.0161

>  <SCORE.INTRA.POLAR>
0.332724

>  <SCORE.INTRA.POLAR.0>
-1.05798

>  <SCORE.INTRA.REPUL>
0

>  <SCORE.INTRA.REPUL.0>
0

>  <SCORE.INTRA.SOLV>
1.57224

>  <SCORE.INTRA.SOLV.lig_0>
-42.5945

>  <SCORE.INTRA.VDW>
3.16624

>  <SCORE.INTRA.VDW.0>
-5.13869

>  <SCORE.INTRA.norm>
0.0686667

>  <SCORE.RESTR>
1.35979

>  <SCORE.RESTR.CAVITY>
1.35979

>  <SCORE.RESTR.norm>
0.0438642

>  <SCORE.SYSTEM>
0

>  <SCORE.SYSTEM.CONST>
0

>  <SCORE.SYSTEM.DIHEDRAL>
0

>  <SCORE.SYSTEM.SOLV>
0

>  <SCORE.SYSTEM.norm>
0

>  <SCORE.heavy>
31

>  <SCORE.norm>
-0.858514

>  <RMSD>
5.394

$$$$
lig.pdb
 OpenBabel11021811453D
libRbt.so/2013.1/901 2013/11/27
 31 33  0  0  0  0  0  0  0  0999 V2000
   -0.8648    7.1146    2.5563 O   0  0  0  0  0  0  0  0  0  0  0  0
   -1.1195    6.0589    1.6503 C   0  0  0  0  0  0  0  0  0  0  0  0
   -1.2103    4.7084    2.3736 C   0  0  1  0  0  0  0  0  0  0  0  0
   -1.2171    3.6212    1.4621 O   0  0  0  0  0  0  0  0  0  0  0  0
   -0.7056    2.4564    2.1028 C   0  0  1  0  0  0  0  0  0  0  0  0
    0.2607    1.8307    1.2669 O   0  0  0  0  0  0  0  0  0  0  0  0
   -0.0409    0.5285    0.7914 C   0  0  2  0  0  0  0  0  0  0  0  0
   -1.3948    0.5971    0.0671 C   0  0  1  0  0  0  0  0  0  0  0  0
   -1.2555    1.3333   -1.1379 O   0  0  0  0  0  0  0  0  0  0  0  0
   -1.9785   -0.7755   -0.3008 C   0  0  2  0  0  0  0  0  0  0  0  0
   -3.3144   -0.6375   -0.9013 N   0  0  0  0  0  0  0  0  0  0  0  0
   -2.0706   -1.6461    0.9468 C   0  0  0  0  0  0  0  0  0  0  0  0
   -0.6970   -1.7581    1.5968 C   0  0  2  0  0  0  0  0  0  0  0  0
   -0.8043   -2.6440    2.7611 N   0  0  0  0  0  0  0  0  0  0  0  0
   -0.1715   -0.3597    1.9870 C   0  0  1  0  0  0  0  0  0  0  0  0
    1.1073   -0.5875    2.5988 O   0  0  0  0  0  0  0  0  0  0  0  0
    1.6377    0.4600    3.4037 C   0  0  1  0  0  0  0  0  0  0  0  0
    0.8632    0.6258    4.5884 O   0  0  0  0  0  0  0  0  0  0  0  0
    0.9372   -0.4310    5.5429 C   0  0  2  0  0  0  0  0  0  0  0  0
    0.0476   -0.0799    6.7429 C   0  0  0  0  0  0  0  0  0  0  0  0
   -0.5370   -1.2692    7.3459 N   0  0  0  0  0  0  0  0  0  0  0  0
    2.3880   -0.6439    6.0134 C   0  0  1  0  0  0  0  0  0  0  0  0
    2.4440   -1.7351    6.9150 O   0  0  0  0  0  0  0  0  0  0  0  0
    3.2660   -0.9327    4.7894 C   0  0  2  0  0  0  0  0  0  0  0  0
    4.6218   -1.0467    5.1790 O   0  0  0  0  0  0  0  0  0  0  0  0
    3.1062    0.1711    3.7353 C   0  0  1  0  0  0  0  0  0  0  0  0
    3.8517   -0.1810    2.5184 N   0  0  0  0  0  0  0  0  0  0  0  0
   -0.0349    2.9224    3.4032 C   0  0  2  0  0  0  0  0  0  0  0  0
   -0.8097    2.5154    4.5157 O   0  0  0  0  0  0  0  0  0  0  0  0
    0.0218    4.4396    3.2318 C   0  0  2  0  0  0  0  0  0  0  0  0
    0.0303    5.1501    4.4542 O   0  0  0  0  0  0  0  0  0  0  0  0
  2  1  1  0  0  0  0
  3  2  1  6  0  0  0
  3 30  1  0  0  0  0
  4  5  1  0  0  0  0
  4  3  1  0  0  0  0
  5 28  1  0  0  0  0
  5  6  1  6  0  0  0
  7  6  1  1  0  0  0
  8  7  1  0  0  0  0
  8  9  1  6  0  0  0
 10 11  1  1  0  0  0
 10  8  1  0  0  0  0
 12 10  1  0  0  0  0
 13 12  1  0  0  0  0
 13 15  1  0  0  0  0
 13 14  1  1  0  0  0
 15  7  1  0  0  0  0
 15 16  1  6  0  0  0
 17 16  1  1  0  0  0
 18 17  1  0  0  0  0
 19 20  1  1  0  0  0
 19 18  1  0  0  0  0
 20 21  1  0  0  0  0
 22 24  1  0  0  0  0
 22 19  1  0  0  0  0
 22 23  1  1  0  0  0
 24 25  1  1  0  0  0
 24 26  1  0  0  0  0
 26 17  1  0  0  0  0
 26 27  1  6  0  0  0
 28 29  1  1  0  0  0
 28 30  1  0  0  0  0
 30 31  1  1  0  0  0
M  END
>  <CHROM.1>
-171.47912738,-169.11447412,-116.13718071,55.52706474,-173.92575160,178.05338021
170.06619296,77.46387203,68.18373227,147.57986182,-54.60001698,60.71636689
85.42712344,160.58032388,-62.88524598,-56.97608572,0.20296478,0.96397793
2.99820104,-2.59090125,0.97335961,-2.93305712

>  <Name>
lig.pdb

>  <RI>
1.79691e+07

>  <Rbt.Current_Directory>
/home/itssahil/PROJECTS/Mol_Feturizer/New_Systems/rnas/2n0j

>  <Rbt.Executable>
rbdock ($Id: //depot/dev/client3/rdock/2013.1/src/exe/rbdock.cxx#4 $)

>  <Rbt.Library>
libRbt.so (2013.1, Build901 2013/11/27)

>  <Rbt.Parameter_File>
/export/apps/rDock/src/rDock_2013.1_src/data/scripts/dock_solv.prm

>  <Rbt.Receptor>
prm/blind_docking_20.prm

>  <SCORE>
-39.5084

>  <SCORE.INTER>
-41.8641

>  <SCORE.INTER.CONST>
1

>  <SCORE.INTER.POLAR>
-5.59454

>  <SCORE.INTER.ROT>
6

>  <SCORE.INTER.SOLV>
24.432

>  <SCORE.INTER.VDW>
-25.005

>  <SCORE.INTER.norm>
-1.35046

>  <SCORE.INTRA>
0.128832

>  <SCORE.INTRA.DIHEDRAL>
-10.7956

>  <SCORE.INTRA.DIHEDRAL.0>
28.0161

>  <SCORE.INTRA.POLAR>
0.416331

>  <SCORE.INTRA.POLAR.0>
-1.05798

>  <SCORE.INTRA.REPUL>
0

>  <SCORE.INTRA.REPUL.0>
0

>  <SCORE.INTRA.SOLV>
1.63508

>  <SCORE.INTRA.SOLV.lig_0>
-42.5945

>  <SCORE.INTRA.VDW>
3.29355

>  <SCORE.INTRA.VDW.0>
-5.13869

>  <SCORE.INTRA.norm>
0.00415588

>  <SCORE.RESTR>
2.22689

>  <SCORE.RESTR.CAVITY>
2.22689

>  <SCORE.RESTR.norm>
0.0718352

>  <SCORE.SYSTEM>
0

>  <SCORE.SYSTEM.CONST>
0

>  <SCORE.SYSTEM.DIHEDRAL>
0

>  <SCORE.SYSTEM.SOLV>
0

>  <SCORE.SYSTEM.norm>
0

>  <SCORE.heavy>
31

>  <SCORE.norm>
-1.27446

>  <RMSD>
5.403

$$$$
lig.pdb
 OpenBabel11021811453D
libRbt.so/2013.1/901 2013/11/27
 31 33  0  0  0  0  0  0  0  0999 V2000
   -1.0171    7.1820    2.6425 O   0  0  0  0  0  0  0  0  0  0  0  0
   -0.6488    6.1369    1.7638 C   0  0  0  0  0  0  0  0  0  0  0  0
   -1.0362    4.7644    2.3308 C   0  0  1  0  0  0  0  0  0  0  0  0
   -0.9917    3.7518    1.3380 O   0  0  0  0  0  0  0  0  0  0  0  0
   -0.7549    2.4889    1.9527 C   0  0  1  0  0  0  0  0  0  0  0  0
    0.2762    1.7991    1.2565 O   0  0  0  0  0  0  0  0  0  0  0  0
   -0.0151    0.4867    0.8030 C   0  0  2  0  0  0  0  0  0  0  0  0
   -1.3377    0.5446    0.0222 C   0  0  1  0  0  0  0  0  0  0  0  0
   -1.1440    1.2482   -1.1947 O   0  0  0  0  0  0  0  0  0  0  0  0
   -1.9158   -0.8335   -0.3337 C   0  0  2  0  0  0  0  0  0  0  0  0
   -3.2250   -0.7031   -0.9918 N   0  0  0  0  0  0  0  0  0  0  0  0
   -2.0651   -1.6706    0.9312 C   0  0  0  0  0  0  0  0  0  0  0  0
   -0.7200   -1.7739    1.6398 C   0  0  2  0  0  0  0  0  0  0  0  0
   -0.8811   -2.6283    2.8212 N   0  0  0  0  0  0  0  0  0  0  0  0
   -0.2008   -0.3691    2.0148 C   0  0  1  0  0  0  0  0  0  0  0  0
    1.0503   -0.5886    2.6842 O   0  0  0  0  0  0  0  0  0  0  0  0
    1.5396    0.4645    3.5076 C   0  0  1  0  0  0  0  0  0  0  0  0
    0.7427    0.5973    4.6815 O   0  0  0  0  0  0  0  0  0  0  0  0
    0.8305   -0.4668    5.6267 C   0  0  2  0  0  0  0  0  0  0  0  0
   -0.0868   -0.1521    6.8159 C   0  0  0  0  0  0  0  0  0  0  0  0
   -0.6096   -1.3651    7.4283 N   0  0  0  0  0  0  0  0  0  0  0  0
    2.2791   -0.6454    6.1178 C   0  0  1  0  0  0  0  0  0  0  0  0
    2.3507   -1.7438    7.0095 O   0  0  0  0  0  0  0  0  0  0  0  0
    3.1834   -0.8979    4.9050 C   0  0  2  0  0  0  0  0  0  0  0  0
    4.5356   -0.9793    5.3147 O   0  0  0  0  0  0  0  0  0  0  0  0
    3.0101    0.2119    3.8594 C   0  0  1  0  0  0  0  0  0  0  0  0
    3.7836   -0.1075    2.6510 N   0  0  0  0  0  0  0  0  0  0  0  0
   -0.3014    2.7731    3.3921 C   0  0  2  0  0  0  0  0  0  0  0  0
   -1.3206    2.3978    4.2997 O   0  0  0  0  0  0  0  0  0  0  0  0
   -0.0354    4.2776    3.3740 C   0  0  2  0  0  0  0  0  0  0  0  0
   -0.1829    4.8964    4.6367 O   0  0  0  0  0  0  0  0  0  0  0  0
  2  1  1  0  0  0  0
  3  2  1  6  0  0  0
  3 30  1  0  0  0  0
  4  5  1  0  0  0  0
  4  3  1  0  0  0  0
  5 28  1  0  0  0  0
  5  6  1  6  0  0  0
  7  6  1  1  0  0  0
  8  7  1  0  0  0  0
  8  9  1  6  0  0  0
 10 11  1  1  0  0  0
 10  8  1  0  0  0  0
 12 10  1  0  0  0  0
 13 12  1  0  0  0  0
 13 15  1  0  0  0  0
 13 14  1  1  0  0  0
 15  7  1  0  0  0  0
 15 16  1  6  0  0  0
 17 16  1  6  0  0  0
 18 17  1  0  0  0  0
 19 20  1  1  0  0  0
 19 18  1  0  0  0  0
 20 21  1  0  0  0  0
 22 24  1  0  0  0  0
 22 19  1  0  0  0  0
 22 23  1  1  0  0  0
 24 25  1  1  0  0  0
 24 26  1  0  0  0  0
 26 17  1  0  0  0  0
 26 27  1  6  0  0  0
 28 29  1  1  0  0  0
 28 30  1  0  0  0  0
 30 31  1  1  0  0  0
M  END
>  <CHROM.1>
80.60387590,164.95658192,-126.10049226,51.11293044,-163.69997251,-61.77373595
54.97399787,78.88638535,70.45070231,149.65924746,-170.25044236,56.66313412
171.63631274,160.29572456,-176.72899101,-53.89306823,0.16410327,0.94035451
3.03625281,-2.60720787,1.01083306,-2.93781962

>  <Name>
lig.pdb

>  <RI>
0

>  <Rbt.Current_Directory>
/home/itssahil/PROJECTS/Mol_Feturizer/New_Systems/rnas/2n0j

>  <Rbt.Executable>
rbdock ($Id: //depot/dev/client3/rdock/2013.1/src/exe/rbdock.cxx#4 $)

>  <Rbt.Library>
libRbt.so (2013.1, Build901 2013/11/27)

>  <Rbt.Parameter_File>
/export/apps/rDock/src/rDock_2013.1_src/data/scripts/dock_solv.prm

>  <Rbt.Receptor>
prm/blind_docking_40.prm

>  <SCORE>
-39.5436

>  <SCORE.INTER>
-44.1006

>  <SCORE.INTER.CONST>
1

>  <SCORE.INTER.POLAR>
-5.66209

>  <SCORE.INTER.ROT>
6

>  <SCORE.INTER.SOLV>
24.1512

>  <SCORE.INTER.VDW>
-26.1772

>  <SCORE.INTER.norm>
-1.4226

>  <SCORE.INTRA>
1.84561

>  <SCORE.INTRA.DIHEDRAL>
-9.7833

>  <SCORE.INTRA.DIHEDRAL.0>
28.0161

>  <SCORE.INTRA.POLAR>
1.00939

>  <SCORE.INTRA.POLAR.0>
-1.05798

>  <SCORE.INTRA.REPUL>
0

>  <SCORE.INTRA.REPUL.0>
0

>  <SCORE.INTRA.SOLV>
1.22284

>  <SCORE.INTRA.SOLV.lig_0>
-42.5945

>  <SCORE.INTRA.VDW>
2.69392

>  <SCORE.INTRA.VDW.0>
-5.13869

>  <SCORE.INTRA.norm>
0.0595358

>  <SCORE.RESTR>
2.7114

>  <SCORE.RESTR.CAVITY>
2.7114

>  <SCORE.RESTR.norm>
0.0874646

>  <SCORE.SYSTEM>
0

>  <SCORE.SYSTEM.CONST>
0

>  <SCORE.SYSTEM.DIHEDRAL>
0

>  <SCORE.SYSTEM.SOLV>
0

>  <SCORE.SYSTEM.norm>
0

>  <SCORE.heavy>
31

>  <SCORE.norm>
-1.2756

>  <RMSD>
5.404

$$$$
lig.pdb
 OpenBabel11021811453D
libRbt.so/2013.1/901 2013/11/27
 31 33  0  0  0  0  0  0  0  0999 V2000
    2.4852    6.1249    2.8817 O   0  0  0  0  0  0  0  0  0  0  0  0
    1.9769    4.8056    2.8458 C   0  0  0  0  0  0  0  0  0  0  0  0
    0.6753    4.7277    2.0364 C   0  0  1  0  0  0  0  0  0  0  0  0
    0.4425    3.4205    1.5363 O   0  0  0  0  0  0  0  0  0  0  0  0
   -0.9550    3.2236    1.3439 C   0  0  1  0  0  0  0  0  0  0  0  0
   -1.3495    1.9793    1.9094 O   0  0  0  0  0  0  0  0  0  0  0  0
   -1.1357    0.8157    1.1263 C   0  0  2  0  0  0  0  0  0  0  0  0
   -2.5081    0.1856    0.8406 C   0  0  1  0  0  0  0  0  0  0  0  0
   -3.2401    1.0162   -0.0470 O   0  0  0  0  0  0  0  0  0  0  0  0
   -2.4361   -1.2110    0.2049 C   0  0  2  0  0  0  0  0  0  0  0  0
   -3.7792   -1.7908    0.0499 N   0  0  0  0  0  0  0  0  0  0  0  0
   -1.5848   -2.1285    1.0747 C   0  0  0  0  0  0  0  0  0  0  0  0
   -0.2054   -1.5125    1.2735 C   0  0  2  0  0  0  0  0  0  0  0  0
    0.6083   -2.4402    2.0665 N   0  0  0  0  0  0  0  0  0  0  0  0
   -0.3264   -0.1314    1.9530 C   0  0  1  0  0  0  0  0  0  0  0  0
    1.0209    0.3415    2.1034 O   0  0  0  0  0  0  0  0  0  0  0  0
    1.3123    1.1137    3.2632 C   0  0  1  0  0  0  0  0  0  0  0  0
    0.5076    0.6947    4.3621 O   0  0  0  0  0  0  0  0  0  0  0  0
    0.7903   -0.5980    4.8937 C   0  0  2  0  0  0  0  0  0  0  0  0
   -0.1658   -0.8751    6.0614 C   0  0  0  0  0  0  0  0  0  0  0  0
   -0.1367   -2.2750    6.4605 N   0  0  0  0  0  0  0  0  0  0  0  0
    2.2485   -0.6830    5.3816 C   0  0  1  0  0  0  0  0  0  0  0  0
    2.5214   -1.9916    5.8502 O   0  0  0  0  0  0  0  0  0  0  0  0
    3.1805   -0.3425    4.2120 C   0  0  2  0  0  0  0  0  0  0  0  0
    4.5260   -0.3263    4.6506 O   0  0  0  0  0  0  0  0  0  0  0  0
    2.8051    1.0122    3.5965 C   0  0  1  0  0  0  0  0  0  0  0  0
    3.6207    1.2669    2.4005 N   0  0  0  0  0  0  0  0  0  0  0  0
   -1.6703    4.3694    2.0744 C   0  0  2  0  0  0  0  0  0  0  0  0
   -2.2321    5.2634    1.1317 O   0  0  0  0  0  0  0  0  0  0  0  0
   -0.5503    4.9951    2.9043 C   0  0  2  0  0  0  0  0  0  0  0  0
   -0.7544    6.3637    3.1949 O   0  0  0  0  0  0  0  0  0  0  0  0
  2  1  1  0  0  0  0
  3  2  1  1  0  0  0
  3 30  1  0  0  0  0
  4  5  1  0  0  0  0
  4  3  1  0  0  0  0
  5 28  1  0  0  0  0
  5  6  1  1  0  0  0
  7  6  1  1  0  0  0
  8  7  1  0  0  0  0
  8  9  1  6  0  0  0
 10 11  1  1  0  0  0
 10  8  1  0  0  0  0
 12 10  1  0  0  0  0
 13 12  1  0  0  0  0
 13 15  1  0  0  0  0
 13 14  1  1  0  0  0
 15  7  1  0  0  0  0
 15 16  1  6  0  0  0
 17 16  1  6  0  0  0
 18 17  1  0  0  0  0
 19 20  1  1  0  0  0
 19 18  1  0  0  0  0
 20 21  1  0  0  0  0
 22 24  1  0  0  0  0
 22 19  1  0  0  0  0
 22 23  1  6  0  0  0
 24 25  1  1  0  0  0
 24 26  1  0  0  0  0
 26 17  1  0  0  0  0
 26 27  1  6  0  0  0
 28 29  1  6  0  0  0
 28 30  1  0  0  0  0
 30 31  1  6  0  0  0
M  END
>  <CHROM.1>
59.71483770,156.34357455,-82.12877304,-117.65729146,-44.39274017,68.72018686
-153.12247650,93.77938020,31.86808816,167.43031137,-40.52724032,-172.12415310
-178.36328223,61.68452596,171.02235632,-74.27001883,0.20020500,1.15031725
2.71386427,-1.91115127,0.64222695,2.99277486

>  <Name>
lig.pdb

>  <RI>
1.79691e+07

>  <Rbt.Current_Directory>
/home/itssahil/PROJECTS/Mol_Feturizer/New_Systems/rnas/2n0j

>  <Rbt.Executable>
rbdock ($Id: //depot/dev/client3/rdock/2013.1/src/exe/rbdock.cxx#4 $)

>  <Rbt.Library>
libRbt.so (2013.1, Build901 2013/11/27)

>  <Rbt.Parameter_File>
/export/apps/rDock/src/rDock_2013.1_src/data/scripts/dock_solv.prm

>  <Rbt.Receptor>
prm/blind_docking_20.prm

>  <SCORE>
-39.4086

>  <SCORE.INTER>
-45.1691

>  <SCORE.INTER.CONST>
1

>  <SCORE.INTER.POLAR>
-7.1862

>  <SCORE.INTER.ROT>
6

>  <SCORE.INTER.SOLV>
23.7888

>  <SCORE.INTER.VDW>
-21.6883

>  <SCORE.INTER.norm>
-1.45707

>  <SCORE.INTRA>
2.44079

>  <SCORE.INTRA.DIHEDRAL>
-3.20727

>  <SCORE.INTRA.DIHEDRAL.0>
28.0161

>  <SCORE.INTRA.POLAR>
0.886422

>  <SCORE.INTRA.POLAR.0>
-1.05798

>  <SCORE.INTRA.REPUL>
0

>  <SCORE.INTRA.REPUL.0>
0

>  <SCORE.INTRA.SOLV>
0.715271

>  <SCORE.INTRA.SOLV.lig_0>
-42.5945

>  <SCORE.INTRA.VDW>
0.672959

>  <SCORE.INTRA.VDW.0>
-5.13869

>  <SCORE.INTRA.norm>
0.0787353

>  <SCORE.RESTR>
3.31974

>  <SCORE.RESTR.CAVITY>
3.31974

>  <SCORE.RESTR.norm>
0.107088

>  <SCORE.SYSTEM>
0

>  <SCORE.SYSTEM.CONST>
0

>  <SCORE.SYSTEM.DIHEDRAL>
0

>  <SCORE.SYSTEM.SOLV>
0

>  <SCORE.SYSTEM.norm>
0

>  <SCORE.heavy>
31

>  <SCORE.norm>
-1.27124

>  <RMSD>
5.411

$$$$
lig.pdb
 OpenBabel11021811453D
libRbt.so/2013.1/901 2013/11/27
 31 33  0  0  0  0  0  0  0  0999 V2000
    0.4038    6.8102    2.4700 O   0  0  0  0  0  0  0  0  0  0  0  0
   -0.6434    6.1847    1.7543 C   0  0  0  0  0  0  0  0  0  0  0  0
   -0.9710    4.8018    2.3336 C   0  0  1  0  0  0  0  0  0  0  0  0
   -1.0080    3.8032    1.3265 O   0  0  0  0  0  0  0  0  0  0  0  0
   -0.7103    2.5338    1.9000 C   0  0  1  0  0  0  0  0  0  0  0  0
    0.2597    1.8611    1.1060 O   0  0  0  0  0  0  0  0  0  0  0  0
   -0.0593    0.5499    0.6678 C   0  0  2  0  0  0  0  0  0  0  0  0
   -1.4374    0.6058   -0.0104 C   0  0  1  0  0  0  0  0  0  0  0  0
   -1.3395    1.3174   -1.2341 O   0  0  0  0  0  0  0  0  0  0  0  0
   -2.0346   -0.7730   -0.3300 C   0  0  2  0  0  0  0  0  0  0  0  0
   -3.3904   -0.6453   -0.8864 N   0  0  0  0  0  0  0  0  0  0  0  0
   -2.0839   -1.6182    0.9374 C   0  0  0  0  0  0  0  0  0  0  0  0
   -0.6887   -1.7190    1.5416 C   0  0  2  0  0  0  0  0  0  0  0  0
   -0.7561   -2.5810    2.7265 N   0  0  0  0  0  0  0  0  0  0  0  0
   -0.1489   -0.3138    1.8849 C   0  0  1  0  0  0  0  0  0  0  0  0
    1.1502   -0.5310    2.4564 O   0  0  0  0  0  0  0  0  0  0  0  0
    1.6482    0.4711    3.3364 C   0  0  1  0  0  0  0  0  0  0  0  0
    0.8728    0.5224    4.5309 O   0  0  0  0  0  0  0  0  0  0  0  0
    0.9853   -0.5993    5.4042 C   0  0  2  0  0  0  0  0  0  0  0  0
    0.0887   -0.3683    6.6279 C   0  0  0  0  0  0  0  0  0  0  0  0
   -1.2796   -0.0551    6.2412 N   0  0  0  0  0  0  0  0  0  0  0  0
    2.4441   -0.7978    5.8561 C   0  0  1  0  0  0  0  0  0  0  0  0
    2.5397   -1.9503    6.6740 O   0  0  0  0  0  0  0  0  0  0  0  0
    3.3270   -0.9652    4.6131 C   0  0  2  0  0  0  0  0  0  0  0  0
    4.6872   -1.0622    4.9917 O   0  0  0  0  0  0  0  0  0  0  0  0
    3.1266    0.2078    3.6440 C   0  0  1  0  0  0  0  0  0  0  0  0
    3.8792   -0.0277    2.4036 N   0  0  0  0  0  0  0  0  0  0  0  0
   -0.1336    2.8017    3.2977 C   0  0  2  0  0  0  0  0  0  0  0  0
   -1.0667    2.4066    4.2860 O   0  0  0  0  0  0  0  0  0  0  0  0
    0.1207    4.3081    3.2777 C   0  0  2  0  0  0  0  0  0  0  0  0
    0.0811    4.9085    4.5572 O   0  0  0  0  0  0  0  0  0  0  0  0
  2  1  1  0  0  0  0
  3  2  1  6  0  0  0
  3 30  1  0  0  0  0
  4  5  1  0  0  0  0
  4  3  1  0  0  0  0
  5 28  1  0  0  0  0
  5  6  1  6  0  0  0
  7  6  1  1  0  0  0
  8  7  1  0  0  0  0
  8  9  1  6  0  0  0
 10 11  1  1  0  0  0
 10  8  1  0  0  0  0
 12 10  1  0  0  0  0
 13 12  1  0  0  0  0
 13 15  1  0  0  0  0
 13 14  1  1  0  0  0
 15  7  1  0  0  0  0
 15 16  1  6  0  0  0
 17 16  1  6  0  0  0
 18 17  1  0  0  0  0
 19 20  1  1  0  0  0
 19 18  1  0  0  0  0
 20 21  1  0  0  0  0
 22 24  1  0  0  0  0
 22 19  1  0  0  0  0
 22 23  1  1  0  0  0
 24 25  1  1  0  0  0
 24 26  1  0  0  0  0
 26 17  1  0  0  0  0
 26 27  1  6  0  0  0
 28 29  1  1  0  0  0
 28 30  1  0  0  0  0
 30 31  1  1  0  0  0
M  END
>  <CHROM.1>
-81.52799113,-129.86909075,-126.45854070,52.06715543,-176.52955443,-50.58413405
-61.21316114,83.97369912,67.00418582,53.26322257,-172.84194473,-64.90220040
80.16338838,163.65490971,-176.05037507,-60.07464722,0.25279688,0.98045031
2.87571201,-2.52558047,0.92375118,-3.02631646

>  <Name>
lig.pdb

>  <RI>
0

>  <Rbt.Current_Directory>
/home/itssahil/PROJECTS/Mol_Feturizer/New_Systems/rnas/2n0j

>  <Rbt.Executable>
rbdock ($Id: //depot/dev/client3/rdock/2013.1/src/exe/rbdock.cxx#4 $)

>  <Rbt.Library>
libRbt.so (2013.1, Build901 2013/11/27)

>  <Rbt.Parameter_File>
/export/apps/rDock/src/rDock_2013.1_src/data/scripts/dock_solv.prm

>  <Rbt.Receptor>
prm/blind_docking_60.prm

>  <SCORE>
-42.1637

>  <SCORE.INTER>
-46.0432

>  <SCORE.INTER.CONST>
1

>  <SCORE.INTER.POLAR>
-6.20163

>  <SCORE.INTER.ROT>
6

>  <SCORE.INTER.SOLV>
23.0475

>  <SCORE.INTER.VDW>
-25.3059

>  <SCORE.INTER.norm>
-1.48526

>  <SCORE.INTRA>
1.08561

>  <SCORE.INTRA.DIHEDRAL>
-7.52862

>  <SCORE.INTRA.DIHEDRAL.0>
28.0161

>  <SCORE.INTRA.POLAR>
0.0632399

>  <SCORE.INTRA.POLAR.0>
-1.05798

>  <SCORE.INTRA.REPUL>
0

>  <SCORE.INTRA.REPUL.0>
0

>  <SCORE.INTRA.SOLV>
1.91141

>  <SCORE.INTRA.SOLV.lig_0>
-42.5945

>  <SCORE.INTRA.VDW>
3.6792

>  <SCORE.INTRA.VDW.0>
-5.13869

>  <SCORE.INTRA.norm>
0.0350198

>  <SCORE.RESTR>
2.79394

>  <SCORE.RESTR.CAVITY>
2.79394

>  <SCORE.RESTR.norm>
0.0901272

>  <SCORE.SYSTEM>
0

>  <SCORE.SYSTEM.CONST>
0

>  <SCORE.SYSTEM.DIHEDRAL>
0

>  <SCORE.SYSTEM.SOLV>
0

>  <SCORE.SYSTEM.norm>
0

>  <SCORE.heavy>
31

>  <SCORE.norm>
-1.36012

>  <RMSD>
5.414

$$$$
lig.pdb
 OpenBabel11021811453D
libRbt.so/2013.1/901 2013/11/27
 31 33  0  0  0  0  0  0  0  0999 V2000
   -3.9124   -1.1703    5.2635 O   0  0  0  0  0  0  0  0  0  0  0  0
   -5.1148   -0.6838    4.6998 C   0  0  0  0  0  0  0  0  0  0  0  0
   -4.9223    0.7080    4.0826 C   0  0  1  0  0  0  0  0  0  0  0  0
   -4.4478    1.6464    5.0350 O   0  0  0  0  0  0  0  0  0  0  0  0
   -3.7310    2.6823    4.3702 C   0  0  1  0  0  0  0  0  0  0  0  0
   -2.4933    2.9143    5.0322 O   0  0  0  0  0  0  0  0  0  0  0  0
   -1.9390    4.2163    4.9303 C   0  0  2  0  0  0  0  0  0  0  0  0
   -2.9113    5.1931    5.6106 C   0  0  1  0  0  0  0  0  0  0  0  0
   -2.9076    4.9727    7.0123 O   0  0  0  0  0  0  0  0  0  0  0  0
   -2.5749    6.6742    5.3799 C   0  0  2  0  0  0  0  0  0  0  0  0
   -3.5980    7.5472    5.9758 N   0  0  0  0  0  0  0  0  0  0  0  0
   -2.4787    6.9527    3.8845 C   0  0  0  0  0  0  0  0  0  0  0  0
   -1.4501    6.0218    3.2543 C   0  0  2  0  0  0  0  0  0  0  0  0
   -1.3389    6.3486    1.8286 N   0  0  0  0  0  0  0  0  0  0  0  0
   -1.8529    4.5477    3.4749 C   0  0  1  0  0  0  0  0  0  0  0  0
   -0.8313    3.7706    2.8316 O   0  0  0  0  0  0  0  0  0  0  0  0
    0.3125    3.4316    3.6084 C   0  0  1  0  0  0  0  0  0  0  0  0
    0.1469    2.1537    4.2169 O   0  0  0  0  0  0  0  0  0  0  0  0
    0.1500    1.0314    3.3372 C   0  0  2  0  0  0  0  0  0  0  0  0
   -0.0368   -0.2482    4.1634 C   0  0  0  0  0  0  0  0  0  0  0  0
   -0.1200   -1.4289    3.3157 N   0  0  0  0  0  0  0  0  0  0  0  0
    1.4713    0.9560    2.5498 C   0  0  1  0  0  0  0  0  0  0  0  0
    1.4268   -0.1307    1.6422 O   0  0  0  0  0  0  0  0  0  0  0  0
    1.6635    2.2697    1.7819 C   0  0  2  0  0  0  0  0  0  0  0  0
    2.9127    2.2665    1.1168 O   0  0  0  0  0  0  0  0  0  0  0  0
    1.5694    3.4714    2.7318 C   0  0  1  0  0  0  0  0  0  0  0  0
    1.6273    4.7253    1.9670 N   0  0  0  0  0  0  0  0  0  0  0  0
   -3.4641    2.1910    2.9400 C   0  0  2  0  0  0  0  0  0  0  0  0
   -4.2619    2.9193    2.0253 O   0  0  0  0  0  0  0  0  0  0  0  0
   -3.8332    0.7103    3.0146 C   0  0  2  0  0  0  0  0  0  0  0  0
   -4.2474    0.1644    1.7779 O   0  0  0  0  0  0  0  0  0  0  0  0
  2  1  1  0  0  0  0
  3  2  1  1  0  0  0
  3 30  1  0  0  0  0
  4  5  1  0  0  0  0
  4  3  1  0  0  0  0
  5 28  1  0  0  0  0
  5  6  1  1  0  0  0
  7  6  1  6  0  0  0
  8  7  1  0  0  0  0
  8  9  1  1  0  0  0
 10 11  1  6  0  0  0
 10  8  1  0  0  0  0
 12 10  1  0  0  0  0
 13 12  1  0  0  0  0
 13 15  1  0  0  0  0
 13 14  1  6  0  0  0
 15  7  1  0  0  0  0
 15 16  1  6  0  0  0
 17 16  1  6  0  0  0
 18 17  1  0  0  0  0
 19 20  1  1  0  0  0
 19 18  1  0  0  0  0
 20 21  1  0  0  0  0
 22 24  1  0  0  0  0
 22 19  1  0  0  0  0
 22 23  1  6  0  0  0
 24 25  1  1  0  0  0
 24 26  1  0  0  0  0
 26 17  1  0  0  0  0
 26 27  1  6  0  0  0
 28 29  1  6  0  0  0
 28 30  1  0  0  0  0
 30 31  1  6  0  0  0
M  END
>  <CHROM.1>
165.33927934,-57.80481433,-152.53838979,63.40528730,-56.21411083,-59.42384922
67.60330432,-32.56749204,93.46263737,176.70613391,41.92028528,-168.96382153
-52.57260019,43.85586394,-52.39063349,-170.85797336,-1.64460245,2.77278868
3.61995896,0.99824513,-0.42235124,-2.99351936

>  <Name>
lig.pdb

>  <RI>
2.74555e+07

>  <Rbt.Current_Directory>
/home/itssahil/PROJECTS/Mol_Feturizer/New_Systems/rnas/2n0j

>  <Rbt.Executable>
rbdock ($Id: //depot/dev/client3/rdock/2013.1/src/exe/rbdock.cxx#4 $)

>  <Rbt.Library>
libRbt.so (2013.1, Build901 2013/11/27)

>  <Rbt.Parameter_File>
/export/apps/rDock/src/rDock_2013.1_src/data/scripts/dock_solv.prm

>  <Rbt.Receptor>
prm/pocket_docking_6.prm

>  <SCORE>
-36.9297

>  <SCORE.INTER>
-36.0872

>  <SCORE.INTER.CONST>
1

>  <SCORE.INTER.POLAR>
-4.33506

>  <SCORE.INTER.ROT>
6

>  <SCORE.INTER.SOLV>
15.6269

>  <SCORE.INTER.VDW>
-22.4169

>  <SCORE.INTER.norm>
-1.1641

>  <SCORE.INTRA>
-0.842555

>  <SCORE.INTRA.DIHEDRAL>
-12.9553

>  <SCORE.INTRA.DIHEDRAL.0>
28.0161

>  <SCORE.INTRA.POLAR>
0.250675

>  <SCORE.INTRA.POLAR.0>
-1.05798

>  <SCORE.INTRA.REPUL>
0

>  <SCORE.INTRA.REPUL.0>
0

>  <SCORE.INTRA.SOLV>
1.83222

>  <SCORE.INTRA.SOLV.lig_0>
-42.5945

>  <SCORE.INTRA.VDW>
3.86667

>  <SCORE.INTRA.VDW.0>
-5.13869

>  <SCORE.INTRA.norm>
-0.0271792

>  <SCORE.RESTR>
0

>  <SCORE.RESTR.CAVITY>
0

>  <SCORE.RESTR.norm>
0

>  <SCORE.SYSTEM>
0

>  <SCORE.SYSTEM.CONST>
0

>  <SCORE.SYSTEM.DIHEDRAL>
0

>  <SCORE.SYSTEM.SOLV>
0

>  <SCORE.SYSTEM.norm>
0

>  <SCORE.heavy>
31

>  <SCORE.norm>
-1.19128

>  <RMSD>
5.418

$$$$
lig.pdb
 OpenBabel11021811453D
libRbt.so/2013.1/901 2013/11/27
 31 33  0  0  0  0  0  0  0  0999 V2000
   -6.1138    2.8356    9.4379 O   0  0  0  0  0  0  0  0  0  0  0  0
   -5.3310    3.7098    8.6486 C   0  0  0  0  0  0  0  0  0  0  0  0
   -5.0272    3.1028    7.2722 C   0  0  1  0  0  0  0  0  0  0  0  0
   -4.1008    3.8904    6.5411 O   0  0  0  0  0  0  0  0  0  0  0  0
   -3.4011    3.0675    5.6126 C   0  0  1  0  0  0  0  0  0  0  0  0
   -2.0045    3.3253    5.6963 O   0  0  0  0  0  0  0  0  0  0  0  0
   -1.5194    4.4834    5.0357 C   0  0  2  0  0  0  0  0  0  0  0  0
   -2.4404    5.6555    5.4100 C   0  0  1  0  0  0  0  0  0  0  0  0
   -2.2578    5.9894    6.7770 O   0  0  0  0  0  0  0  0  0  0  0  0
   -2.1942    6.9318    4.5910 C   0  0  2  0  0  0  0  0  0  0  0  0
   -3.1718    7.9762    4.9340 N   0  0  0  0  0  0  0  0  0  0  0  0
   -2.2916    6.6148    3.1034 C   0  0  0  0  0  0  0  0  0  0  0  0
   -1.3104    5.5036    2.7503 C   0  0  2  0  0  0  0  0  0  0  0  0
   -1.3863    5.2578    1.3062 N   0  0  0  0  0  0  0  0  0  0  0  0
   -1.6239    4.2307    3.5658 C   0  0  1  0  0  0  0  0  0  0  0  0
   -0.6575    3.2566    3.1430 O   0  0  0  0  0  0  0  0  0  0  0  0
   -0.9256    1.8953    3.4617 C   0  0  1  0  0  0  0  0  0  0  0  0
   -2.2244    1.5195    3.0119 O   0  0  0  0  0  0  0  0  0  0  0  0
   -2.4051    1.4442    1.5994 C   0  0  2  0  0  0  0  0  0  0  0  0
   -3.8522    1.0272    1.3049 C   0  0  0  0  0  0  0  0  0  0  0  0
   -4.7919    2.1000    1.5980 N   0  0  0  0  0  0  0  0  0  0  0  0
   -1.4316    0.4269    0.9758 C   0  0  1  0  0  0  0  0  0  0  0  0
   -1.5898    0.4131   -0.4318 O   0  0  0  0  0  0  0  0  0  0  0  0
    0.0031    0.8325    1.3358 C   0  0  2  0  0  0  0  0  0  0  0  0
    0.9179   -0.1321    0.8507 O   0  0  0  0  0  0  0  0  0  0  0  0
    0.1556    0.9943    2.8543 C   0  0  1  0  0  0  0  0  0  0  0  0
    1.4957    1.5056    3.1756 N   0  0  0  0  0  0  0  0  0  0  0  0
   -3.6792    1.6110    6.0117 C   0  0  2  0  0  0  0  0  0  0  0  0
   -4.5297    1.0053    5.0560 O   0  0  0  0  0  0  0  0  0  0  0  0
   -4.3257    1.7533    7.3887 C   0  0  2  0  0  0  0  0  0  0  0  0
   -5.1931    0.6878    7.7225 O   0  0  0  0  0  0  0  0  0  0  0  0
  2  1  1  0  0  0  0
  3  2  1  1  0  0  0
  3 30  1  0  0  0  0
  4  5  1  0  0  0  0
  4  3  1  0  0  0  0
  5 28  1  0  0  0  0
  5  6  1  1  0  0  0
  7  6  1  1  0  0  0
  8  7  1  0  0  0  0
  8  9  1  1  0  0  0
 10 11  1  1  0  0  0
 10  8  1  0  0  0  0
 12 10  1  0  0  0  0
 13 12  1  0  0  0  0
 13 15  1  0  0  0  0
 13 14  1  6  0  0  0
 15  7  1  0  0  0  0
 15 16  1  6  0  0  0
 17 16  1  6  0  0  0
 18 17  1  0  0  0  0
 19 20  1  1  0  0  0
 19 18  1  0  0  0  0
 20 21  1  0  0  0  0
 22 24  1  0  0  0  0
 22 19  1  0  0  0  0
 22 23  1  6  0  0  0
 24 25  1  1  0  0  0
 24 26  1  0  0  0  0
 26 17  1  0  0  0  0
 26 27  1  6  0  0  0
 28 29  1  6  0  0  0
 28 30  1  0  0  0  0
 30 31  1  6  0  0  0
M  END
>  <CHROM.1>
-174.78172213,-172.28394540,-79.33981716,47.33032996,-71.45584092,-158.78733238
-58.71308538,75.49396091,52.86127818,71.68658065,57.81226890,-62.76274714
-60.84764487,-56.48448036,-168.73430085,-50.70221410,-2.51440647,2.98169765
4.18947008,2.55319494,0.93400602,0.30535432

>  <Name>
lig.pdb

>  <RI>
0

>  <Rbt.Current_Directory>
/home/itssahil/PROJECTS/Mol_Feturizer/New_Systems/rnas/2n0j

>  <Rbt.Executable>
rbdock ($Id: //depot/dev/client3/rdock/2013.1/src/exe/rbdock.cxx#4 $)

>  <Rbt.Library>
libRbt.so (2013.1, Build901 2013/11/27)

>  <Rbt.Parameter_File>
/export/apps/rDock/src/rDock_2013.1_src/data/scripts/dock_solv.prm

>  <Rbt.Receptor>
prm/pocket_docking_5.prm

>  <SCORE>
-42.9133

>  <SCORE.INTER>
-35.9377

>  <SCORE.INTER.CONST>
1

>  <SCORE.INTER.POLAR>
-4.91779

>  <SCORE.INTER.ROT>
6

>  <SCORE.INTER.SOLV>
14.6161

>  <SCORE.INTER.VDW>
-20.0379

>  <SCORE.INTER.norm>
-1.15928

>  <SCORE.INTRA>
-6.97559

>  <SCORE.INTRA.DIHEDRAL>
-20.2258

>  <SCORE.INTRA.DIHEDRAL.0>
28.0161

>  <SCORE.INTRA.POLAR>
-0.0626436

>  <SCORE.INTRA.POLAR.0>
-1.05798

>  <SCORE.INTRA.REPUL>
0

>  <SCORE.INTRA.REPUL.0>
0

>  <SCORE.INTRA.SOLV>
1.13557

>  <SCORE.INTRA.SOLV.lig_0>
-42.5945

>  <SCORE.INTRA.VDW>
2.78252

>  <SCORE.INTRA.VDW.0>
-5.13869

>  <SCORE.INTRA.norm>
-0.225019

>  <SCORE.RESTR>
0

>  <SCORE.RESTR.CAVITY>
0

>  <SCORE.RESTR.norm>
0

>  <SCORE.SYSTEM>
0

>  <SCORE.SYSTEM.CONST>
0

>  <SCORE.SYSTEM.DIHEDRAL>
0

>  <SCORE.SYSTEM.SOLV>
0

>  <SCORE.SYSTEM.norm>
0

>  <SCORE.heavy>
31

>  <SCORE.norm>
-1.3843

>  <RMSD>
5.423

$$$$
lig.pdb
 OpenBabel11021811453D
libRbt.so/2013.1/901 2013/11/27
 31 33  0  0  0  0  0  0  0  0999 V2000
   -4.6419    2.8699   11.4454 O   0  0  0  0  0  0  0  0  0  0  0  0
   -4.0672    3.5600   10.3529 C   0  0  0  0  0  0  0  0  0  0  0  0
   -4.3378    2.8362    9.0270 C   0  0  1  0  0  0  0  0  0  0  0  0
   -3.7273    3.4980    7.9305 O   0  0  0  0  0  0  0  0  0  0  0  0
   -3.4708    2.5612    6.8887 C   0  0  1  0  0  0  0  0  0  0  0  0
   -2.1382    2.7180    6.4160 O   0  0  0  0  0  0  0  0  0  0  0  0
   -1.8920    3.7872    5.5165 C   0  0  2  0  0  0  0  0  0  0  0  0
   -2.5199    5.0558    6.1152 C   0  0  1  0  0  0  0  0  0  0  0  0
   -1.7892    5.4543    7.2645 O   0  0  0  0  0  0  0  0  0  0  0  0
   -2.5489    6.2539    5.1540 C   0  0  2  0  0  0  0  0  0  0  0  0
   -3.2482    7.3987    5.7579 N   0  0  0  0  0  0  0  0  0  0  0  0
   -3.2487    5.8574    3.8594 C   0  0  0  0  0  0  0  0  0  0  0  0
   -2.5539    4.6454    3.2509 C   0  0  2  0  0  0  0  0  0  0  0  0
   -3.2127    4.3204    1.9813 N   0  0  0  0  0  0  0  0  0  0  0  0
   -2.5877    3.4563    4.2351 C   0  0  1  0  0  0  0  0  0  0  0  0
   -1.9265    2.3776    3.5563 O   0  0  0  0  0  0  0  0  0  0  0  0
   -0.5735    2.1173    3.9146 C   0  0  1  0  0  0  0  0  0  0  0  0
   -0.4935    1.0089    4.8065 O   0  0  0  0  0  0  0  0  0  0  0  0
   -0.8147   -0.2671    4.2568 C   0  0  2  0  0  0  0  0  0  0  0  0
   -0.6728   -1.3308    5.3537 C   0  0  0  0  0  0  0  0  0  0  0  0
   -1.5733   -2.4536    5.1345 N   0  0  0  0  0  0  0  0  0  0  0  0
    0.1162   -0.6059    3.0777 C   0  0  1  0  0  0  0  0  0  0  0  0
   -0.2598   -1.8492    2.5124 O   0  0  0  0  0  0  0  0  0  0  0  0
    0.0009    0.5027    2.0241 C   0  0  2  0  0  0  0  0  0  0  0  0
    0.9104    0.2651    0.9661 O   0  0  0  0  0  0  0  0  0  0  0  0
    0.2636    1.8776    2.6531 C   0  0  1  0  0  0  0  0  0  0  0  0
    0.0253    2.9390    1.6645 N   0  0  0  0  0  0  0  0  0  0  0  0
   -3.6382    1.1617    7.4980 C   0  0  2  0  0  0  0  0  0  0  0  0
   -4.8142    0.5561    6.9942 O   0  0  0  0  0  0  0  0  0  0  0  0
   -3.7039    1.4492    8.9972 C   0  0  2  0  0  0  0  0  0  0  0  0
   -4.4235    0.4785    9.7314 O   0  0  0  0  0  0  0  0  0  0  0  0
  2  1  1  0  0  0  0
  3  2  1  1  0  0  0
  3 30  1  0  0  0  0
  4  5  1  0  0  0  0
  4  3  1  0  0  0  0
  5 28  1  0  0  0  0
  5  6  1  1  0  0  0
  7  6  1  1  0  0  0
  8  7  1  0  0  0  0
  8  9  1  1  0  0  0
 10 11  1  1  0  0  0
 10  8  1  0  0  0  0
 12 10  1  0  0  0  0
 13 12  1  0  0  0  0
 13 15  1  0  0  0  0
 13 14  1  6  0  0  0
 15  7  1  0  0  0  0
 15 16  1  6  0  0  0
 17 16  1  6  0  0  0
 18 17  1  0  0  0  0
 19 20  1  1  0  0  0
 19 18  1  0  0  0  0
 20 21  1  0  0  0  0
 22 24  1  0  0  0  0
 22 19  1  0  0  0  0
 22 23  1  6  0  0  0
 24 25  1  6  0  0  0
 24 26  1  0  0  0  0
 26 17  1  0  0  0  0
 26 27  1  6  0  0  0
 28 29  1  6  0  0  0
 28 30  1  0  0  0  0
 30 31  1  1  0  0  0
M  END
>  <CHROM.1>
178.05048915,-178.05794187,-79.29726056,48.65852669,-68.29799989,-65.21233307
54.23072490,-20.16202135,100.60698266,150.84526286,97.63180908,-75.41652923
60.87528573,96.62647264,172.21450772,-178.16926761,-2.19297090,2.30667160
5.43747218,3.11830148,1.08007922,-0.40001338

>  <Name>
lig.pdb

>  <RI>
3.33129e+07

>  <Rbt.Current_Directory>
/home/itssahil/PROJECTS/Mol_Feturizer/New_Systems/rnas/2n0j

>  <Rbt.Executable>
rbdock ($Id: //depot/dev/client3/rdock/2013.1/src/exe/rbdock.cxx#4 $)

>  <Rbt.Library>
libRbt.so (2013.1, Build901 2013/11/27)

>  <Rbt.Parameter_File>
/export/apps/rDock/src/rDock_2013.1_src/data/scripts/dock_solv.prm

>  <Rbt.Receptor>
prm/pocket_docking_4.prm

>  <SCORE>
-33.3961

>  <SCORE.INTER>
-39.2723

>  <SCORE.INTER.CONST>
1

>  <SCORE.INTER.POLAR>
-5.63566

>  <SCORE.INTER.ROT>
6

>  <SCORE.INTER.SOLV>
15.6984

>  <SCORE.INTER.VDW>
-20.2288

>  <SCORE.INTER.norm>
-1.26685

>  <SCORE.INTRA>
5.87623

>  <SCORE.INTRA.DIHEDRAL>
-5.17125

>  <SCORE.INTRA.DIHEDRAL.0>
28.0161

>  <SCORE.INTRA.POLAR>
0.650268

>  <SCORE.INTRA.POLAR.0>
-1.05798

>  <SCORE.INTRA.REPUL>
0

>  <SCORE.INTRA.REPUL.0>
0

>  <SCORE.INTRA.SOLV>
0.892988

>  <SCORE.INTRA.SOLV.lig_0>
-42.5945

>  <SCORE.INTRA.VDW>
5.80445

>  <SCORE.INTRA.VDW.0>
-5.13869

>  <SCORE.INTRA.norm>
0.189556

>  <SCORE.RESTR>
0

>  <SCORE.RESTR.CAVITY>
0

>  <SCORE.RESTR.norm>
0

>  <SCORE.SYSTEM>
0

>  <SCORE.SYSTEM.CONST>
0

>  <SCORE.SYSTEM.DIHEDRAL>
0

>  <SCORE.SYSTEM.SOLV>
0

>  <SCORE.SYSTEM.norm>
0

>  <SCORE.heavy>
31

>  <SCORE.norm>
-1.07729

>  <RMSD>
5.428

$$$$
lig.pdb
 OpenBabel11021811453D
libRbt.so/2013.1/901 2013/11/27
 31 33  0  0  0  0  0  0  0  0999 V2000
   -1.2372    7.1871    2.7622 O   0  0  0  0  0  0  0  0  0  0  0  0
   -0.9595    6.1790    1.8101 C   0  0  0  0  0  0  0  0  0  0  0  0
   -1.3212    4.7868    2.3451 C   0  0  1  0  0  0  0  0  0  0  0  0
   -1.2414    3.7956    1.3332 O   0  0  0  0  0  0  0  0  0  0  0  0
   -0.9822    2.5265    1.9257 C   0  0  1  0  0  0  0  0  0  0  0  0
    0.0729    1.8748    1.2286 O   0  0  0  0  0  0  0  0  0  0  0  0
   -0.1910    0.5760    0.7225 C   0  0  2  0  0  0  0  0  0  0  0  0
   -1.5350    0.6282   -0.0213 C   0  0  1  0  0  0  0  0  0  0  0  0
   -1.3947    1.3919   -1.2090 O   0  0  0  0  0  0  0  0  0  0  0  0
   -2.0810   -0.7496   -0.4257 C   0  0  2  0  0  0  0  0  0  0  0  0
   -3.4105   -0.6302   -1.0441 N   0  0  0  0  0  0  0  0  0  0  0  0
   -2.1716   -1.6474    0.8026 C   0  0  0  0  0  0  0  0  0  0  0  0
   -0.8058   -1.7410    1.4716 C   0  0  2  0  0  0  0  0  0  0  0  0
   -0.9100   -2.6527    2.6160 N   0  0  0  0  0  0  0  0  0  0  0  0
   -0.3190   -0.3392    1.8979 C   0  0  1  0  0  0  0  0  0  0  0  0
    0.9554   -0.5500    2.5248 O   0  0  0  0  0  0  0  0  0  0  0  0
    1.3572    0.3935    3.5122 C   0  0  1  0  0  0  0  0  0  0  0  0
    0.4800    0.3519    4.6345 O   0  0  0  0  0  0  0  0  0  0  0  0
    0.5360   -0.8269    5.4349 C   0  0  2  0  0  0  0  0  0  0  0  0
   -0.4677   -0.6929    6.5879 C   0  0  0  0  0  0  0  0  0  0  0  0
   -0.7456   -1.9786    7.2120 N   0  0  0  0  0  0  0  0  0  0  0  0
    1.9532   -1.0398    5.9987 C   0  0  1  0  0  0  0  0  0  0  0  0
    1.9976   -2.2458    6.7405 O   0  0  0  0  0  0  0  0  0  0  0  0
    2.9436   -1.1094    4.8296 C   0  0  2  0  0  0  0  0  0  0  0  0
    4.2673   -1.2170    5.3189 O   0  0  0  0  0  0  0  0  0  0  0  0
    2.8077    0.1264    3.9299 C   0  0  1  0  0  0  0  0  0  0  0  0
    3.6694   -0.0127    2.7472 N   0  0  0  0  0  0  0  0  0  0  0  0
   -0.5524    2.7923    3.3758 C   0  0  2  0  0  0  0  0  0  0  0  0
   -1.5731    2.3753    4.2633 O   0  0  0  0  0  0  0  0  0  0  0  0
   -0.3215    4.3026    3.3906 C   0  0  2  0  0  0  0  0  0  0  0  0
   -0.4983    4.8924    4.6634 O   0  0  0  0  0  0  0  0  0  0  0  0
  2  1  1  0  0  0  0
  3  2  1  6  0  0  0
  3 30  1  0  0  0  0
  4  5  1  0  0  0  0
  4  3  1  0  0  0  0
  5 28  1  0  0  0  0
  5  6  1  6  0  0  0
  7  6  1  1  0  0  0
  8  7  1  0  0  0  0
  8  9  1  6  0  0  0
 10 11  1  1  0  0  0
 10  8  1  0  0  0  0
 12 10  1  0  0  0  0
 13 12  1  0  0  0  0
 13 15  1  0  0  0  0
 13 14  1  1  0  0  0
 15  7  1  0  0  0  0
 15 16  1  6  0  0  0
 17 16  1  6  0  0  0
 18 17  1  0  0  0  0
 19 20  1  1  0  0  0
 19 18  1  0  0  0  0
 20 21  1  0  0  0  0
 22 24  1  0  0  0  0
 22 19  1  0  0  0  0
 22 23  1  6  0  0  0
 24 25  1  1  0  0  0
 24 26  1  0  0  0  0
 26 17  1  0  0  0  0
 26 27  1  6  0  0  0
 28 29  1  1  0  0  0
 28 30  1  0  0  0  0
 30 31  1  1  0  0  0
M  END
>  <CHROM.1>
62.43792979,170.97514666,-124.87361141,48.13381736,-171.71357381,-169.02475262
51.70944673,86.72648703,64.43551992,163.61989463,-57.23956128,-178.60170019
-63.59504416,147.26844081,101.38744530,157.85899766,-0.05066202,0.86005606
2.97998541,-2.52462789,1.01300380,-2.93113831

>  <Name>
lig.pdb

>  <RI>
9.20816e+06

>  <Rbt.Current_Directory>
/home/itssahil/PROJECTS/Mol_Feturizer/New_Systems/rnas/2n0j

>  <Rbt.Executable>
rbdock ($Id: //depot/dev/client3/rdock/2013.1/src/exe/rbdock.cxx#4 $)

>  <Rbt.Library>
libRbt.so (2013.1, Build901 2013/11/27)

>  <Rbt.Parameter_File>
/export/apps/rDock/src/rDock_2013.1_src/data/scripts/dock_solv.prm

>  <Rbt.Receptor>
prm/blind_docking_100.prm

>  <SCORE>
-42.6227

>  <SCORE.INTER>
-45.3751

>  <SCORE.INTER.CONST>
1

>  <SCORE.INTER.POLAR>
-5.54687

>  <SCORE.INTER.ROT>
6

>  <SCORE.INTER.SOLV>
23.788

>  <SCORE.INTER.VDW>
-27.2898

>  <SCORE.INTER.norm>
-1.46371

>  <SCORE.INTRA>
-0.735788

>  <SCORE.INTRA.DIHEDRAL>
-5.11239

>  <SCORE.INTRA.DIHEDRAL.0>
28.0161

>  <SCORE.INTRA.POLAR>
-0.233629

>  <SCORE.INTRA.POLAR.0>
-1.05798

>  <SCORE.INTRA.REPUL>
0

>  <SCORE.INTRA.REPUL.0>
0

>  <SCORE.INTRA.SOLV>
1.3558

>  <SCORE.INTRA.SOLV.lig_0>
-42.5945

>  <SCORE.INTRA.VDW>
1.93685

>  <SCORE.INTRA.VDW.0>
-5.13869

>  <SCORE.INTRA.norm>
-0.0237351

>  <SCORE.RESTR>
3.48819

>  <SCORE.RESTR.CAVITY>
3.48819

>  <SCORE.RESTR.norm>
0.112522

>  <SCORE.SYSTEM>
0

>  <SCORE.SYSTEM.CONST>
0

>  <SCORE.SYSTEM.DIHEDRAL>
0

>  <SCORE.SYSTEM.SOLV>
0

>  <SCORE.SYSTEM.norm>
0

>  <SCORE.heavy>
31

>  <SCORE.norm>
-1.37493

>  <RMSD>
5.433

$$$$
lig.pdb
 OpenBabel11021811453D
libRbt.so/2013.1/901 2013/11/27
 31 33  0  0  0  0  0  0  0  0999 V2000
    1.9110    6.8543    3.0002 O   0  0  0  0  0  0  0  0  0  0  0  0
    1.8879    5.5291    2.5066 C   0  0  0  0  0  0  0  0  0  0  0  0
    0.5156    5.1731    1.9192 C   0  0  1  0  0  0  0  0  0  0  0  0
    0.4787    3.8399    1.4352 O   0  0  0  0  0  0  0  0  0  0  0  0
   -0.8602    3.3552    1.4693 C   0  0  1  0  0  0  0  0  0  0  0  0
   -0.8908    2.0633    2.0642 O   0  0  0  0  0  0  0  0  0  0  0  0
   -0.8060    0.9472    1.1924 C   0  0  2  0  0  0  0  0  0  0  0  0
   -2.2249    0.6383    0.6888 C   0  0  1  0  0  0  0  0  0  0  0  0
   -2.6577    1.6703   -0.1837 O   0  0  0  0  0  0  0  0  0  0  0  0
   -2.3426   -0.6877   -0.0780 C   0  0  2  0  0  0  0  0  0  0  0  0
   -3.7404   -0.9640   -0.4438 N   0  0  0  0  0  0  0  0  0  0  0  0
   -1.8083   -1.8275    0.7813 C   0  0  0  0  0  0  0  0  0  0  0  0
   -0.3739   -1.5268    1.1984 C   0  0  2  0  0  0  0  0  0  0  0  0
    0.1320   -2.6628    1.9765 N   0  0  0  0  0  0  0  0  0  0  0  0
   -0.3126   -0.2094    2.0012 C   0  0  1  0  0  0  0  0  0  0  0  0
    1.0691   -0.0378    2.3518 O   0  0  0  0  0  0  0  0  0  0  0  0
    1.3570    0.8007    3.4656 C   0  0  1  0  0  0  0  0  0  0  0  0
    0.7219    0.3094    4.6428 O   0  0  0  0  0  0  0  0  0  0  0  0
    1.2271   -0.9169    5.1667 C   0  0  2  0  0  0  0  0  0  0  0  0
    0.4296   -1.2860    6.4246 C   0  0  0  0  0  0  0  0  0  0  0  0
    0.2280   -0.1339    7.2916 N   0  0  0  0  0  0  0  0  0  0  0  0
    2.7218   -0.7895    5.5151 C   0  0  1  0  0  0  0  0  0  0  0  0
    3.2138   -2.0348    5.9775 O   0  0  0  0  0  0  0  0  0  0  0  0
    3.4867   -0.3609    4.2566 C   0  0  2  0  0  0  0  0  0  0  0  0
    4.8518   -0.1500    4.5650 O   0  0  0  0  0  0  0  0  0  0  0  0
    2.8738    0.9118    3.6570 C   0  0  1  0  0  0  0  0  0  0  0  0
    3.5333    1.2389    2.3848 N   0  0  0  0  0  0  0  0  0  0  0  0
   -1.6666    4.3369    2.3319 C   0  0  2  0  0  0  0  0  0  0  0  0
   -2.5480    5.0832    1.5136 O   0  0  0  0  0  0  0  0  0  0  0  0
   -0.5792    5.1914    2.9813 C   0  0  2  0  0  0  0  0  0  0  0  0
   -1.0109    6.4915    3.3314 O   0  0  0  0  0  0  0  0  0  0  0  0
  2  1  1  0  0  0  0
  3  2  1  1  0  0  0
  3 30  1  0  0  0  0
  4  5  1  0  0  0  0
  4  3  1  0  0  0  0
  5 28  1  0  0  0  0
  5  6  1  1  0  0  0
  7  6  1  1  0  0  0
  8  7  1  0  0  0  0
  8  9  1  6  0  0  0
 10 11  1  1  0  0  0
 10  8  1  0  0  0  0
 12 10  1  0  0  0  0
 13 12  1  0  0  0  0
 13 15  1  0  0  0  0
 13 14  1  1  0  0  0
 15  7  1  0  0  0  0
 15 16  1  6  0  0  0
 17 16  1  6  0  0  0
 18 17  1  0  0  0  0
 19 20  1  1  0  0  0
 19 18  1  0  0  0  0
 20 21  1  0  0  0  0
 22 24  1  0  0  0  0
 22 19  1  0  0  0  0
 22 23  1  6  0  0  0
 24 25  1  1  0  0  0
 24 26  1  0  0  0  0
 26 17  1  0  0  0  0
 26 27  1  6  0  0  0
 28 29  1  6  0  0  0
 28 30  1  0  0  0  0
 30 31  1  6  0  0  0
M  END
>  <CHROM.1>
50.19609113,-179.33080595,-92.87562747,-85.02969437,-174.72474629,66.42277721
-125.43835320,81.10177728,58.94720048,-44.17090644,177.17198427,171.11693007
176.71985581,56.97553665,-170.59977765,-179.97533102,0.29089459,1.34102383
2.77219281,-2.20661985,0.71737690,3.09406220

>  <Name>
lig.pdb

>  <RI>
0

>  <Rbt.Current_Directory>
/home/itssahil/PROJECTS/Mol_Feturizer/New_Systems/rnas/2n0j

>  <Rbt.Executable>
rbdock ($Id: //depot/dev/client3/rdock/2013.1/src/exe/rbdock.cxx#4 $)

>  <Rbt.Library>
libRbt.so (2013.1, Build901 2013/11/27)

>  <Rbt.Parameter_File>
/export/apps/rDock/src/rDock_2013.1_src/data/scripts/dock_solv.prm

>  <Rbt.Receptor>
prm/blind_docking_60.prm

>  <SCORE>
-30.4114

>  <SCORE.INTER>
-31.3626

>  <SCORE.INTER.CONST>
1

>  <SCORE.INTER.POLAR>
-4.47951

>  <SCORE.INTER.ROT>
6

>  <SCORE.INTER.SOLV>
24.5216

>  <SCORE.INTER.VDW>
-21.7506

>  <SCORE.INTER.norm>
-1.0117

>  <SCORE.INTRA>
-1.65515

>  <SCORE.INTRA.DIHEDRAL>
-12.8684

>  <SCORE.INTRA.DIHEDRAL.0>
28.0161

>  <SCORE.INTRA.POLAR>
0.650267

>  <SCORE.INTRA.POLAR.0>
-1.05798

>  <SCORE.INTRA.REPUL>
0

>  <SCORE.INTRA.REPUL.0>
0

>  <SCORE.INTRA.SOLV>
0.128082

>  <SCORE.INTRA.SOLV.lig_0>
-42.5945

>  <SCORE.INTRA.VDW>
2.5041

>  <SCORE.INTRA.VDW.0>
-5.13869

>  <SCORE.INTRA.norm>
-0.0533919

>  <SCORE.RESTR>
2.60637

>  <SCORE.RESTR.CAVITY>
2.60637

>  <SCORE.RESTR.norm>
0.0840765

>  <SCORE.SYSTEM>
0

>  <SCORE.SYSTEM.CONST>
0

>  <SCORE.SYSTEM.DIHEDRAL>
0

>  <SCORE.SYSTEM.SOLV>
0

>  <SCORE.SYSTEM.norm>
0

>  <SCORE.heavy>
31

>  <SCORE.norm>
-0.981012

>  <RMSD>
5.437

$$$$
lig.pdb
 OpenBabel11021811453D
libRbt.so/2013.1/901 2013/11/27
 31 33  0  0  0  0  0  0  0  0999 V2000
   -1.4291    7.2099    2.4533 O   0  0  0  0  0  0  0  0  0  0  0  0
   -0.7485    6.1800    1.7631 C   0  0  0  0  0  0  0  0  0  0  0  0
   -1.1021    4.7975    2.3278 C   0  0  1  0  0  0  0  0  0  0  0  0
   -1.0945    3.7985    1.3203 O   0  0  0  0  0  0  0  0  0  0  0  0
   -0.8230    2.5293    1.9069 C   0  0  1  0  0  0  0  0  0  0  0  0
    0.1812    1.8559    1.1573 O   0  0  0  0  0  0  0  0  0  0  0  0
   -0.1262    0.5529    0.6877 C   0  0  2  0  0  0  0  0  0  0  0  0
   -1.4867    0.6213   -0.0240 C   0  0  1  0  0  0  0  0  0  0  0  0
   -1.3581    1.3546   -1.2320 O   0  0  0  0  0  0  0  0  0  0  0  0
   -2.0754   -0.7515   -0.3833 C   0  0  2  0  0  0  0  0  0  0  0  0
   -3.4167   -0.6135   -0.9714 N   0  0  0  0  0  0  0  0  0  0  0  0
   -2.1566   -1.6192    0.8671 C   0  0  0  0  0  0  0  0  0  0  0  0
   -0.7770   -1.7311    1.5045 C   0  0  2  0  0  0  0  0  0  0  0  0
   -0.8743   -2.6142    2.6717 N   0  0  0  0  0  0  0  0  0  0  0  0
   -0.2465   -0.3324    1.8864 C   0  0  1  0  0  0  0  0  0  0  0  0
    1.0378   -0.5601    2.4867 O   0  0  0  0  0  0  0  0  0  0  0  0
    1.4933    0.4032    3.4307 C   0  0  1  0  0  0  0  0  0  0  0  0
    0.6726    0.3934    4.5956 O   0  0  0  0  0  0  0  0  0  0  0  0
    0.7615   -0.7670    5.4197 C   0  0  2  0  0  0  0  0  0  0  0  0
   -0.1830   -0.5996    6.6174 C   0  0  0  0  0  0  0  0  0  0  0  0
   -0.6894   -1.8813    7.0869 N   0  0  0  0  0  0  0  0  0  0  0  0
    2.2037   -0.9764    5.9175 C   0  0  1  0  0  0  0  0  0  0  0  0
    2.2781   -2.1651    6.6842 O   0  0  0  0  0  0  0  0  0  0  0  0
    3.1346   -1.0796    4.7029 C   0  0  2  0  0  0  0  0  0  0  0  0
    4.4803   -1.1848    5.1286 O   0  0  0  0  0  0  0  0  0  0  0  0
    2.9612    0.1360    3.7823 C   0  0  1  0  0  0  0  0  0  0  0  0
    3.7624   -0.0362    2.5621 N   0  0  0  0  0  0  0  0  0  0  0  0
   -0.3091    2.7975    3.3290 C   0  0  2  0  0  0  0  0  0  0  0  0
   -1.2854    2.4030    4.2748 O   0  0  0  0  0  0  0  0  0  0  0  0
   -0.0537    4.3038    3.3197 C   0  0  2  0  0  0  0  0  0  0  0  0
   -0.1501    4.9048    4.5960 O   0  0  0  0  0  0  0  0  0  0  0  0
  2  1  1  0  0  0  0
  3  2  1  6  0  0  0
  3 30  1  0  0  0  0
  4  5  1  0  0  0  0
  4  3  1  0  0  0  0
  5 28  1  0  0  0  0
  5  6  1  6  0  0  0
  7  6  1  1  0  0  0
  8  7  1  0  0  0  0
  8  9  1  6  0  0  0
 10 11  1  1  0  0  0
 10  8  1  0  0  0  0
 12 10  1  0  0  0  0
 13 12  1  0  0  0  0
 13 15  1  0  0  0  0
 13 14  1  1  0  0  0
 15  7  1  0  0  0  0
 15 16  1  6  0  0  0
 17 16  1  6  0  0  0
 18 17  1  0  0  0  0
 19 20  1  1  0  0  0
 19 18  1  0  0  0  0
 20 21  1  0  0  0  0
 22 24  1  0  0  0  0
 22 19  1  0  0  0  0
 22 23  1  6  0  0  0
 24 25  1  1  0  0  0
 24 26  1  0  0  0  0
 26 17  1  0  0  0  0
 26 27  1  6  0  0  0
 28 29  1  1  0  0  0
 28 30  1  0  0  0  0
 30 31  1  1  0  0  0
M  END
>  <CHROM.1>
-68.81652407,147.15377895,-125.48942468,50.37090289,-174.42632760,-172.11256512
-66.61856225,86.02466595,66.39150241,150.00014837,-161.89397793,-72.51703018
117.48640302,-81.69304774,-53.18863045,-53.49296179,0.07536798,0.88254979
2.92299568,-2.49821435,0.97923570,-2.96361133

>  <Name>
lig.pdb

>  <RI>
1.55206e+07

>  <Rbt.Current_Directory>
/home/itssahil/PROJECTS/Mol_Feturizer/New_Systems/rnas/2n0j

>  <Rbt.Executable>
rbdock ($Id: //depot/dev/client3/rdock/2013.1/src/exe/rbdock.cxx#4 $)

>  <Rbt.Library>
libRbt.so (2013.1, Build901 2013/11/27)

>  <Rbt.Parameter_File>
/export/apps/rDock/src/rDock_2013.1_src/data/scripts/dock_solv.prm

>  <Rbt.Receptor>
prm/blind_docking_80.prm

>  <SCORE>
-48.4894

>  <SCORE.INTER>
-57.5138

>  <SCORE.INTER.CONST>
1

>  <SCORE.INTER.POLAR>
-7.60126

>  <SCORE.INTER.ROT>
6

>  <SCORE.INTER.SOLV>
25.0151

>  <SCORE.INTER.VDW>
-28.9434

>  <SCORE.INTER.norm>
-1.85528

>  <SCORE.INTRA>
6.33444

>  <SCORE.INTRA.DIHEDRAL>
-0.651654

>  <SCORE.INTRA.DIHEDRAL.0>
28.0161

>  <SCORE.INTRA.POLAR>
1.05798

>  <SCORE.INTRA.POLAR.0>
-1.05798

>  <SCORE.INTRA.REPUL>
0

>  <SCORE.INTRA.REPUL.0>
0

>  <SCORE.INTRA.SOLV>
0.961116

>  <SCORE.INTRA.SOLV.lig_0>
-42.5945

>  <SCORE.INTRA.VDW>
2.58256

>  <SCORE.INTRA.VDW.0>
-5.13869

>  <SCORE.INTRA.norm>
0.204337

>  <SCORE.RESTR>
2.68997

>  <SCORE.RESTR.CAVITY>
2.68997

>  <SCORE.RESTR.norm>
0.0867733

>  <SCORE.SYSTEM>
0

>  <SCORE.SYSTEM.CONST>
0

>  <SCORE.SYSTEM.DIHEDRAL>
0

>  <SCORE.SYSTEM.SOLV>
0

>  <SCORE.SYSTEM.norm>
0

>  <SCORE.heavy>
31

>  <SCORE.norm>
-1.56417

>  <RMSD>
5.445

$$$$
lig.pdb
 OpenBabel11021811453D
libRbt.so/2013.1/901 2013/11/27
 31 33  0  0  0  0  0  0  0  0999 V2000
   -1.1779    7.2145    2.3000 O   0  0  0  0  0  0  0  0  0  0  0  0
   -0.5373    6.1435    1.6347 C   0  0  0  0  0  0  0  0  0  0  0  0
   -0.9326    4.7899    2.2403 C   0  0  1  0  0  0  0  0  0  0  0  0
   -1.0172    3.7747    1.2528 O   0  0  0  0  0  0  0  0  0  0  0  0
   -0.7823    2.5039    1.8517 C   0  0  1  0  0  0  0  0  0  0  0  0
    0.1546    1.7691    1.0730 O   0  0  0  0  0  0  0  0  0  0  0  0
   -0.1956    0.4393    0.7241 C   0  0  2  0  0  0  0  0  0  0  0  0
   -1.5709    0.4823    0.0393 C   0  0  1  0  0  0  0  0  0  0  0  0
   -1.4538    1.1061   -1.2298 O   0  0  0  0  0  0  0  0  0  0  0  0
   -2.2012   -0.9003   -0.1875 C   0  0  2  0  0  0  0  0  0  0  0  0
   -3.5526   -0.7779   -0.7557 N   0  0  0  0  0  0  0  0  0  0  0  0
   -2.2731   -1.6556    1.1344 C   0  0  0  0  0  0  0  0  0  0  0  0
   -0.8816   -1.7488    1.7484 C   0  0  2  0  0  0  0  0  0  0  0  0
   -0.9719   -2.5261    2.9891 N   0  0  0  0  0  0  0  0  0  0  0  0
   -0.3082   -0.3370    1.9969 C   0  0  1  0  0  0  0  0  0  0  0  0
    0.9844   -0.5462    2.5860 O   0  0  0  0  0  0  0  0  0  0  0  0
    1.4156    0.3999    3.5584 C   0  0  1  0  0  0  0  0  0  0  0  0
    0.6208    0.3073    4.7376 O   0  0  0  0  0  0  0  0  0  0  0  0
    0.7796   -0.8787    5.5133 C   0  0  2  0  0  0  0  0  0  0  0  0
   -0.1461   -0.8013    6.7347 C   0  0  0  0  0  0  0  0  0  0  0  0
    0.4653   -0.0581    7.8273 N   0  0  0  0  0  0  0  0  0  0  0  0
    2.2400   -1.0404    5.9746 C   0  0  1  0  0  0  0  0  0  0  0  0
    2.3842   -2.2532    6.6921 O   0  0  0  0  0  0  0  0  0  0  0  0
    3.1488   -1.0536    4.7391 C   0  0  2  0  0  0  0  0  0  0  0  0
    4.5065   -1.1131    5.1342 O   0  0  0  0  0  0  0  0  0  0  0  0
    2.9011    0.1873    3.8708 C   0  0  1  0  0  0  0  0  0  0  0  0
    3.6834    0.0994    2.6295 N   0  0  0  0  0  0  0  0  0  0  0  0
   -0.1946    2.7707    3.2451 C   0  0  2  0  0  0  0  0  0  0  0  0
   -1.1468    2.4411    4.2391 O   0  0  0  0  0  0  0  0  0  0  0  0
    0.1328    4.2623    3.1960 C   0  0  2  0  0  0  0  0  0  0  0  0
    0.1213    4.8890    4.4634 O   0  0  0  0  0  0  0  0  0  0  0  0
  2  1  1  0  0  0  0
  3  2  1  6  0  0  0
  3 30  1  0  0  0  0
  4  5  1  0  0  0  0
  4  3  1  0  0  0  0
  5 28  1  0  0  0  0
  5  6  1  6  0  0  0
  7  6  1  1  0  0  0
  8  7  1  0  0  0  0
  8  9  1  6  0  0  0
 10 11  1  1  0  0  0
 10  8  1  0  0  0  0
 12 10  1  0  0  0  0
 13 12  1  0  0  0  0
 13 15  1  0  0  0  0
 13 14  1  1  0  0  0
 15  7  1  0  0  0  0
 15 16  1  6  0  0  0
 17 16  1  6  0  0  0
 18 17  1  0  0  0  0
 19 20  1  1  0  0  0
 19 18  1  0  0  0  0
 20 21  1  0  0  0  0
 22 24  1  0  0  0  0
 22 19  1  0  0  0  0
 22 23  1  6  0  0  0
 24 25  1  1  0  0  0
 24 26  1  0  0  0  0
 26 17  1  0  0  0  0
 26 27  1  6  0  0  0
 28 29  1  1  0  0  0
 28 30  1  0  0  0  0
 30 31  1  1  0  0  0
M  END
>  <CHROM.1>
-65.38359592,144.83721541,-129.94012631,53.97013562,-27.64716669,-53.21540007
-72.51870244,93.49978160,67.83213926,-84.16749530,22.78690897,-61.23460772
77.27806513,158.58340845,-174.81125962,-53.43206963,0.14182749,0.91474281
2.99787458,-2.54623259,0.97037636,-3.02272649

>  <Name>
lig.pdb

>  <RI>
0

>  <Rbt.Current_Directory>
/home/itssahil/PROJECTS/Mol_Feturizer/New_Systems/rnas/2n0j

>  <Rbt.Executable>
rbdock ($Id: //depot/dev/client3/rdock/2013.1/src/exe/rbdock.cxx#4 $)

>  <Rbt.Library>
libRbt.so (2013.1, Build901 2013/11/27)

>  <Rbt.Parameter_File>
/export/apps/rDock/src/rDock_2013.1_src/data/scripts/dock_solv.prm

>  <Rbt.Receptor>
prm/blind_docking_60.prm

>  <SCORE>
-40.3993

>  <SCORE.INTER>
-49.7712

>  <SCORE.INTER.CONST>
1

>  <SCORE.INTER.POLAR>
-7.19225

>  <SCORE.INTER.ROT>
6

>  <SCORE.INTER.SOLV>
24.6812

>  <SCORE.INTER.VDW>
-25.0337

>  <SCORE.INTER.norm>
-1.60552

>  <SCORE.INTRA>
7.13563

>  <SCORE.INTRA.DIHEDRAL>
-1.31338

>  <SCORE.INTRA.DIHEDRAL.0>
28.0161

>  <SCORE.INTRA.POLAR>
1.05131

>  <SCORE.INTRA.POLAR.0>
-1.05798

>  <SCORE.INTRA.REPUL>
0

>  <SCORE.INTRA.REPUL.0>
0

>  <SCORE.INTRA.SOLV>
1.24482

>  <SCORE.INTRA.SOLV.lig_0>
-42.5945

>  <SCORE.INTRA.VDW>
3.59547

>  <SCORE.INTRA.VDW.0>
-5.13869

>  <SCORE.INTRA.norm>
0.230181

>  <SCORE.RESTR>
2.23625

>  <SCORE.RESTR.CAVITY>
2.23625

>  <SCORE.RESTR.norm>
0.0721371

>  <SCORE.SYSTEM>
0

>  <SCORE.SYSTEM.CONST>
0

>  <SCORE.SYSTEM.DIHEDRAL>
0

>  <SCORE.SYSTEM.SOLV>
0

>  <SCORE.SYSTEM.norm>
0

>  <SCORE.heavy>
31

>  <SCORE.norm>
-1.3032

>  <RMSD>
5.454

$$$$
lig.pdb
 OpenBabel11021811453D
libRbt.so/2013.1/901 2013/11/27
 31 33  0  0  0  0  0  0  0  0999 V2000
   -1.1204    7.2150    2.6712 O   0  0  0  0  0  0  0  0  0  0  0  0
   -0.9089    6.1600    1.7534 C   0  0  0  0  0  0  0  0  0  0  0  0
   -1.1117    4.7907    2.4160 C   0  0  1  0  0  0  0  0  0  0  0  0
   -1.0959    3.7373    1.4657 O   0  0  0  0  0  0  0  0  0  0  0  0
   -0.6845    2.5289    2.0977 C   0  0  1  0  0  0  0  0  0  0  0  0
    0.3147    1.8894    1.3124 O   0  0  0  0  0  0  0  0  0  0  0  0
    0.0004    0.6126    0.7798 C   0  0  2  0  0  0  0  0  0  0  0  0
   -1.3302    0.7371    0.0208 C   0  0  1  0  0  0  0  0  0  0  0  0
   -1.1411    1.5144   -1.1511 O   0  0  0  0  0  0  0  0  0  0  0  0
   -1.9309   -0.6080   -0.4150 C   0  0  2  0  0  0  0  0  0  0  0  0
   -3.2458   -0.4192   -1.0472 N   0  0  0  0  0  0  0  0  0  0  0  0
   -2.0768   -1.5223    0.7957 C   0  0  0  0  0  0  0  0  0  0  0  0
   -0.7251   -1.6878    1.4795 C   0  0  2  0  0  0  0  0  0  0  0  0
   -0.8841   -2.6138    2.6059 N   0  0  0  0  0  0  0  0  0  0  0  0
   -0.1827   -0.3165    1.9368 C   0  0  1  0  0  0  0  0  0  0  0  0
    1.0730   -0.5942    2.5753 O   0  0  0  0  0  0  0  0  0  0  0  0
    1.5671    0.3805    3.4876 C   0  0  1  0  0  0  0  0  0  0  0  0
    0.7645    0.4209    4.6644 O   0  0  0  0  0  0  0  0  0  0  0  0
    0.8369   -0.7203    5.5164 C   0  0  2  0  0  0  0  0  0  0  0  0
   -0.0844   -0.4987    6.7233 C   0  0  0  0  0  0  0  0  0  0  0  0
   -0.6933   -1.7430    7.1714 N   0  0  0  0  0  0  0  0  0  0  0  0
    2.2809   -0.9539    5.9980 C   0  0  1  0  0  0  0  0  0  0  0  0
    2.3371   -2.1245    6.7935 O   0  0  0  0  0  0  0  0  0  0  0  0
    3.1900   -1.1113    4.7727 C   0  0  2  0  0  0  0  0  0  0  0  0
    4.5390   -1.2402    5.1809 O   0  0  0  0  0  0  0  0  0  0  0  0
    3.0330    0.0848    3.8241 C   0  0  1  0  0  0  0  0  0  0  0  0
    3.8107   -0.1385    2.5970 N   0  0  0  0  0  0  0  0  0  0  0  0
   -0.0949    2.9184    3.4610 C   0  0  2  0  0  0  0  0  0  0  0  0
   -0.9683    2.5086    4.4968 O   0  0  0  0  0  0  0  0  0  0  0  0
    0.0394    4.4365    3.3521 C   0  0  2  0  0  0  0  0  0  0  0  0
   -0.0144    5.1029    4.5980 O   0  0  0  0  0  0  0  0  0  0  0  0
  2  1  1  0  0  0  0
  3  2  1  6  0  0  0
  3 30  1  0  0  0  0
  4  5  1  0  0  0  0
  4  3  1  0  0  0  0
  5 28  1  0  0  0  0
  5  6  1  6  0  0  0
  7  6  1  1  0  0  0
  8  7  1  0  0  0  0
  8  9  1  6  0  0  0
 10 11  1  1  0  0  0
 10  8  1  0  0  0  0
 12 10  1  0  0  0  0
 13 12  1  0  0  0  0
 13 15  1  0  0  0  0
 13 14  1  1  0  0  0
 15  7  1  0  0  0  0
 15 16  1  6  0  0  0
 17 16  1  6  0  0  0
 18 17  1  0  0  0  0
 19 20  1  1  0  0  0
 19 18  1  0  0  0  0
 20 21  1  0  0  0  0
 22 24  1  0  0  0  0
 22 19  1  0  0  0  0
 22 23  1  1  0  0  0
 24 25  1  1  0  0  0
 24 26  1  0  0  0  0
 26 17  1  0  0  0  0
 26 27  1  6  0  0  0
 28 29  1  1  0  0  0
 28 30  1  0  0  0  0
 30 31  1  1  0  0  0
M  END
>  <CHROM.1>
57.87125779,171.37349255,-116.86217396,52.95479036,55.74374159,166.54329017
-65.99916142,80.65450566,69.47418284,145.77506106,-152.50655686,-70.49339482
-179.28441834,38.56652631,-60.86623324,62.89722846,0.17631305,0.92673492
2.99237649,-2.53655014,1.00477670,-2.91813138

>  <Name>
lig.pdb

>  <RI>
9.20816e+06

>  <Rbt.Current_Directory>
/home/itssahil/PROJECTS/Mol_Feturizer/New_Systems/rnas/2n0j

>  <Rbt.Executable>
rbdock ($Id: //depot/dev/client3/rdock/2013.1/src/exe/rbdock.cxx#4 $)

>  <Rbt.Library>
libRbt.so (2013.1, Build901 2013/11/27)

>  <Rbt.Parameter_File>
/export/apps/rDock/src/rDock_2013.1_src/data/scripts/dock_solv.prm

>  <Rbt.Receptor>
prm/blind_docking_100.prm

>  <SCORE>
-43.165

>  <SCORE.INTER>
-46.4859

>  <SCORE.INTER.CONST>
1

>  <SCORE.INTER.POLAR>
-5.77416

>  <SCORE.INTER.ROT>
6

>  <SCORE.INTER.SOLV>
25.7768

>  <SCORE.INTER.VDW>
-27.9357

>  <SCORE.INTER.norm>
-1.49954

>  <SCORE.INTRA>
1.13991

>  <SCORE.INTRA.DIHEDRAL>
-10.697

>  <SCORE.INTRA.DIHEDRAL.0>
28.0161

>  <SCORE.INTRA.POLAR>
0.959537

>  <SCORE.INTRA.POLAR.0>
-1.05798

>  <SCORE.INTRA.REPUL>
0

>  <SCORE.INTRA.REPUL.0>
0

>  <SCORE.INTRA.SOLV>
1.13751

>  <SCORE.INTRA.SOLV.lig_0>
-42.5945

>  <SCORE.INTRA.VDW>
2.65721

>  <SCORE.INTRA.VDW.0>
-5.13869

>  <SCORE.INTRA.norm>
0.0367714

>  <SCORE.RESTR>
2.18101

>  <SCORE.RESTR.CAVITY>
2.18101

>  <SCORE.RESTR.norm>
0.070355

>  <SCORE.SYSTEM>
0

>  <SCORE.SYSTEM.CONST>
0

>  <SCORE.SYSTEM.DIHEDRAL>
0

>  <SCORE.SYSTEM.SOLV>
0

>  <SCORE.SYSTEM.norm>
0

>  <SCORE.heavy>
31

>  <SCORE.norm>
-1.39242

>  <RMSD>
5.467

$$$$
lig.pdb
 OpenBabel11021811453D
libRbt.so/2013.1/901 2013/11/27
 31 33  0  0  0  0  0  0  0  0999 V2000
   -5.7019    0.3289    8.2097 O   0  0  0  0  0  0  0  0  0  0  0  0
   -5.5539    0.2716    6.8044 C   0  0  0  0  0  0  0  0  0  0  0  0
   -5.4531    1.6757    6.1931 C   0  0  1  0  0  0  0  0  0  0  0  0
   -4.4511    2.4559    6.8259 O   0  0  0  0  0  0  0  0  0  0  0  0
   -3.9707    3.4442    5.9197 C   0  0  1  0  0  0  0  0  0  0  0  0
   -2.5481    3.4530    5.9250 O   0  0  0  0  0  0  0  0  0  0  0  0
   -1.9048    4.5029    5.2202 C   0  0  2  0  0  0  0  0  0  0  0  0
   -2.7076    5.7906    5.4643 C   0  0  1  0  0  0  0  0  0  0  0  0
   -2.5581    6.1983    6.8151 O   0  0  0  0  0  0  0  0  0  0  0  0
   -2.2803    6.9721    4.5803 C   0  0  2  0  0  0  0  0  0  0  0  0
   -3.1519    8.1371    4.7982 N   0  0  0  0  0  0  0  0  0  0  0  0
   -2.3373    6.5634    3.1131 C   0  0  0  0  0  0  0  0  0  0  0  0
   -1.4690    5.3312    2.8896 C   0  0  2  0  0  0  0  0  0  0  0  0
   -1.4990    4.9938    1.4624 N   0  0  0  0  0  0  0  0  0  0  0  0
   -1.9626    4.1599    3.7661 C   0  0  1  0  0  0  0  0  0  0  0  0
   -1.0903    3.0604    3.4635 O   0  0  0  0  0  0  0  0  0  0  0  0
   -1.6736    1.9216    2.8393 C   0  0  1  0  0  0  0  0  0  0  0  0
   -1.1392    1.7356    1.5314 O   0  0  0  0  0  0  0  0  0  0  0  0
    0.2281    1.3373    1.4599 C   0  0  2  0  0  0  0  0  0  0  0  0
    0.6250    1.1854   -0.0146 C   0  0  0  0  0  0  0  0  0  0  0  0
   -0.0065    0.0243   -0.6252 N   0  0  0  0  0  0  0  0  0  0  0  0
    0.4503    0.0052    2.2001 C   0  0  1  0  0  0  0  0  0  0  0  0
    1.8240   -0.3389    2.1652 O   0  0  0  0  0  0  0  0  0  0  0  0
   -0.0106    0.1662    3.6541 C   0  0  2  0  0  0  0  0  0  0  0  0
    0.0992   -1.0675    4.3389 O   0  0  0  0  0  0  0  0  0  0  0  0
   -1.4557    0.6796    3.7109 C   0  0  1  0  0  0  0  0  0  0  0  0
   -1.8410    0.9506    5.1033 N   0  0  0  0  0  0  0  0  0  0  0  0
   -4.4765    3.0512    4.5241 C   0  0  2  0  0  0  0  0  0  0  0  0
   -5.4815    3.9557    4.1053 O   0  0  0  0  0  0  0  0  0  0  0  0
   -4.9964    1.6306    4.7384 C   0  0  2  0  0  0  0  0  0  0  0  0
   -6.0157    1.2555    3.8331 O   0  0  0  0  0  0  0  0  0  0  0  0
  2  1  1  0  0  0  0
  3  2  1  1  0  0  0
  3 30  1  0  0  0  0
  4  5  1  0  0  0  0
  4  3  1  0  0  0  0
  5 28  1  0  0  0  0
  5  6  1  6  0  0  0
  7  6  1  1  0  0  0
  8  7  1  0  0  0  0
  8  9  1  1  0  0  0
 10 11  1  6  0  0  0
 10  8  1  0  0  0  0
 12 10  1  0  0  0  0
 13 12  1  0  0  0  0
 13 15  1  0  0  0  0
 13 14  1  6  0  0  0
 15  7  1  0  0  0  0
 15 16  1  1  0  0  0
 17 16  1  1  0  0  0
 18 17  1  0  0  0  0
 19 20  1  6  0  0  0
 19 18  1  0  0  0  0
 20 21  1  0  0  0  0
 22 24  1  0  0  0  0
 22 19  1  0  0  0  0
 22 23  1  1  0  0  0
 24 25  1  6  0  0  0
 24 26  1  0  0  0  0
 26 17  1  0  0  0  0
 26 27  1  1  0  0  0
 28 29  1  1  0  0  0
 28 30  1  0  0  0  0
 30 31  1  6  0  0  0
M  END
>  <CHROM.1>
-58.67257911,52.37042944,-171.40444578,39.37186254,148.22417929,-39.15602481
60.18118458,123.83657728,115.62786292,-70.61058323,66.91375197,-173.37670815
67.82703722,-21.45554759,42.65254488,-57.20226599,-2.34602349,2.68151479
4.03935120,2.62506461,0.77195057,-0.04182848

>  <Name>
lig.pdb

>  <RI>
3.33129e+07

>  <Rbt.Current_Directory>
/home/itssahil/PROJECTS/Mol_Feturizer/New_Systems/rnas/2n0j

>  <Rbt.Executable>
rbdock ($Id: //depot/dev/client3/rdock/2013.1/src/exe/rbdock.cxx#4 $)

>  <Rbt.Library>
libRbt.so (2013.1, Build901 2013/11/27)

>  <Rbt.Parameter_File>
/export/apps/rDock/src/rDock_2013.1_src/data/scripts/dock_solv.prm

>  <Rbt.Receptor>
prm/pocket_docking_4.prm

>  <SCORE>
-36.42

>  <SCORE.INTER>
-41.1441

>  <SCORE.INTER.CONST>
1

>  <SCORE.INTER.POLAR>
-5.50185

>  <SCORE.INTER.ROT>
6

>  <SCORE.INTER.SOLV>
16.5213

>  <SCORE.INTER.VDW>
-22.197

>  <SCORE.INTER.norm>
-1.32723

>  <SCORE.INTRA>
4.7137

>  <SCORE.INTRA.DIHEDRAL>
-1.19114

>  <SCORE.INTRA.DIHEDRAL.0>
28.0161

>  <SCORE.INTRA.POLAR>
0.00285111

>  <SCORE.INTRA.POLAR.0>
-1.05798

>  <SCORE.INTRA.REPUL>
0

>  <SCORE.INTRA.REPUL.0>
0

>  <SCORE.INTRA.SOLV>
1.29074

>  <SCORE.INTRA.SOLV.lig_0>
-42.5945

>  <SCORE.INTRA.VDW>
4.65421

>  <SCORE.INTRA.VDW.0>
-5.13869

>  <SCORE.INTRA.norm>
0.152055

>  <SCORE.RESTR>
0.0104848

>  <SCORE.RESTR.CAVITY>
0.0104848

>  <SCORE.RESTR.norm>
0.00033822

>  <SCORE.SYSTEM>
0

>  <SCORE.SYSTEM.CONST>
0

>  <SCORE.SYSTEM.DIHEDRAL>
0

>  <SCORE.SYSTEM.SOLV>
0

>  <SCORE.SYSTEM.norm>
0

>  <SCORE.heavy>
31

>  <SCORE.norm>
-1.17484

>  <RMSD>
5.469

$$$$
lig.pdb
 OpenBabel11021811453D
libRbt.so/2013.1/901 2013/11/27
 31 33  0  0  0  0  0  0  0  0999 V2000
    3.8560    0.2321    3.0023 O   0  0  0  0  0  0  0  0  0  0  0  0
    3.2643   -0.3910    4.1256 C   0  0  0  0  0  0  0  0  0  0  0  0
    1.7329   -0.3915    4.0252 C   0  0  1  0  0  0  0  0  0  0  0  0
    1.1905    0.9037    4.2286 O   0  0  0  0  0  0  0  0  0  0  0  0
   -0.0655    1.0062    3.5646 C   0  0  1  0  0  0  0  0  0  0  0  0
   -0.1161    2.2118    2.8111 O   0  0  0  0  0  0  0  0  0  0  0  0
   -0.5287    3.3849    3.4940 C   0  0  2  0  0  0  0  0  0  0  0  0
   -2.0483    3.2932    3.7050 C   0  0  1  0  0  0  0  0  0  0  0  0
   -2.3392    2.2760    4.6505 O   0  0  0  0  0  0  0  0  0  0  0  0
   -2.6888    4.5916    4.2190 C   0  0  2  0  0  0  0  0  0  0  0  0
   -4.1516    4.4611    4.3045 N   0  0  0  0  0  0  0  0  0  0  0  0
   -2.3360    5.7435    3.2854 C   0  0  0  0  0  0  0  0  0  0  0  0
   -0.8216    5.8568    3.1598 C   0  0  2  0  0  0  0  0  0  0  0  0
   -0.5108    7.0049    2.3013 N   0  0  0  0  0  0  0  0  0  0  0  0
   -0.2292    4.5455    2.6002 C   0  0  1  0  0  0  0  0  0  0  0  0
    1.1858    4.7716    2.5101 O   0  0  0  0  0  0  0  0  0  0  0  0
    1.8173    4.4508    1.2753 C   0  0  1  0  0  0  0  0  0  0  0  0
    2.1846    5.6362    0.5749 O   0  0  0  0  0  0  0  0  0  0  0  0
    3.2337    6.4103    1.1526 C   0  0  2  0  0  0  0  0  0  0  0  0
    3.4913    7.6371    0.2677 C   0  0  0  0  0  0  0  0  0  0  0  0
    2.4144    8.6115    0.3716 N   0  0  0  0  0  0  0  0  0  0  0  0
    4.5232    5.5779    1.2791 C   0  0  1  0  0  0  0  0  0  0  0  0
    5.5313    6.3489    1.9081 O   0  0  0  0  0  0  0  0  0  0  0  0
    4.2233    4.3282    2.1161 C   0  0  2  0  0  0  0  0  0  0  0  0
    5.3675    3.4974    2.1774 O   0  0  0  0  0  0  0  0  0  0  0  0
    3.0350    3.5548    1.5289 C   0  0  1  0  0  0  0  0  0  0  0  0
    2.6777    2.4333    2.4092 N   0  0  0  0  0  0  0  0  0  0  0  0
   -0.1664   -0.1970    2.6158 C   0  0  2  0  0  0  0  0  0  0  0  0
   -1.1284   -1.1138    3.1034 O   0  0  0  0  0  0  0  0  0  0  0  0
    1.2556   -0.7558    2.6229 C   0  0  2  0  0  0  0  0  0  0  0  0
    1.3244   -2.1394    2.3398 O   0  0  0  0  0  0  0  0  0  0  0  0
  2  1  1  0  0  0  0
  3  2  1  6  0  0  0
  3 30  1  0  0  0  0
  4  5  1  0  0  0  0
  4  3  1  0  0  0  0
  5 28  1  0  0  0  0
  5  6  1  6  0  0  0
  7  6  1  6  0  0  0
  8  7  1  0  0  0  0
  8  9  1  1  0  0  0
 10 11  1  6  0  0  0
 10  8  1  0  0  0  0
 12 10  1  0  0  0  0
 13 12  1  0  0  0  0
 13 15  1  0  0  0  0
 13 14  1  6  0  0  0
 15  7  1  0  0  0  0
 15 16  1  1  0  0  0
 17 16  1  1  0  0  0
 18 17  1  0  0  0  0
 19 20  1  6  0  0  0
 19 18  1  0  0  0  0
 20 21  1  0  0  0  0
 22 24  1  0  0  0  0
 22 19  1  0  0  0  0
 22 23  1  1  0  0  0
 24 25  1  6  0  0  0
 24 26  1  0  0  0  0
 26 17  1  0  0  0  0
 26 27  1  1  0  0  0
 28 29  1  1  0  0  0
 28 30  1  0  0  0  0
 30 31  1  1  0  0  0
M  END
>  <CHROM.1>
178.15113161,-72.19000271,-85.67051651,-74.47575165,-174.16894937,-173.41678188
-60.86958757,108.92289913,107.81824745,71.99879874,-50.24688572,-169.00614214
59.64998889,169.25819249,64.04708943,-172.60792219,1.14806039,3.34117206
2.63422145,-2.02997069,0.27194572,-0.20687624

>  <Name>
lig.pdb

>  <RI>
2.74555e+07

>  <Rbt.Current_Directory>
/home/itssahil/PROJECTS/Mol_Feturizer/New_Systems/rnas/2n0j

>  <Rbt.Executable>
rbdock ($Id: //depot/dev/client3/rdock/2013.1/src/exe/rbdock.cxx#4 $)

>  <Rbt.Library>
libRbt.so (2013.1, Build901 2013/11/27)

>  <Rbt.Parameter_File>
/export/apps/rDock/src/rDock_2013.1_src/data/scripts/dock_solv.prm

>  <Rbt.Receptor>
prm/pocket_docking_6.prm

>  <SCORE>
-46.4166

>  <SCORE.INTER>
-42.2698

>  <SCORE.INTER.CONST>
1

>  <SCORE.INTER.POLAR>
-4.7018

>  <SCORE.INTER.ROT>
6

>  <SCORE.INTER.SOLV>
17.0568

>  <SCORE.INTER.VDW>
-25.7928

>  <SCORE.INTER.norm>
-1.36354

>  <SCORE.INTRA>
-4.14675

>  <SCORE.INTRA.DIHEDRAL>
-8.0972

>  <SCORE.INTRA.DIHEDRAL.0>
28.0161

>  <SCORE.INTRA.POLAR>
-0.335901

>  <SCORE.INTRA.POLAR.0>
-1.05798

>  <SCORE.INTRA.REPUL>
0

>  <SCORE.INTRA.REPUL.0>
0

>  <SCORE.INTRA.SOLV>
2.80766

>  <SCORE.INTRA.SOLV.lig_0>
-42.5945

>  <SCORE.INTRA.VDW>
-0.359915

>  <SCORE.INTRA.VDW.0>
-5.13869

>  <SCORE.INTRA.norm>
-0.133766

>  <SCORE.RESTR>
0

>  <SCORE.RESTR.CAVITY>
0

>  <SCORE.RESTR.norm>
0

>  <SCORE.SYSTEM>
0

>  <SCORE.SYSTEM.CONST>
0

>  <SCORE.SYSTEM.DIHEDRAL>
0

>  <SCORE.SYSTEM.SOLV>
0

>  <SCORE.SYSTEM.norm>
0

>  <SCORE.heavy>
31

>  <SCORE.norm>
-1.49731

>  <RMSD>
5.470

$$$$
lig.pdb
 OpenBabel11021811453D
libRbt.so/2013.1/901 2013/11/27
 31 33  0  0  0  0  0  0  0  0999 V2000
   -1.0026    7.2522    2.6236 O   0  0  0  0  0  0  0  0  0  0  0  0
   -0.8193    6.1871    1.7114 C   0  0  0  0  0  0  0  0  0  0  0  0
   -1.0593    4.8272    2.3811 C   0  0  1  0  0  0  0  0  0  0  0  0
   -1.0526    3.7666    1.4387 O   0  0  0  0  0  0  0  0  0  0  0  0
   -0.6749    2.5547    2.0849 C   0  0  1  0  0  0  0  0  0  0  0  0
    0.3213    1.8890    1.3178 O   0  0  0  0  0  0  0  0  0  0  0  0
   -0.0056    0.6068    0.8059 C   0  0  2  0  0  0  0  0  0  0  0  0
   -1.3348    0.7322    0.0446 C   0  0  1  0  0  0  0  0  0  0  0  0
   -1.1380    1.4886   -1.1397 O   0  0  0  0  0  0  0  0  0  0  0  0
   -1.9489   -0.6137   -0.3695 C   0  0  2  0  0  0  0  0  0  0  0  0
   -3.2617   -0.4221   -1.0050 N   0  0  0  0  0  0  0  0  0  0  0  0
   -2.1039   -1.5067    0.8558 C   0  0  0  0  0  0  0  0  0  0  0  0
   -0.7540   -1.6746    1.5425 C   0  0  2  0  0  0  0  0  0  0  0  0
   -0.9223   -2.5806    2.6838 N   0  0  0  0  0  0  0  0  0  0  0  0
   -0.1981   -0.3015    1.9777 C   0  0  1  0  0  0  0  0  0  0  0  0
    1.0547   -0.5813    2.6209 O   0  0  0  0  0  0  0  0  0  0  0  0
    1.5518    0.3970    3.5278 C   0  0  1  0  0  0  0  0  0  0  0  0
    0.7680    0.4246    4.7176 O   0  0  0  0  0  0  0  0  0  0  0  0
    0.8682   -0.7179    5.5651 C   0  0  2  0  0  0  0  0  0  0  0  0
   -0.0360   -0.5107    6.7875 C   0  0  0  0  0  0  0  0  0  0  0  0
   -0.6738   -1.7522    7.2019 N   0  0  0  0  0  0  0  0  0  0  0  0
    2.3226   -0.9351    6.0225 C   0  0  1  0  0  0  0  0  0  0  0  0
    2.4060   -2.1070    6.8137 O   0  0  0  0  0  0  0  0  0  0  0  0
    3.2134   -1.0782    4.7822 C   0  0  2  0  0  0  0  0  0  0  0  0
    4.5704   -1.1917    5.1680 O   0  0  0  0  0  0  0  0  0  0  0  0
    3.0265    0.1183    3.8396 C   0  0  1  0  0  0  0  0  0  0  0  0
    3.7867   -0.0922    2.5993 N   0  0  0  0  0  0  0  0  0  0  0  0
   -0.0956    2.9423    3.4532 C   0  0  2  0  0  0  0  0  0  0  0  0
   -0.9910    2.5583    4.4800 O   0  0  0  0  0  0  0  0  0  0  0  0
    0.0716    4.4564    3.3352 C   0  0  2  0  0  0  0  0  0  0  0  0
    0.0150    5.1331    4.5754 O   0  0  0  0  0  0  0  0  0  0  0  0
  2  1  1  0  0  0  0
  3  2  1  6  0  0  0
  3 30  1  0  0  0  0
  4  5  1  0  0  0  0
  4  3  1  0  0  0  0
  5 28  1  0  0  0  0
  5  6  1  6  0  0  0
  7  6  1  1  0  0  0
  8  7  1  0  0  0  0
  8  9  1  6  0  0  0
 10 11  1  1  0  0  0
 10  8  1  0  0  0  0
 12 10  1  0  0  0  0
 13 12  1  0  0  0  0
 13 15  1  0  0  0  0
 13 14  1  1  0  0  0
 15  7  1  0  0  0  0
 15 16  1  6  0  0  0
 17 16  1  6  0  0  0
 18 17  1  0  0  0  0
 19 20  1  1  0  0  0
 19 18  1  0  0  0  0
 20 21  1  0  0  0  0
 22 24  1  0  0  0  0
 22 19  1  0  0  0  0
 22 23  1  1  0  0  0
 24 25  1  1  0  0  0
 24 26  1  0  0  0  0
 26 17  1  0  0  0  0
 26 27  1  6  0  0  0
 28 29  1  1  0  0  0
 28 30  1  0  0  0  0
 30 31  1  1  0  0  0
M  END
>  <CHROM.1>
54.50242940,172.20657030,-117.71670112,52.54624962,60.33154261,60.12705699
176.59501226,81.27564683,71.02437992,142.97203741,84.76639620,-60.75458064
179.01745466,39.44313107,-171.14070209,59.74041813,0.19177272,0.94355096
3.01009700,-2.50315673,0.99950752,-2.96134138

>  <Name>
lig.pdb

>  <RI>
0

>  <Rbt.Current_Directory>
/home/itssahil/PROJECTS/Mol_Feturizer/New_Systems/rnas/2n0j

>  <Rbt.Executable>
rbdock ($Id: //depot/dev/client3/rdock/2013.1/src/exe/rbdock.cxx#4 $)

>  <Rbt.Library>
libRbt.so (2013.1, Build901 2013/11/27)

>  <Rbt.Parameter_File>
/export/apps/rDock/src/rDock_2013.1_src/data/scripts/dock_solv.prm

>  <Rbt.Receptor>
prm/blind_docking_40.prm

>  <SCORE>
-42.099

>  <SCORE.INTER>
-45.1975

>  <SCORE.INTER.CONST>
1

>  <SCORE.INTER.POLAR>
-5.71715

>  <SCORE.INTER.ROT>
6

>  <SCORE.INTER.SOLV>
25.8373

>  <SCORE.INTER.VDW>
-27.2869

>  <SCORE.INTER.norm>
-1.45798

>  <SCORE.INTRA>
1.0174

>  <SCORE.INTRA.DIHEDRAL>
-11.0311

>  <SCORE.INTRA.DIHEDRAL.0>
28.0161

>  <SCORE.INTRA.POLAR>
0.937878

>  <SCORE.INTRA.POLAR.0>
-1.05798

>  <SCORE.INTRA.REPUL>
0

>  <SCORE.INTRA.REPUL.0>
0

>  <SCORE.INTRA.SOLV>
1.09812

>  <SCORE.INTRA.SOLV.lig_0>
-42.5945

>  <SCORE.INTRA.VDW>
2.79509

>  <SCORE.INTRA.VDW.0>
-5.13869

>  <SCORE.INTRA.norm>
0.0328194

>  <SCORE.RESTR>
2.08106

>  <SCORE.RESTR.CAVITY>
2.08106

>  <SCORE.RESTR.norm>
0.067131

>  <SCORE.SYSTEM>
0

>  <SCORE.SYSTEM.CONST>
0

>  <SCORE.SYSTEM.DIHEDRAL>
0

>  <SCORE.SYSTEM.SOLV>
0

>  <SCORE.SYSTEM.norm>
0

>  <SCORE.heavy>
31

>  <SCORE.norm>
-1.35803

>  <RMSD>
5.473

$$$$
lig.pdb
 OpenBabel11021811453D
libRbt.so/2013.1/901 2013/11/27
 31 33  0  0  0  0  0  0  0  0999 V2000
   -6.3915    2.1934    9.1069 O   0  0  0  0  0  0  0  0  0  0  0  0
   -5.4005    3.0541    8.5801 C   0  0  0  0  0  0  0  0  0  0  0  0
   -5.1496    2.7763    7.0918 C   0  0  1  0  0  0  0  0  0  0  0  0
   -4.2041    3.6781    6.5389 O   0  0  0  0  0  0  0  0  0  0  0  0
   -3.5585    3.0706    5.4241 C   0  0  1  0  0  0  0  0  0  0  0  0
   -2.1507    3.2487    5.5256 O   0  0  0  0  0  0  0  0  0  0  0  0
   -1.6005    4.4110    4.9262 C   0  0  2  0  0  0  0  0  0  0  0  0
   -2.4861    5.6039    5.3197 C   0  0  1  0  0  0  0  0  0  0  0  0
   -2.3330    5.8770    6.7037 O   0  0  0  0  0  0  0  0  0  0  0  0
   -2.1650    6.8999    4.5598 C   0  0  2  0  0  0  0  0  0  0  0  0
   -3.1112    7.9688    4.9153 N   0  0  0  0  0  0  0  0  0  0  0  0
   -2.2286    6.6448    3.0585 C   0  0  0  0  0  0  0  0  0  0  0  0
   -1.2812    5.5095    2.6904 C   0  0  2  0  0  0  0  0  0  0  0  0
   -1.3219    5.3229    1.2360 N   0  0  0  0  0  0  0  0  0  0  0  0
   -1.6693    4.2197    3.4450 C   0  0  1  0  0  0  0  0  0  0  0  0
   -0.7291    3.2245    3.0123 O   0  0  0  0  0  0  0  0  0  0  0  0
   -0.9926    1.8763    3.3858 C   0  0  1  0  0  0  0  0  0  0  0  0
   -2.2639    1.4578    2.8966 O   0  0  0  0  0  0  0  0  0  0  0  0
   -2.3780    1.3104    1.4829 C   0  0  2  0  0  0  0  0  0  0  0  0
   -3.8039    0.8560    1.1440 C   0  0  0  0  0  0  0  0  0  0  0  0
   -4.7838    1.8906    1.4423 N   0  0  0  0  0  0  0  0  0  0  0  0
   -1.3625    0.2796    0.9557 C   0  0  1  0  0  0  0  0  0  0  0  0
   -1.4552    0.1941   -0.4552 O   0  0  0  0  0  0  0  0  0  0  0  0
    0.0481    0.7257    1.3601 C   0  0  2  0  0  0  0  0  0  0  0  0
    0.9978   -0.2467    0.9658 O   0  0  0  0  0  0  0  0  0  0  0  0
    0.1280    0.9642    2.8740 C   0  0  1  0  0  0  0  0  0  0  0  0
    1.4445    1.5124    3.2300 N   0  0  0  0  0  0  0  0  0  0  0  0
   -3.8918    1.5726    5.4792 C   0  0  2  0  0  0  0  0  0  0  0  0
   -4.7858    1.2407    4.4332 O   0  0  0  0  0  0  0  0  0  0  0  0
   -4.5052    1.4117    6.8693 C   0  0  2  0  0  0  0  0  0  0  0  0
   -5.4114    0.3311    6.9694 O   0  0  0  0  0  0  0  0  0  0  0  0
  2  1  1  0  0  0  0
  3  2  1  1  0  0  0
  3 30  1  0  0  0  0
  4  5  1  0  0  0  0
  4  3  1  0  0  0  0
  5 28  1  0  0  0  0
  5  6  1  1  0  0  0
  7  6  1  1  0  0  0
  8  7  1  0  0  0  0
  8  9  1  1  0  0  0
 10 11  1  1  0  0  0
 10  8  1  0  0  0  0
 12 10  1  0  0  0  0
 13 12  1  0  0  0  0
 13 15  1  0  0  0  0
 13 14  1  6  0  0  0
 15  7  1  0  0  0  0
 15 16  1  6  0  0  0
 17 16  1  6  0  0  0
 18 17  1  0  0  0  0
 19 20  1  1  0  0  0
 19 18  1  0  0  0  0
 20 21  1  0  0  0  0
 22 24  1  0  0  0  0
 22 19  1  0  0  0  0
 22 23  1  6  0  0  0
 24 25  1  1  0  0  0
 24 26  1  0  0  0  0
 26 17  1  0  0  0  0
 26 27  1  6  0  0  0
 28 29  1  6  0  0  0
 28 30  1  0  0  0  0
 30 31  1  6  0  0  0
M  END
>  <CHROM.1>
177.95408891,177.13657187,-90.15430320,45.56014286,-70.74172820,-37.19845688
176.08485437,69.34533445,58.24036697,67.06928381,52.52080347,175.57902488
62.70953131,-52.91504314,-177.93506056,-171.94352233,-2.55989699,2.85478571
4.03456105,2.53727038,0.87645065,0.34922289

>  <Name>
lig.pdb

>  <RI>
2.74555e+07

>  <Rbt.Current_Directory>
/home/itssahil/PROJECTS/Mol_Feturizer/New_Systems/rnas/2n0j

>  <Rbt.Executable>
rbdock ($Id: //depot/dev/client3/rdock/2013.1/src/exe/rbdock.cxx#4 $)

>  <Rbt.Library>
libRbt.so (2013.1, Build901 2013/11/27)

>  <Rbt.Parameter_File>
/export/apps/rDock/src/rDock_2013.1_src/data/scripts/dock_solv.prm

>  <Rbt.Receptor>
prm/pocket_docking_6.prm

>  <SCORE>
-47.6228

>  <SCORE.INTER>
-38.9174

>  <SCORE.INTER.CONST>
1

>  <SCORE.INTER.POLAR>
-5.58621

>  <SCORE.INTER.ROT>
6

>  <SCORE.INTER.SOLV>
14.432

>  <SCORE.INTER.VDW>
-19.7349

>  <SCORE.INTER.norm>
-1.2554

>  <SCORE.INTRA>
-8.70536

>  <SCORE.INTRA.DIHEDRAL>
-19.8912

>  <SCORE.INTRA.DIHEDRAL.0>
28.0161

>  <SCORE.INTRA.POLAR>
-0.518866

>  <SCORE.INTRA.POLAR.0>
-1.05798

>  <SCORE.INTRA.REPUL>
0

>  <SCORE.INTRA.REPUL.0>
0

>  <SCORE.INTRA.SOLV>
1.46756

>  <SCORE.INTRA.SOLV.lig_0>
-42.5945

>  <SCORE.INTRA.VDW>
2.2706

>  <SCORE.INTRA.VDW.0>
-5.13869

>  <SCORE.INTRA.norm>
-0.280818

>  <SCORE.RESTR>
0

>  <SCORE.RESTR.CAVITY>
0

>  <SCORE.RESTR.norm>
0

>  <SCORE.SYSTEM>
0

>  <SCORE.SYSTEM.CONST>
0

>  <SCORE.SYSTEM.DIHEDRAL>
0

>  <SCORE.SYSTEM.SOLV>
0

>  <SCORE.SYSTEM.norm>
0

>  <SCORE.heavy>
31

>  <SCORE.norm>
-1.53622

>  <RMSD>
5.477

$$$$
lig.pdb
 OpenBabel11021811453D
libRbt.so/2013.1/901 2013/11/27
 31 33  0  0  0  0  0  0  0  0999 V2000
   -0.1234    6.3494    1.3486 O   0  0  0  0  0  0  0  0  0  0  0  0
   -1.4067    5.9538    1.7923 C   0  0  0  0  0  0  0  0  0  0  0  0
   -1.3593    4.5971    2.5080 C   0  0  1  0  0  0  0  0  0  0  0  0
   -1.3945    3.5152    1.5908 O   0  0  0  0  0  0  0  0  0  0  0  0
   -0.7657    2.3760    2.1702 C   0  0  1  0  0  0  0  0  0  0  0  0
    0.1497    1.8059    1.2423 O   0  0  0  0  0  0  0  0  0  0  0  0
   -0.1508    0.5097    0.7500 C   0  0  2  0  0  0  0  0  0  0  0  0
   -1.4933    0.5916    0.0064 C   0  0  1  0  0  0  0  0  0  0  0  0
   -1.3329    1.3386   -1.1893 O   0  0  0  0  0  0  0  0  0  0  0  0
   -2.0779   -0.7747   -0.3833 C   0  0  2  0  0  0  0  0  0  0  0  0
   -3.4040   -0.6247   -1.0021 N   0  0  0  0  0  0  0  0  0  0  0  0
   -2.1924   -1.6567    0.8544 C   0  0  0  0  0  0  0  0  0  0  0  0
   -0.8291   -1.7813    1.5236 C   0  0  2  0  0  0  0  0  0  0  0  0
   -0.9578   -2.6777    2.6776 N   0  0  0  0  0  0  0  0  0  0  0  0
   -0.3031   -0.3892    1.9349 C   0  0  1  0  0  0  0  0  0  0  0  0
    0.9654   -0.6288    2.5633 O   0  0  0  0  0  0  0  0  0  0  0  0
    1.4095    0.3310    3.5162 C   0  0  1  0  0  0  0  0  0  0  0  0
    0.6298    0.2563    4.7067 O   0  0  0  0  0  0  0  0  0  0  0  0
    0.7976   -0.9183    5.4975 C   0  0  2  0  0  0  0  0  0  0  0  0
   -0.1124   -0.8224    6.7293 C   0  0  0  0  0  0  0  0  0  0  0  0
   -1.3614   -0.1393    6.4240 N   0  0  0  0  0  0  0  0  0  0  0  0
    2.2636   -1.0745    5.9425 C   0  0  1  0  0  0  0  0  0  0  0  0
    2.4162   -2.2769    6.6758 O   0  0  0  0  0  0  0  0  0  0  0  0
    3.1566   -1.1065    4.6960 C   0  0  2  0  0  0  0  0  0  0  0  0
    4.5192   -1.1614    5.0747 O   0  0  0  0  0  0  0  0  0  0  0  0
    2.8988    0.1217    3.8129 C   0  0  1  0  0  0  0  0  0  0  0  0
    3.6652    0.0151    2.5632 N   0  0  0  0  0  0  0  0  0  0  0  0
   -0.0018    2.8707    3.4071 C   0  0  2  0  0  0  0  0  0  0  0  0
   -0.6473    2.4184    4.5828 O   0  0  0  0  0  0  0  0  0  0  0  0
   -0.0402    4.3895    3.2455 C   0  0  2  0  0  0  0  0  0  0  0  0
    0.0452    5.0939    4.4685 O   0  0  0  0  0  0  0  0  0  0  0  0
  2  1  1  0  0  0  0
  3  2  1  6  0  0  0
  3 30  1  0  0  0  0
  4  5  1  0  0  0  0
  4  3  1  0  0  0  0
  5 28  1  0  0  0  0
  5  6  1  6  0  0  0
  7  6  1  1  0  0  0
  8  7  1  0  0  0  0
  8  9  1  6  0  0  0
 10 11  1  1  0  0  0
 10  8  1  0  0  0  0
 12 10  1  0  0  0  0
 13 12  1  0  0  0  0
 13 15  1  0  0  0  0
 13 14  1  1  0  0  0
 15  7  1  0  0  0  0
 15 16  1  6  0  0  0
 17 16  1  6  0  0  0
 18 17  1  0  0  0  0
 19 20  1  1  0  0  0
 19 18  1  0  0  0  0
 20 21  1  0  0  0  0
 22 24  1  0  0  0  0
 22 19  1  0  0  0  0
 22 23  1  6  0  0  0
 24 25  1  1  0  0  0
 24 26  1  0  0  0  0
 26 17  1  0  0  0  0
 26 27  1  6  0  0  0
 28 29  1  1  0  0  0
 28 30  1  0  0  0  0
 30 31  1  1  0  0  0
M  END
>  <CHROM.1>
158.27909081,-83.15770757,-114.06114539,61.33360144,-176.86491829,-171.78353222
52.92325486,85.19976141,71.06641126,34.61205565,172.77072995,169.74299471
74.65235597,35.12713100,73.39485194,-62.43301788,0.10032557,0.86366203,2.90644777
-2.54302947,0.95400777,-3.01961207

>  <Name>
lig.pdb

>  <RI>
9.20816e+06

>  <Rbt.Current_Directory>
/home/itssahil/PROJECTS/Mol_Feturizer/New_Systems/rnas/2n0j

>  <Rbt.Executable>
rbdock ($Id: //depot/dev/client3/rdock/2013.1/src/exe/rbdock.cxx#4 $)

>  <Rbt.Library>
libRbt.so (2013.1, Build901 2013/11/27)

>  <Rbt.Parameter_File>
/export/apps/rDock/src/rDock_2013.1_src/data/scripts/dock_solv.prm

>  <Rbt.Receptor>
prm/blind_docking_100.prm

>  <SCORE>
-40.3208

>  <SCORE.INTER>
-43.5769

>  <SCORE.INTER.CONST>
1

>  <SCORE.INTER.POLAR>
-5.64658

>  <SCORE.INTER.ROT>
6

>  <SCORE.INTER.SOLV>
23.327

>  <SCORE.INTER.VDW>
-25.605

>  <SCORE.INTER.norm>
-1.40571

>  <SCORE.INTRA>
0.240357

>  <SCORE.INTRA.DIHEDRAL>
-7.44262

>  <SCORE.INTRA.DIHEDRAL.0>
28.0161

>  <SCORE.INTRA.POLAR>
-0.2738

>  <SCORE.INTRA.POLAR.0>
-1.05798

>  <SCORE.INTRA.REPUL>
0

>  <SCORE.INTRA.REPUL.0>
0

>  <SCORE.INTRA.SOLV>
1.7838

>  <SCORE.INTRA.SOLV.lig_0>
-42.5945

>  <SCORE.INTRA.VDW>
4.00069

>  <SCORE.INTRA.VDW.0>
-5.13869

>  <SCORE.INTRA.norm>
0.00775345

>  <SCORE.RESTR>
3.01581

>  <SCORE.RESTR.CAVITY>
3.01581

>  <SCORE.RESTR.norm>
0.0972843

>  <SCORE.SYSTEM>
0

>  <SCORE.SYSTEM.CONST>
0

>  <SCORE.SYSTEM.DIHEDRAL>
0

>  <SCORE.SYSTEM.SOLV>
0

>  <SCORE.SYSTEM.norm>
0

>  <SCORE.heavy>
31

>  <SCORE.norm>
-1.30067

>  <RMSD>
5.478

$$$$
lig.pdb
 OpenBabel11021811453D
libRbt.so/2013.1/901 2013/11/27
 31 33  0  0  0  0  0  0  0  0999 V2000
    1.1343   -0.7449    3.6022 O   0  0  0  0  0  0  0  0  0  0  0  0
   -0.0765   -1.4728    3.6666 C   0  0  0  0  0  0  0  0  0  0  0  0
   -1.1216   -0.9108    2.6933 C   0  0  1  0  0  0  0  0  0  0  0  0
   -1.4055    0.4545    2.9548 O   0  0  0  0  0  0  0  0  0  0  0  0
   -1.8584    1.0862    1.7612 C   0  0  1  0  0  0  0  0  0  0  0  0
   -1.1692    2.3167    1.5749 O   0  0  0  0  0  0  0  0  0  0  0  0
   -1.2419    3.2650    2.6276 C   0  0  2  0  0  0  0  0  0  0  0  0
   -2.6870    3.7845    2.6900 C   0  0  1  0  0  0  0  0  0  0  0  0
   -3.5459    2.7541    3.1525 O   0  0  0  0  0  0  0  0  0  0  0  0
   -2.8791    4.9917    3.6206 C   0  0  2  0  0  0  0  0  0  0  0  0
   -4.2603    5.4938    3.5561 N   0  0  0  0  0  0  0  0  0  0  0  0
   -1.9158    6.1044    3.2246 C   0  0  0  0  0  0  0  0  0  0  0  0
   -0.4860    5.5781    3.2489 C   0  0  2  0  0  0  0  0  0  0  0  0
    0.4216    6.6820    2.9179 N   0  0  0  0  0  0  0  0  0  0  0  0
   -0.3319    4.3956    2.2682 C   0  0  1  0  0  0  0  0  0  0  0  0
    1.0440    3.9962    2.3621 O   0  0  0  0  0  0  0  0  0  0  0  0
    1.7915    3.9525    1.1514 C   0  0  1  0  0  0  0  0  0  0  0  0
    2.6791    5.0641    1.0675 O   0  0  0  0  0  0  0  0  0  0  0  0
    3.7688    5.0715    1.9872 C   0  0  2  0  0  0  0  0  0  0  0  0
    4.6110    6.3320    1.7498 C   0  0  0  0  0  0  0  0  0  0  0  0
    5.5863    6.5357    2.8115 N   0  0  0  0  0  0  0  0  0  0  0  0
    4.6447    3.8174    1.8091 C   0  0  1  0  0  0  0  0  0  0  0  0
    5.6846    3.8187    2.7710 O   0  0  0  0  0  0  0  0  0  0  0  0
    3.7669    2.5729    1.9910 C   0  0  2  0  0  0  0  0  0  0  0  0
    4.5248    1.4028    1.7468 O   0  0  0  0  0  0  0  0  0  0  0  0
    2.5520    2.6250    1.0550 C   0  0  1  0  0  0  0  0  0  0  0  0
    1.6545    1.4936    1.3288 N   0  0  0  0  0  0  0  0  0  0  0  0
   -1.5309    0.1336    0.6021 C   0  0  2  0  0  0  0  0  0  0  0  0
   -2.7245   -0.4320    0.0934 O   0  0  0  0  0  0  0  0  0  0  0  0
   -0.6090   -0.8940    1.2567 C   0  0  2  0  0  0  0  0  0  0  0  0
   -0.6328   -2.1607    0.6290 O   0  0  0  0  0  0  0  0  0  0  0  0
  2  1  1  0  0  0  0
  3  2  1  1  0  0  0
  3 30  1  0  0  0  0
  4  5  1  0  0  0  0
  4  3  1  0  0  0  0
  5 28  1  0  0  0  0
  5  6  1  6  0  0  0
  7  6  1  6  0  0  0
  8  7  1  0  0  0  0
  8  9  1  1  0  0  0
 10 11  1  6  0  0  0
 10  8  1  0  0  0  0
 12 10  1  0  0  0  0
 13 12  1  0  0  0  0
 13 15  1  0  0  0  0
 13 14  1  6  0  0  0
 15  7  1  0  0  0  0
 15 16  1  1  0  0  0
 17 16  1  1  0  0  0
 18 17  1  0  0  0  0
 19 20  1  6  0  0  0
 19 18  1  0  0  0  0
 20 21  1  0  0  0  0
 22 24  1  0  0  0  0
 22 19  1  0  0  0  0
 22 23  1  1  0  0  0
 24 25  1  6  0  0  0
 24 26  1  0  0  0  0
 26 17  1  0  0  0  0
 26 27  1  1  0  0  0
 28 29  1  1  0  0  0
 28 30  1  0  0  0  0
 30 31  1  6  0  0  0
M  END
>  <CHROM.1>
-66.98967258,-58.49451375,-56.35582706,-68.74572661,-163.94934384,-66.57714308
-159.91518710,113.98500394,104.96360917,169.09439888,59.85537989,177.48414751
-167.61372749,139.61320755,179.07949463,-67.14570979,0.51851167,2.78681053
2.19597147,-2.53218528,0.10241785,0.17028880

>  <Name>
lig.pdb

>  <RI>
2.74555e+07

>  <Rbt.Current_Directory>
/home/itssahil/PROJECTS/Mol_Feturizer/New_Systems/rnas/2n0j

>  <Rbt.Executable>
rbdock ($Id: //depot/dev/client3/rdock/2013.1/src/exe/rbdock.cxx#4 $)

>  <Rbt.Library>
libRbt.so (2013.1, Build901 2013/11/27)

>  <Rbt.Parameter_File>
/export/apps/rDock/src/rDock_2013.1_src/data/scripts/dock_solv.prm

>  <Rbt.Receptor>
prm/pocket_docking_6.prm

>  <SCORE>
-40.2791

>  <SCORE.INTER>
-36.2112

>  <SCORE.INTER.CONST>
1

>  <SCORE.INTER.POLAR>
-5.30795

>  <SCORE.INTER.ROT>
6

>  <SCORE.INTER.SOLV>
17.5024

>  <SCORE.INTER.VDW>
-19.8818

>  <SCORE.INTER.norm>
-1.1681

>  <SCORE.INTRA>
-4.08596

>  <SCORE.INTRA.DIHEDRAL>
-7.52055

>  <SCORE.INTRA.DIHEDRAL.0>
28.0161

>  <SCORE.INTRA.POLAR>
-0.674911

>  <SCORE.INTRA.POLAR.0>
-1.05798

>  <SCORE.INTRA.REPUL>
0

>  <SCORE.INTRA.REPUL.0>
0

>  <SCORE.INTRA.SOLV>
2.14965

>  <SCORE.INTRA.SOLV.lig_0>
-42.5945

>  <SCORE.INTRA.VDW>
0.894187

>  <SCORE.INTRA.VDW.0>
-5.13869

>  <SCORE.INTRA.norm>
-0.131805

>  <SCORE.RESTR>
0.0180254

>  <SCORE.RESTR.CAVITY>
0.0180254

>  <SCORE.RESTR.norm>
0.000581466

>  <SCORE.SYSTEM>
0

>  <SCORE.SYSTEM.CONST>
0

>  <SCORE.SYSTEM.DIHEDRAL>
0

>  <SCORE.SYSTEM.SOLV>
0

>  <SCORE.SYSTEM.norm>
0

>  <SCORE.heavy>
31

>  <SCORE.norm>
-1.29933

>  <RMSD>
5.479

$$$$
lig.pdb
 OpenBabel11021811453D
libRbt.so/2013.1/901 2013/11/27
 31 33  0  0  0  0  0  0  0  0999 V2000
   -0.6580    7.1286    2.7604 O   0  0  0  0  0  0  0  0  0  0  0  0
   -0.8314    6.1591    1.7454 C   0  0  0  0  0  0  0  0  0  0  0  0
   -1.1225    4.7733    2.3370 C   0  0  1  0  0  0  0  0  0  0  0  0
   -1.1470    3.7673    1.3368 O   0  0  0  0  0  0  0  0  0  0  0  0
   -0.8155    2.5088    1.9156 C   0  0  1  0  0  0  0  0  0  0  0  0
    0.1614    1.8524    1.1165 O   0  0  0  0  0  0  0  0  0  0  0  0
   -0.1488    0.5460    0.6581 C   0  0  2  0  0  0  0  0  0  0  0  0
   -1.5035    0.6135   -0.0647 C   0  0  1  0  0  0  0  0  0  0  0  0
   -1.3621    1.3336   -1.2791 O   0  0  0  0  0  0  0  0  0  0  0  0
   -2.0961   -0.7601   -0.4141 C   0  0  2  0  0  0  0  0  0  0  0  0
   -3.4322   -0.6217   -1.0140 N   0  0  0  0  0  0  0  0  0  0  0  0
   -2.1911   -1.6143    0.8446 C   0  0  0  0  0  0  0  0  0  0  0  0
   -0.8170   -1.7262    1.4936 C   0  0  2  0  0  0  0  0  0  0  0  0
   -0.9275   -2.5966    2.6692 N   0  0  0  0  0  0  0  0  0  0  0  0
   -0.2825   -0.3262    1.8651 C   0  0  1  0  0  0  0  0  0  0  0  0
    0.9961   -0.5538    2.4774 O   0  0  0  0  0  0  0  0  0  0  0  0
    1.4232    0.3863    3.4574 C   0  0  1  0  0  0  0  0  0  0  0  0
    0.5483    0.3734    4.5822 O   0  0  0  0  0  0  0  0  0  0  0  0
    0.5778   -0.8010    5.3904 C   0  0  2  0  0  0  0  0  0  0  0  0
   -0.4192   -0.6349    6.5450 C   0  0  0  0  0  0  0  0  0  0  0  0
   -0.7112   -1.9064    7.1913 N   0  0  0  0  0  0  0  0  0  0  0  0
    1.9910   -1.0443    5.9520 C   0  0  1  0  0  0  0  0  0  0  0  0
    2.0081   -2.2460    6.7019 O   0  0  0  0  0  0  0  0  0  0  0  0
    2.9763   -1.1457    4.7810 C   0  0  2  0  0  0  0  0  0  0  0  0
    4.2982   -1.2821    5.2677 O   0  0  0  0  0  0  0  0  0  0  0  0
    2.8679    0.0869    3.8733 C   0  0  1  0  0  0  0  0  0  0  0  0
    3.7228   -0.0810    2.6894 N   0  0  0  0  0  0  0  0  0  0  0  0
   -0.2312    2.7988    3.3058 C   0  0  2  0  0  0  0  0  0  0  0  0
   -1.1455    2.3898    4.3059 O   0  0  0  0  0  0  0  0  0  0  0  0
   -0.0108    4.3104    3.2734 C   0  0  2  0  0  0  0  0  0  0  0  0
   -0.0512    4.9184    4.5492 O   0  0  0  0  0  0  0  0  0  0  0  0
  2  1  1  0  0  0  0
  3  2  1  6  0  0  0
  3 30  1  0  0  0  0
  4  5  1  0  0  0  0
  4  3  1  0  0  0  0
  5 28  1  0  0  0  0
  5  6  1  6  0  0  0
  7  6  1  1  0  0  0
  8  7  1  0  0  0  0
  8  9  1  6  0  0  0
 10 11  1  1  0  0  0
 10  8  1  0  0  0  0
 12 10  1  0  0  0  0
 13 12  1  0  0  0  0
 13 15  1  0  0  0  0
 13 14  1  1  0  0  0
 15  7  1  0  0  0  0
 15 16  1  6  0  0  0
 17 16  1  6  0  0  0
 18 17  1  0  0  0  0
 19 20  1  1  0  0  0
 19 18  1  0  0  0  0
 20 21  1  0  0  0  0
 22 24  1  0  0  0  0
 22 19  1  0  0  0  0
 22 23  1  6  0  0  0
 24 25  1  1  0  0  0
 24 26  1  0  0  0  0
 26 17  1  0  0  0  0
 26 27  1  6  0  0  0
 28 29  1  1  0  0  0
 28 30  1  0  0  0  0
 30 31  1  1  0  0  0
M  END
>  <CHROM.1>
-172.67055110,-173.31045963,-124.70297380,53.84028485,-173.36152102,70.37188850
173.16278575,88.67306916,63.63279546,164.47123770,64.40445593,-176.31012373
123.46101756,157.05845735,-173.57164787,-51.34785398,0.05870233,0.85994908
2.94125793,-2.43211203,1.00249823,-3.03429847

>  <Name>
lig.pdb

>  <RI>
0

>  <Rbt.Current_Directory>
/home/itssahil/PROJECTS/Mol_Feturizer/New_Systems/rnas/2n0j

>  <Rbt.Executable>
rbdock ($Id: //depot/dev/client3/rdock/2013.1/src/exe/rbdock.cxx#4 $)

>  <Rbt.Library>
libRbt.so (2013.1, Build901 2013/11/27)

>  <Rbt.Parameter_File>
/export/apps/rDock/src/rDock_2013.1_src/data/scripts/dock_solv.prm

>  <Rbt.Receptor>
prm/blind_docking_40.prm

>  <SCORE>
-44.589

>  <SCORE.INTER>
-46.8144

>  <SCORE.INTER.CONST>
1

>  <SCORE.INTER.POLAR>
-5.77014

>  <SCORE.INTER.ROT>
6

>  <SCORE.INTER.SOLV>
24.1261

>  <SCORE.INTER.VDW>
-27.6179

>  <SCORE.INTER.norm>
-1.51014

>  <SCORE.INTRA>
-0.307655

>  <SCORE.INTRA.DIHEDRAL>
-6.20832

>  <SCORE.INTRA.DIHEDRAL.0>
28.0161

>  <SCORE.INTRA.POLAR>
-0.0325628

>  <SCORE.INTRA.POLAR.0>
-1.05798

>  <SCORE.INTRA.REPUL>
0

>  <SCORE.INTRA.REPUL.0>
0

>  <SCORE.INTRA.SOLV>
1.88929

>  <SCORE.INTRA.SOLV.lig_0>
-42.5945

>  <SCORE.INTRA.VDW>
1.96257

>  <SCORE.INTRA.VDW.0>
-5.13869

>  <SCORE.INTRA.norm>
-0.00992435

>  <SCORE.RESTR>
2.5331

>  <SCORE.RESTR.CAVITY>
2.5331

>  <SCORE.RESTR.norm>
0.081713

>  <SCORE.SYSTEM>
0

>  <SCORE.SYSTEM.CONST>
0

>  <SCORE.SYSTEM.DIHEDRAL>
0

>  <SCORE.SYSTEM.SOLV>
0

>  <SCORE.SYSTEM.norm>
0

>  <SCORE.heavy>
31

>  <SCORE.norm>
-1.43835

>  <RMSD>
5.483

$$$$
lig.pdb
 OpenBabel11021811453D
libRbt.so/2013.1/901 2013/11/27
 31 33  0  0  0  0  0  0  0  0999 V2000
    3.4929    0.9503    2.8703 O   0  0  0  0  0  0  0  0  0  0  0  0
    2.8723    0.0674    3.7844 C   0  0  0  0  0  0  0  0  0  0  0  0
    1.3437    0.1082    3.6540 C   0  0  1  0  0  0  0  0  0  0  0  0
    0.8138    1.3637    4.0490 O   0  0  0  0  0  0  0  0  0  0  0  0
   -0.4253    1.5907    3.3843 C   0  0  1  0  0  0  0  0  0  0  0  0
   -0.4429    2.9010    2.8305 O   0  0  0  0  0  0  0  0  0  0  0  0
   -0.9717    3.9389    3.6404 C   0  0  2  0  0  0  0  0  0  0  0  0
   -2.4268    3.5752    3.9757 C   0  0  1  0  0  0  0  0  0  0  0  0
   -2.4508    2.4632    4.8568 O   0  0  0  0  0  0  0  0  0  0  0  0
   -3.2167    4.7083    4.6483 C   0  0  2  0  0  0  0  0  0  0  0  0
   -4.6222    4.3243    4.8509 N   0  0  0  0  0  0  0  0  0  0  0  0
   -3.1528    5.9624    3.7846 C   0  0  0  0  0  0  0  0  0  0  0  0
   -1.6978    6.3409    3.5363 C   0  0  2  0  0  0  0  0  0  0  0  0
   -1.6669    7.5791    2.7505 N   0  0  0  0  0  0  0  0  0  0  0  0
   -0.9575    5.1898    2.8216 C   0  0  1  0  0  0  0  0  0  0  0  0
    0.3851    5.6598    2.6265 O   0  0  0  0  0  0  0  0  0  0  0  0
    1.0225    5.3139    1.4016 C   0  0  1  0  0  0  0  0  0  0  0  0
    1.2176    6.4701    0.5917 O   0  0  0  0  0  0  0  0  0  0  0  0
    2.1722    7.4177    1.0653 C   0  0  2  0  0  0  0  0  0  0  0  0
    2.2487    8.5849    0.0720 C   0  0  0  0  0  0  0  0  0  0  0  0
    2.3755    9.8649    0.7542 N   0  0  0  0  0  0  0  0  0  0  0  0
    3.5605    6.7686    1.2158 C   0  0  1  0  0  0  0  0  0  0  0  0
    4.4763    7.7125    1.7421 O   0  0  0  0  0  0  0  0  0  0  0  0
    3.4439    5.5693    2.1648 C   0  0  2  0  0  0  0  0  0  0  0  0
    4.6864    4.8977    2.2553 O   0  0  0  0  0  0  0  0  0  0  0  0
    2.3509    4.6041    1.6866 C   0  0  1  0  0  0  0  0  0  0  0  0
    2.1619    3.5280    2.6699 N   0  0  0  0  0  0  0  0  0  0  0  0
   -0.5204    0.5545    2.2549 C   0  0  2  0  0  0  0  0  0  0  0  0
   -1.5052   -0.4117    2.5714 O   0  0  0  0  0  0  0  0  0  0  0  0
    0.8936   -0.0218    2.2023 C   0  0  2  0  0  0  0  0  0  0  0  0
    0.9506   -1.3441    1.7050 O   0  0  0  0  0  0  0  0  0  0  0  0
  2  1  1  0  0  0  0
  3  2  1  6  0  0  0
  3 30  1  0  0  0  0
  4  5  1  0  0  0  0
  4  3  1  0  0  0  0
  5 28  1  0  0  0  0
  5  6  1  6  0  0  0
  7  6  1  6  0  0  0
  8  7  1  0  0  0  0
  8  9  1  1  0  0  0
 10 11  1  6  0  0  0
 10  8  1  0  0  0  0
 12 10  1  0  0  0  0
 13 12  1  0  0  0  0
 13 15  1  0  0  0  0
 13 14  1  6  0  0  0
 15  7  1  0  0  0  0
 15 16  1  1  0  0  0
 17 16  1  1  0  0  0
 18 17  1  0  0  0  0
 19 20  1  6  0  0  0
 19 18  1  0  0  0  0
 20 21  1  0  0  0  0
 22 24  1  0  0  0  0
 22 19  1  0  0  0  0
 22 23  1  1  0  0  0
 24 25  1  6  0  0  0
 24 26  1  0  0  0  0
 26 17  1  0  0  0  0
 26 27  1  1  0  0  0
 28 29  1  1  0  0  0
 28 30  1  0  0  0  0
 30 31  1  1  0  0  0
M  END
>  <CHROM.1>
-68.50236223,-66.50199818,-91.34260843,-59.52381390,67.59250279,-170.26188122
-54.60542338,97.55637014,111.84037507,140.50566766,159.40548779,-63.69536798
72.83299507,42.51476413,-56.93227326,-177.66718765,0.55152598,4.07176577
2.65935085,-1.97468427,0.32906060,-0.14919038

>  <Name>
lig.pdb

>  <RI>
0

>  <Rbt.Current_Directory>
/home/itssahil/PROJECTS/Mol_Feturizer/New_Systems/rnas/2n0j

>  <Rbt.Executable>
rbdock ($Id: //depot/dev/client3/rdock/2013.1/src/exe/rbdock.cxx#4 $)

>  <Rbt.Library>
libRbt.so (2013.1, Build901 2013/11/27)

>  <Rbt.Parameter_File>
/export/apps/rDock/src/rDock_2013.1_src/data/scripts/dock_solv.prm

>  <Rbt.Receptor>
prm/pocket_docking_8.prm

>  <SCORE>
-39.5962

>  <SCORE.INTER>
-38.1392

>  <SCORE.INTER.CONST>
1

>  <SCORE.INTER.POLAR>
-4.24931

>  <SCORE.INTER.ROT>
6

>  <SCORE.INTER.SOLV>
16.0078

>  <SCORE.INTER.VDW>
-24.1977

>  <SCORE.INTER.norm>
-1.2303

>  <SCORE.INTRA>
-1.45704

>  <SCORE.INTRA.DIHEDRAL>
-4.43889

>  <SCORE.INTRA.DIHEDRAL.0>
28.0161

>  <SCORE.INTRA.POLAR>
-0.740331

>  <SCORE.INTRA.POLAR.0>
-1.05798

>  <SCORE.INTRA.REPUL>
0.0795955

>  <SCORE.INTRA.REPUL.0>
0

>  <SCORE.INTRA.SOLV>
2.39849

>  <SCORE.INTRA.SOLV.lig_0>
-42.5945

>  <SCORE.INTRA.VDW>
1.68231

>  <SCORE.INTRA.VDW.0>
-5.13869

>  <SCORE.INTRA.norm>
-0.0470013

>  <SCORE.RESTR>
0

>  <SCORE.RESTR.CAVITY>
0

>  <SCORE.RESTR.norm>
0

>  <SCORE.SYSTEM>
0

>  <SCORE.SYSTEM.CONST>
0

>  <SCORE.SYSTEM.DIHEDRAL>
0

>  <SCORE.SYSTEM.SOLV>
0

>  <SCORE.SYSTEM.norm>
0

>  <SCORE.heavy>
31

>  <SCORE.norm>
-1.2773

>  <RMSD>
5.487

$$$$
lig.pdb
 OpenBabel11021811453D
libRbt.so/2013.1/901 2013/11/27
 31 33  0  0  0  0  0  0  0  0999 V2000
   -1.5711    7.1604    2.3917 O   0  0  0  0  0  0  0  0  0  0  0  0
   -0.9598    6.1310    1.6389 C   0  0  0  0  0  0  0  0  0  0  0  0
   -1.1303    4.7640    2.3153 C   0  0  1  0  0  0  0  0  0  0  0  0
   -1.1694    3.7081    1.3685 O   0  0  0  0  0  0  0  0  0  0  0  0
   -0.7280    2.5000    1.9805 C   0  0  1  0  0  0  0  0  0  0  0  0
    0.2250    1.8554    1.1438 O   0  0  0  0  0  0  0  0  0  0  0  0
   -0.0986    0.5556    0.6761 C   0  0  2  0  0  0  0  0  0  0  0  0
   -1.4601    0.6391   -0.0322 C   0  0  1  0  0  0  0  0  0  0  0  0
   -1.3260    1.3699   -1.2411 O   0  0  0  0  0  0  0  0  0  0  0  0
   -2.0654   -0.7271   -0.3887 C   0  0  2  0  0  0  0  0  0  0  0  0
   -3.4066   -0.5741   -0.9736 N   0  0  0  0  0  0  0  0  0  0  0  0
   -2.1535   -1.5927    0.8626 C   0  0  0  0  0  0  0  0  0  0  0  0
   -0.7737   -1.7200    1.4966 C   0  0  2  0  0  0  0  0  0  0  0  0
   -0.8781   -2.6010    2.6648 N   0  0  0  0  0  0  0  0  0  0  0  0
   -0.2260   -0.3273    1.8760 C   0  0  1  0  0  0  0  0  0  0  0  0
    1.0571   -0.5693    2.4731 O   0  0  0  0  0  0  0  0  0  0  0  0
    1.5125    0.3733    3.4379 C   0  0  1  0  0  0  0  0  0  0  0  0
    0.6507    0.3882    4.5727 O   0  0  0  0  0  0  0  0  0  0  0  0
    0.6687   -0.7780    5.3932 C   0  0  2  0  0  0  0  0  0  0  0  0
   -0.3115   -0.5817    6.5574 C   0  0  0  0  0  0  0  0  0  0  0  0
   -0.6887   -1.8507    7.1633 N   0  0  0  0  0  0  0  0  0  0  0  0
    2.0838   -1.0407    5.9411 C   0  0  1  0  0  0  0  0  0  0  0  0
    2.0883   -2.2345    6.7036 O   0  0  0  0  0  0  0  0  0  0  0  0
    3.0533   -1.1723    4.7599 C   0  0  2  0  0  0  0  0  0  0  0  0
    4.3783   -1.3272    5.2327 O   0  0  0  0  0  0  0  0  0  0  0  0
    2.9564    0.0524    3.8402 C   0  0  1  0  0  0  0  0  0  0  0  0
    3.7942   -0.1434    2.6484 N   0  0  0  0  0  0  0  0  0  0  0  0
   -0.0639    2.8912    3.3087 C   0  0  2  0  0  0  0  0  0  0  0  0
   -0.8809    2.4869    4.3915 O   0  0  0  0  0  0  0  0  0  0  0  0
    0.0689    4.4086    3.1884 C   0  0  2  0  0  0  0  0  0  0  0  0
    0.0850    5.0784    4.4335 O   0  0  0  0  0  0  0  0  0  0  0  0
  2  1  1  0  0  0  0
  3  2  1  6  0  0  0
  3 30  1  0  0  0  0
  4  5  1  0  0  0  0
  4  3  1  0  0  0  0
  5 28  1  0  0  0  0
  5  6  1  6  0  0  0
  7  6  1  1  0  0  0
  8  7  1  0  0  0  0
  8  9  1  6  0  0  0
 10 11  1  1  0  0  0
 10  8  1  0  0  0  0
 12 10  1  0  0  0  0
 13 12  1  0  0  0  0
 13 15  1  0  0  0  0
 13 14  1  1  0  0  0
 15  7  1  0  0  0  0
 15 16  1  6  0  0  0
 17 16  1  6  0  0  0
 18 17  1  0  0  0  0
 19 20  1  1  0  0  0
 19 18  1  0  0  0  0
 20 21  1  0  0  0  0
 22 24  1  0  0  0  0
 22 19  1  0  0  0  0
 22 23  1  6  0  0  0
 24 25  1  1  0  0  0
 24 26  1  0  0  0  0
 26 17  1  0  0  0  0
 26 27  1  6  0  0  0
 28 29  1  1  0  0  0
 28 30  1  0  0  0  0
 30 31  1  1  0  0  0
M  END
>  <CHROM.1>
-82.04951645,150.10737345,-119.31880812,55.03593140,-178.01139045,65.44481364
175.55922857,87.42910861,63.45609955,160.61110997,64.05348038,177.76488538
-65.75987937,155.89291505,74.87134668,58.04676751,0.08422238,0.87332683,2.92535657
-2.48949038,0.99028890,-2.97461458

>  <Name>
lig.pdb

>  <RI>
1.79691e+07

>  <Rbt.Current_Directory>
/home/itssahil/PROJECTS/Mol_Feturizer/New_Systems/rnas/2n0j

>  <Rbt.Executable>
rbdock ($Id: //depot/dev/client3/rdock/2013.1/src/exe/rbdock.cxx#4 $)

>  <Rbt.Library>
libRbt.so (2013.1, Build901 2013/11/27)

>  <Rbt.Parameter_File>
/export/apps/rDock/src/rDock_2013.1_src/data/scripts/dock_solv.prm

>  <Rbt.Receptor>
prm/blind_docking_20.prm

>  <SCORE>
-42.2866

>  <SCORE.INTER>
-42.5601

>  <SCORE.INTER.CONST>
1

>  <SCORE.INTER.POLAR>
-5.07936

>  <SCORE.INTER.ROT>
6

>  <SCORE.INTER.SOLV>
25.179

>  <SCORE.INTER.VDW>
-27.4352

>  <SCORE.INTER.norm>
-1.37291

>  <SCORE.INTRA>
-1.85216

>  <SCORE.INTRA.DIHEDRAL>
-8.59079

>  <SCORE.INTRA.DIHEDRAL.0>
28.0161

>  <SCORE.INTRA.POLAR>
-0.0877257

>  <SCORE.INTRA.POLAR.0>
-1.05798

>  <SCORE.INTRA.REPUL>
0

>  <SCORE.INTRA.REPUL.0>
0

>  <SCORE.INTRA.SOLV>
1.23379

>  <SCORE.INTRA.SOLV.lig_0>
-42.5945

>  <SCORE.INTRA.VDW>
2.12461

>  <SCORE.INTRA.VDW.0>
-5.13869

>  <SCORE.INTRA.norm>
-0.059747

>  <SCORE.RESTR>
2.12567

>  <SCORE.RESTR.CAVITY>
2.12567

>  <SCORE.RESTR.norm>
0.0685702

>  <SCORE.SYSTEM>
0

>  <SCORE.SYSTEM.CONST>
0

>  <SCORE.SYSTEM.DIHEDRAL>
0

>  <SCORE.SYSTEM.SOLV>
0

>  <SCORE.SYSTEM.norm>
0

>  <SCORE.heavy>
31

>  <SCORE.norm>
-1.36408

>  <RMSD>
5.498

$$$$
lig.pdb
 OpenBabel11021811453D
libRbt.so/2013.1/901 2013/11/27
 31 33  0  0  0  0  0  0  0  0999 V2000
   -3.3505   -1.7106    1.0655 O   0  0  0  0  0  0  0  0  0  0  0  0
   -3.3041   -0.4820    1.7645 C   0  0  0  0  0  0  0  0  0  0  0  0
   -2.1337    0.3897    1.2898 C   0  0  1  0  0  0  0  0  0  0  0  0
   -2.0586    1.6098    2.0100 O   0  0  0  0  0  0  0  0  0  0  0  0
   -0.7168    2.0875    2.0035 C   0  0  1  0  0  0  0  0  0  0  0  0
   -0.3318    2.4630    3.3206 O   0  0  0  0  0  0  0  0  0  0  0  0
   -0.8982    3.6529    3.8460 C   0  0  2  0  0  0  0  0  0  0  0  0
   -2.3977    3.3987    4.0679 C   0  0  1  0  0  0  0  0  0  0  0  0
   -2.5741    2.4829    5.1373 O   0  0  0  0  0  0  0  0  0  0  0  0
   -3.2032    4.6613    4.4098 C   0  0  2  0  0  0  0  0  0  0  0  0
   -4.6394    4.3599    4.5123 N   0  0  0  0  0  0  0  0  0  0  0  0
   -2.9823    5.7189    3.3348 C   0  0  0  0  0  0  0  0  0  0  0  0
   -1.4921    6.0047    3.1948 C   0  0  2  0  0  0  0  0  0  0  0  0
   -1.3134    7.0628    2.1947 N   0  0  0  0  0  0  0  0  0  0  0  0
   -0.7319    4.7173    2.8094 C   0  0  1  0  0  0  0  0  0  0  0  0
    0.6451    5.1062    2.6900 O   0  0  0  0  0  0  0  0  0  0  0  0
    1.2433    4.9905    1.4034 C   0  0  1  0  0  0  0  0  0  0  0  0
    1.1317    6.2158    0.6845 O   0  0  0  0  0  0  0  0  0  0  0  0
    1.9037    7.3086    1.1778 C   0  0  2  0  0  0  0  0  0  0  0  0
    1.6600    8.5324    0.2846 C   0  0  0  0  0  0  0  0  0  0  0  0
    2.3222    9.7197    0.8059 N   0  0  0  0  0  0  0  0  0  0  0  0
    3.4036    6.9598    1.1874 C   0  0  1  0  0  0  0  0  0  0  0  0
    4.1425    8.0371    1.7352 O   0  0  0  0  0  0  0  0  0  0  0  0
    3.6114    5.6994    2.0362 C   0  0  2  0  0  0  0  0  0  0  0  0
    4.9691    5.3020    1.9933 O   0  0  0  0  0  0  0  0  0  0  0  0
    2.7077    4.5603    1.5453 C   0  0  1  0  0  0  0  0  0  0  0  0
    2.8221    3.4022    2.4432 N   0  0  0  0  0  0  0  0  0  0  0  0
    0.1661    0.9271    1.5217 C   0  0  2  0  0  0  0  0  0  0  0  0
    0.6514    1.2012    0.2205 O   0  0  0  0  0  0  0  0  0  0  0  0
   -0.7858   -0.2671    1.5701 C   0  0  2  0  0  0  0  0  0  0  0  0
   -0.4537   -1.2963    0.6593 O   0  0  0  0  0  0  0  0  0  0  0  0
  2  1  1  0  0  0  0
  3  2  1  1  0  0  0
  3 30  1  0  0  0  0
  4  5  1  0  0  0  0
  4  3  1  0  0  0  0
  5 28  1  0  0  0  0
  5  6  1  1  0  0  0
  7  6  1  6  0  0  0
  8  7  1  0  0  0  0
  8  9  1  1  0  0  0
 10 11  1  6  0  0  0
 10  8  1  0  0  0  0
 12 10  1  0  0  0  0
 13 12  1  0  0  0  0
 13 15  1  0  0  0  0
 13 14  1  6  0  0  0
 15  7  1  0  0  0  0
 15 16  1  1  0  0  0
 17 16  1  1  0  0  0
 18 17  1  0  0  0  0
 19 20  1  6  0  0  0
 19 18  1  0  0  0  0
 20 21  1  0  0  0  0
 22 24  1  0  0  0  0
 22 19  1  0  0  0  0
 22 23  1  1  0  0  0
 24 25  1  6  0  0  0
 24 26  1  0  0  0  0
 26 17  1  0  0  0  0
 26 27  1  1  0  0  0
 28 29  1  6  0  0  0
 28 30  1  0  0  0  0
 30 31  1  6  0  0  0
M  END
>  <CHROM.1>
-176.17278181,-178.47134215,-72.53073679,68.34637259,59.94246895,61.67833550
-114.91887585,122.99491172,92.66028557,174.64975919,-95.22920830,-170.95765081
63.61938212,-163.74666438,168.72553435,-177.45057329,-0.04324831,3.95410959
2.15352236,-2.27359330,0.40857565,0.20935518

>  <Name>
lig.pdb

>  <RI>
3.32461e+07

>  <Rbt.Current_Directory>
/home/itssahil/PROJECTS/Mol_Feturizer/New_Systems/rnas/2n0j

>  <Rbt.Executable>
rbdock ($Id: //depot/dev/client3/rdock/2013.1/src/exe/rbdock.cxx#4 $)

>  <Rbt.Library>
libRbt.so (2013.1, Build901 2013/11/27)

>  <Rbt.Parameter_File>
/export/apps/rDock/src/rDock_2013.1_src/data/scripts/dock_solv.prm

>  <Rbt.Receptor>
prm/pocket_docking_7.prm

>  <SCORE>
-40.463

>  <SCORE.INTER>
-39.4825

>  <SCORE.INTER.CONST>
1

>  <SCORE.INTER.POLAR>
-4.96059

>  <SCORE.INTER.ROT>
6

>  <SCORE.INTER.SOLV>
13.5834

>  <SCORE.INTER.VDW>
-21.9142

>  <SCORE.INTER.norm>
-1.27363

>  <SCORE.INTRA>
-0.980505

>  <SCORE.INTRA.DIHEDRAL>
-7.59296

>  <SCORE.INTRA.DIHEDRAL.0>
28.0161

>  <SCORE.INTRA.POLAR>
-0.410253

>  <SCORE.INTRA.POLAR.0>
-1.05798

>  <SCORE.INTRA.REPUL>
0

>  <SCORE.INTRA.REPUL.0>
0

>  <SCORE.INTRA.SOLV>
1.74293

>  <SCORE.INTRA.SOLV.lig_0>
-42.5945

>  <SCORE.INTRA.VDW>
3.33937

>  <SCORE.INTRA.VDW.0>
-5.13869

>  <SCORE.INTRA.norm>
-0.0316292

>  <SCORE.RESTR>
0

>  <SCORE.RESTR.CAVITY>
0

>  <SCORE.RESTR.norm>
0

>  <SCORE.SYSTEM>
0

>  <SCORE.SYSTEM.CONST>
0

>  <SCORE.SYSTEM.DIHEDRAL>
0

>  <SCORE.SYSTEM.SOLV>
0

>  <SCORE.SYSTEM.norm>
0

>  <SCORE.heavy>
31

>  <SCORE.norm>
-1.30526

>  <RMSD>
5.498

$$$$
lig.pdb
 OpenBabel11021811453D
libRbt.so/2013.1/901 2013/11/27
 31 33  0  0  0  0  0  0  0  0999 V2000
   -0.1623    1.9090    9.4690 O   0  0  0  0  0  0  0  0  0  0  0  0
   -1.0855    1.0447    8.8358 C   0  0  0  0  0  0  0  0  0  0  0  0
   -2.3907    1.7741    8.4898 C   0  0  1  0  0  0  0  0  0  0  0  0
   -2.1876    2.7854    7.5156 O   0  0  0  0  0  0  0  0  0  0  0  0
   -3.3974    3.0082    6.7978 C   0  0  1  0  0  0  0  0  0  0  0  0
   -3.1327    3.0283    5.4001 O   0  0  0  0  0  0  0  0  0  0  0  0
   -2.3061    4.0734    4.9129 C   0  0  2  0  0  0  0  0  0  0  0  0
   -2.9585    5.4080    5.3073 C   0  0  1  0  0  0  0  0  0  0  0  0
   -2.8722    5.5854    6.7125 O   0  0  0  0  0  0  0  0  0  0  0  0
   -2.3140    6.6383    4.6509 C   0  0  2  0  0  0  0  0  0  0  0  0
   -3.0475    7.8660    4.9957 N   0  0  0  0  0  0  0  0  0  0  0  0
   -2.2992    6.4646    3.1367 C   0  0  0  0  0  0  0  0  0  0  0  0
   -1.5769    5.1723    2.7756 C   0  0  2  0  0  0  0  0  0  0  0  0
   -1.5298    5.0588    1.3139 N   0  0  0  0  0  0  0  0  0  0  0  0
   -2.2850    3.9622    3.4221 C   0  0  1  0  0  0  0  0  0  0  0  0
   -1.5355    2.8111    3.0043 O   0  0  0  0  0  0  0  0  0  0  0  0
   -2.2459    1.5836    2.8808 C   0  0  1  0  0  0  0  0  0  0  0  0
   -2.4836    1.2753    1.5100 O   0  0  0  0  0  0  0  0  0  0  0  0
   -1.3378    0.9342    0.7327 C   0  0  2  0  0  0  0  0  0  0  0  0
   -1.7836    0.6347   -0.7047 C   0  0  0  0  0  0  0  0  0  0  0  0
   -2.9274   -0.2657   -0.7371 N   0  0  0  0  0  0  0  0  0  0  0  0
   -0.6206   -0.2939    1.3234 C   0  0  1  0  0  0  0  0  0  0  0  0
    0.5447   -0.5768    0.5694 O   0  0  0  0  0  0  0  0  0  0  0  0
   -0.2403    0.0094    2.7779 C   0  0  2  0  0  0  0  0  0  0  0  0
    0.3432   -1.1325    3.3767 O   0  0  0  0  0  0  0  0  0  0  0  0
   -1.4706    0.4595    3.5773 C   0  0  1  0  0  0  0  0  0  0  0  0
   -1.0711    0.8684    4.9314 N   0  0  0  0  0  0  0  0  0  0  0  0
   -4.3321    1.8350    7.1266 C   0  0  2  0  0  0  0  0  0  0  0  0
   -5.3923    2.2821    7.9510 O   0  0  0  0  0  0  0  0  0  0  0  0
   -3.4020    0.8450    7.8259 C   0  0  2  0  0  0  0  0  0  0  0  0
   -4.0645   -0.0154    8.7314 O   0  0  0  0  0  0  0  0  0  0  0  0
  2  1  1  0  0  0  0
  3  2  1  6  0  0  0
  3 30  1  0  0  0  0
  4  5  1  0  0  0  0
  4  3  1  0  0  0  0
  5 28  1  0  0  0  0
  5  6  1  6  0  0  0
  7  6  1  1  0  0  0
  8  7  1  0  0  0  0
  8  9  1  1  0  0  0
 10 11  1  6  0  0  0
 10  8  1  0  0  0  0
 12 10  1  0  0  0  0
 13 12  1  0  0  0  0
 13 15  1  0  0  0  0
 13 14  1  6  0  0  0
 15  7  1  0  0  0  0
 15 16  1  1  0  0  0
 17 16  1  6  0  0  0
 18 17  1  0  0  0  0
 19 20  1  6  0  0  0
 19 18  1  0  0  0  0
 20 21  1  0  0  0  0
 22 24  1  0  0  0  0
 22 19  1  0  0  0  0
 22 23  1  6  0  0  0
 24 25  1  1  0  0  0
 24 26  1  0  0  0  0
 26 17  1  0  0  0  0
 26 27  1  1  0  0  0
 28 29  1  1  0  0  0
 28 30  1  0  0  0  0
 30 31  1  1  0  0  0
M  END
>  <CHROM.1>
68.46677678,65.55353098,-64.42901340,-57.32472891,67.31730599,-37.30271643
49.86526060,88.66339369,104.26891615,-47.75935968,68.26288234,-160.64725758
-178.82226616,-76.23827012,177.88998527,62.39495421,-2.11196792,2.40083715
4.49276624,-2.66806704,1.30612911,-0.82657595

>  <Name>
lig.pdb

>  <RI>
3.33129e+07

>  <Rbt.Current_Directory>
/home/itssahil/PROJECTS/Mol_Feturizer/New_Systems/rnas/2n0j

>  <Rbt.Executable>
rbdock ($Id: //depot/dev/client3/rdock/2013.1/src/exe/rbdock.cxx#4 $)

>  <Rbt.Library>
libRbt.so (2013.1, Build901 2013/11/27)

>  <Rbt.Parameter_File>
/export/apps/rDock/src/rDock_2013.1_src/data/scripts/dock_solv.prm

>  <Rbt.Receptor>
prm/pocket_docking_4.prm

>  <SCORE>
-37.0365

>  <SCORE.INTER>
-33.9823

>  <SCORE.INTER.CONST>
1

>  <SCORE.INTER.POLAR>
-3.98645

>  <SCORE.INTER.ROT>
6

>  <SCORE.INTER.SOLV>
14.0907

>  <SCORE.INTER.VDW>
-21.6636

>  <SCORE.INTER.norm>
-1.0962

>  <SCORE.INTRA>
-3.05418

>  <SCORE.INTRA.DIHEDRAL>
-12.982

>  <SCORE.INTRA.DIHEDRAL.0>
28.0161

>  <SCORE.INTRA.POLAR>
0.39136

>  <SCORE.INTRA.POLAR.0>
-1.05798

>  <SCORE.INTRA.REPUL>
0

>  <SCORE.INTRA.REPUL.0>
0

>  <SCORE.INTRA.SOLV>
0.361541

>  <SCORE.INTRA.SOLV.lig_0>
-42.5945

>  <SCORE.INTRA.VDW>
1.92543

>  <SCORE.INTRA.VDW.0>
-5.13869

>  <SCORE.INTRA.norm>
-0.0985221

>  <SCORE.RESTR>
0

>  <SCORE.RESTR.CAVITY>
0

>  <SCORE.RESTR.norm>
0

>  <SCORE.SYSTEM>
0

>  <SCORE.SYSTEM.CONST>
0

>  <SCORE.SYSTEM.DIHEDRAL>
0

>  <SCORE.SYSTEM.SOLV>
0

>  <SCORE.SYSTEM.norm>
0

>  <SCORE.heavy>
31

>  <SCORE.norm>
-1.19473

>  <RMSD>
5.500

$$$$
lig.pdb
 OpenBabel11021811453D
libRbt.so/2013.1/901 2013/11/27
 31 33  0  0  0  0  0  0  0  0999 V2000
   -1.6527    6.6262    3.3342 O   0  0  0  0  0  0  0  0  0  0  0  0
   -1.9354    5.2699    3.0500 C   0  0  0  0  0  0  0  0  0  0  0  0
   -0.6622    4.4135    3.0783 C   0  0  1  0  0  0  0  0  0  0  0  0
   -0.8665    3.1446    2.4775 O   0  0  0  0  0  0  0  0  0  0  0  0
    0.3717    2.6452    1.9811 C   0  0  1  0  0  0  0  0  0  0  0  0
    0.2022    2.1711    0.6506 O   0  0  0  0  0  0  0  0  0  0  0  0
   -0.1724    0.8121    0.4905 C   0  0  2  0  0  0  0  0  0  0  0  0
   -1.5962    0.7845   -0.0876 C   0  0  1  0  0  0  0  0  0  0  0  0
   -1.5774    1.2519   -1.4272 O   0  0  0  0  0  0  0  0  0  0  0  0
   -2.2407   -0.6100   -0.0991 C   0  0  2  0  0  0  0  0  0  0  0  0
   -3.6318   -0.5451   -0.5730 N   0  0  0  0  0  0  0  0  0  0  0  0
   -2.2102   -1.2020    1.3051 C   0  0  0  0  0  0  0  0  0  0  0  0
   -0.7756   -1.2328    1.8179 C   0  0  2  0  0  0  0  0  0  0  0  0
   -0.7697   -1.8562    3.1457 N   0  0  0  0  0  0  0  0  0  0  0  0
   -0.1862    0.1938    1.8517 C   0  0  1  0  0  0  0  0  0  0  0  0
    1.1480    0.0456    2.3612 O   0  0  0  0  0  0  0  0  0  0  0  0
    1.4942    0.8147    3.5080 C   0  0  1  0  0  0  0  0  0  0  0  0
    0.8011    0.3411    4.6596 O   0  0  0  0  0  0  0  0  0  0  0  0
    1.1870   -0.9435    5.1436 C   0  0  2  0  0  0  0  0  0  0  0  0
    0.3419   -1.2838    6.3784 C   0  0  0  0  0  0  0  0  0  0  0  0
    0.6310   -0.3908    7.4913 N   0  0  0  0  0  0  0  0  0  0  0  0
    2.6820   -0.9637    5.5126 C   0  0  1  0  0  0  0  0  0  0  0  0
    3.0538   -2.2638    5.9344 O   0  0  0  0  0  0  0  0  0  0  0  0
    3.4999   -0.5613    4.2790 C   0  0  2  0  0  0  0  0  0  0  0  0
    4.8739   -0.4853    4.6097 O   0  0  0  0  0  0  0  0  0  0  0  0
    3.0120    0.7819    3.7198 C   0  0  1  0  0  0  0  0  0  0  0  0
    3.7160    1.0933    2.4676 N   0  0  0  0  0  0  0  0  0  0  0  0
    1.3592    3.8212    1.9854 C   0  0  2  0  0  0  0  0  0  0  0  0
    2.3278    3.6312    2.9999 O   0  0  0  0  0  0  0  0  0  0  0  0
    0.4529    5.0253    2.2362 C   0  0  2  0  0  0  0  0  0  0  0  0
    1.1089    6.1103    2.8620 O   0  0  0  0  0  0  0  0  0  0  0  0
  2  1  1  0  0  0  0
  3  2  1  6  0  0  0
  3 30  1  0  0  0  0
  4  5  1  0  0  0  0
  4  3  1  0  0  0  0
  5 28  1  0  0  0  0
  5  6  1  6  0  0  0
  7  6  1  1  0  0  0
  8  7  1  0  0  0  0
  8  9  1  6  0  0  0
 10 11  1  1  0  0  0
 10  8  1  0  0  0  0
 12 10  1  0  0  0  0
 13 12  1  0  0  0  0
 13 15  1  0  0  0  0
 13 14  1  1  0  0  0
 15  7  1  0  0  0  0
 15 16  1  6  0  0  0
 17 16  1  6  0  0  0
 18 17  1  0  0  0  0
 19 20  1  1  0  0  0
 19 18  1  0  0  0  0
 20 21  1  0  0  0  0
 22 24  1  0  0  0  0
 22 19  1  0  0  0  0
 22 23  1  6  0  0  0
 24 25  1  1  0  0  0
 24 26  1  0  0  0  0
 26 17  1  0  0  0  0
 26 27  1  6  0  0  0
 28 29  1  1  0  0  0
 28 30  1  0  0  0  0
 30 31  1  1  0  0  0
M  END
>  <CHROM.1>
-55.31824962,-165.27217765,-89.37300121,112.85831486,-175.71956228,-13.70781108
-97.19545559,114.51042548,69.47192254,-65.88915610,6.93700114,-68.13964183
-177.60237456,-54.41293154,-58.02233932,-43.51070554,0.46346518,1.20048687
2.83802868,-2.44634727,0.80733536,3.09600850

>  <Name>
lig.pdb

>  <RI>
1.79691e+07

>  <Rbt.Current_Directory>
/home/itssahil/PROJECTS/Mol_Feturizer/New_Systems/rnas/2n0j

>  <Rbt.Executable>
rbdock ($Id: //depot/dev/client3/rdock/2013.1/src/exe/rbdock.cxx#4 $)

>  <Rbt.Library>
libRbt.so (2013.1, Build901 2013/11/27)

>  <Rbt.Parameter_File>
/export/apps/rDock/src/rDock_2013.1_src/data/scripts/dock_solv.prm

>  <Rbt.Receptor>
prm/blind_docking_20.prm

>  <SCORE>
-23.5474

>  <SCORE.INTER>
-39.9991

>  <SCORE.INTER.CONST>
1

>  <SCORE.INTER.POLAR>
-4.98482

>  <SCORE.INTER.ROT>
6

>  <SCORE.INTER.SOLV>
23.3987

>  <SCORE.INTER.VDW>
-25.4496

>  <SCORE.INTER.norm>
-1.29029

>  <SCORE.INTRA>
15.6741

>  <SCORE.INTRA.DIHEDRAL>
2.11674

>  <SCORE.INTRA.DIHEDRAL.0>
28.0161

>  <SCORE.INTRA.POLAR>
0.174891

>  <SCORE.INTRA.POLAR.0>
-1.05798

>  <SCORE.INTRA.REPUL>
0.00474361

>  <SCORE.INTRA.REPUL.0>
0

>  <SCORE.INTRA.SOLV>
2.16543

>  <SCORE.INTRA.SOLV.lig_0>
-42.5945

>  <SCORE.INTRA.VDW>
12.9147

>  <SCORE.INTRA.VDW.0>
-5.13869

>  <SCORE.INTRA.norm>
0.505618

>  <SCORE.RESTR>
0.777615

>  <SCORE.RESTR.CAVITY>
0.777615

>  <SCORE.RESTR.norm>
0.0250843

>  <SCORE.SYSTEM>
0

>  <SCORE.SYSTEM.CONST>
0

>  <SCORE.SYSTEM.DIHEDRAL>
0

>  <SCORE.SYSTEM.SOLV>
0

>  <SCORE.SYSTEM.norm>
0

>  <SCORE.heavy>
31

>  <SCORE.norm>
-0.759592

>  <RMSD>
5.502

$$$$
lig.pdb
 OpenBabel11021811453D
libRbt.so/2013.1/901 2013/11/27
 31 33  0  0  0  0  0  0  0  0999 V2000
   -2.6708    8.3625    4.7035 O   0  0  0  0  0  0  0  0  0  0  0  0
   -2.5895    6.9951    5.0551 C   0  0  0  0  0  0  0  0  0  0  0  0
   -3.3432    6.1120    4.0514 C   0  0  1  0  0  0  0  0  0  0  0  0
   -2.6618    6.0245    2.8100 O   0  0  0  0  0  0  0  0  0  0  0  0
   -3.0073    4.8055    2.1593 C   0  0  1  0  0  0  0  0  0  0  0  0
   -1.8300    4.1558    1.6948 O   0  0  0  0  0  0  0  0  0  0  0  0
   -0.6976    4.1797    2.5493 C   0  0  2  0  0  0  0  0  0  0  0  0
    0.3529    5.1000    1.9078 C   0  0  1  0  0  0  0  0  0  0  0  0
   -0.0938    6.4458    1.9614 O   0  0  0  0  0  0  0  0  0  0  0  0
    1.7297    5.0481    2.5873 C   0  0  2  0  0  0  0  0  0  0  0  0
    2.7071    5.8764    1.8642 N   0  0  0  0  0  0  0  0  0  0  0  0
    2.2242    3.6073    2.6374 C   0  0  0  0  0  0  0  0  0  0  0  0
    1.1959    2.7364    3.3487 C   0  0  2  0  0  0  0  0  0  0  0  0
    1.7213    1.3693    3.4307 N   0  0  0  0  0  0  0  0  0  0  0  0
   -0.1568    2.7870    2.6061 C   0  0  1  0  0  0  0  0  0  0  0  0
   -1.0342    1.9261    3.3482 O   0  0  0  0  0  0  0  0  0  0  0  0
   -2.1482    1.3781    2.6516 C   0  0  1  0  0  0  0  0  0  0  0  0
   -1.7426    0.8450    1.3938 O   0  0  0  0  0  0  0  0  0  0  0  0
   -0.9267   -0.3236    1.4380 C   0  0  2  0  0  0  0  0  0  0  0  0
   -0.5926   -0.7510    0.0026 C   0  0  0  0  0  0  0  0  0  0  0  0
    0.3033    0.1957   -0.6462 N   0  0  0  0  0  0  0  0  0  0  0  0
   -1.6504   -1.4699    2.1688 C   0  0  1  0  0  0  0  0  0  0  0  0
   -0.7987   -2.5988    2.2510 O   0  0  0  0  0  0  0  0  0  0  0  0
   -2.0267   -0.9962    3.5782 C   0  0  2  0  0  0  0  0  0  0  0  0
   -2.7713   -1.9979    4.2456 O   0  0  0  0  0  0  0  0  0  0  0  0
   -2.8296    0.3101    3.5146 C   0  0  1  0  0  0  0  0  0  0  0  0
   -3.0734    0.8196    4.8716 N   0  0  0  0  0  0  0  0  0  0  0  0
   -3.7012    3.9232    3.2072 C   0  0  2  0  0  0  0  0  0  0  0  0
   -5.0821    3.8234    2.9125 O   0  0  0  0  0  0  0  0  0  0  0  0
   -3.4164    4.6605    4.5148 C   0  0  2  0  0  0  0  0  0  0  0  0
   -4.3849    4.4318    5.5192 O   0  0  0  0  0  0  0  0  0  0  0  0
  2  1  1  0  0  0  0
  3  2  1  1  0  0  0
  3 30  1  0  0  0  0
  4  5  1  0  0  0  0
  4  3  1  0  0  0  0
  5 28  1  0  0  0  0
  5  6  1  1  0  0  0
  7  6  1  6  0  0  0
  8  7  1  0  0  0  0
  8  9  1  1  0  0  0
 10 11  1  6  0  0  0
 10  8  1  0  0  0  0
 12 10  1  0  0  0  0
 13 12  1  0  0  0  0
 13 15  1  0  0  0  0
 13 14  1  6  0  0  0
 15  7  1  0  0  0  0
 15 16  1  1  0  0  0
 17 16  1  1  0  0  0
 18 17  1  0  0  0  0
 19 20  1  6  0  0  0
 19 18  1  0  0  0  0
 20 21  1  0  0  0  0
 22 24  1  0  0  0  0
 22 19  1  0  0  0  0
 22 23  1  1  0  0  0
 24 25  1  6  0  0  0
 24 26  1  0  0  0  0
 26 17  1  0  0  0  0
 26 27  1  1  0  0  0
 28 29  1  6  0  0  0
 28 30  1  0  0  0  0
 30 31  1  1  0  0  0
M  END
>  <CHROM.1>
148.57729531,72.05333083,40.35310279,-109.97921494,-77.87844663,59.55931089
-163.82872274,82.67356157,47.09040112,69.04218834,65.43585523,-172.39402578
63.86890533,-60.62195886,-174.34788293,41.26408726,-1.39376898,2.83076496
2.85887376,1.68874467,0.44031575,0.13598187

>  <Name>
lig.pdb

>  <RI>
3.33129e+07

>  <Rbt.Current_Directory>
/home/itssahil/PROJECTS/Mol_Feturizer/New_Systems/rnas/2n0j

>  <Rbt.Executable>
rbdock ($Id: //depot/dev/client3/rdock/2013.1/src/exe/rbdock.cxx#4 $)

>  <Rbt.Library>
libRbt.so (2013.1, Build901 2013/11/27)

>  <Rbt.Parameter_File>
/export/apps/rDock/src/rDock_2013.1_src/data/scripts/dock_solv.prm

>  <Rbt.Receptor>
prm/pocket_docking_4.prm

>  <SCORE>
-42.3848

>  <SCORE.INTER>
-42.3043

>  <SCORE.INTER.CONST>
1

>  <SCORE.INTER.POLAR>
-5.51789

>  <SCORE.INTER.ROT>
6

>  <SCORE.INTER.SOLV>
18.0689

>  <SCORE.INTER.VDW>
-23.4328

>  <SCORE.INTER.norm>
-1.36465

>  <SCORE.INTRA>
-0.0805033

>  <SCORE.INTRA.DIHEDRAL>
-7.27396

>  <SCORE.INTRA.DIHEDRAL.0>
28.0161

>  <SCORE.INTRA.POLAR>
1.01815

>  <SCORE.INTRA.POLAR.0>
-1.05798

>  <SCORE.INTRA.REPUL>
0

>  <SCORE.INTRA.REPUL.0>
0

>  <SCORE.INTRA.SOLV>
0.695729

>  <SCORE.INTRA.SOLV.lig_0>
-42.5945

>  <SCORE.INTRA.VDW>
-0.2531

>  <SCORE.INTRA.VDW.0>
-5.13869

>  <SCORE.INTRA.norm>
-0.00259688

>  <SCORE.RESTR>
0

>  <SCORE.RESTR.CAVITY>
0

>  <SCORE.RESTR.norm>
0

>  <SCORE.SYSTEM>
0

>  <SCORE.SYSTEM.CONST>
0

>  <SCORE.SYSTEM.DIHEDRAL>
0

>  <SCORE.SYSTEM.SOLV>
0

>  <SCORE.SYSTEM.norm>
0

>  <SCORE.heavy>
31

>  <SCORE.norm>
-1.36725

>  <RMSD>
5.505

$$$$
lig.pdb
 OpenBabel11021811453D
libRbt.so/2013.1/901 2013/11/27
 31 33  0  0  0  0  0  0  0  0999 V2000
   -0.1145    6.3236    1.2505 O   0  0  0  0  0  0  0  0  0  0  0  0
   -1.3919    5.8946    1.6797 C   0  0  0  0  0  0  0  0  0  0  0  0
   -1.3094    4.5698    2.4501 C   0  0  1  0  0  0  0  0  0  0  0  0
   -1.2836    3.4522    1.5764 O   0  0  0  0  0  0  0  0  0  0  0  0
   -0.6253    2.3617    2.2138 C   0  0  1  0  0  0  0  0  0  0  0  0
    0.3312    1.7913    1.3285 O   0  0  0  0  0  0  0  0  0  0  0  0
    0.0322    0.5138    0.7886 C   0  0  2  0  0  0  0  0  0  0  0  0
   -1.2625    0.6431   -0.0294 C   0  0  1  0  0  0  0  0  0  0  0  0
   -1.0163    1.4132   -1.1955 O   0  0  0  0  0  0  0  0  0  0  0  0
   -1.8524   -0.7002   -0.4849 C   0  0  2  0  0  0  0  0  0  0  0  0
   -3.1365   -0.5060   -1.1759 N   0  0  0  0  0  0  0  0  0  0  0  0
   -2.0581   -1.6073    0.7225 C   0  0  0  0  0  0  0  0  0  0  0  0
   -0.7393   -1.7781    1.4665 C   0  0  2  0  0  0  0  0  0  0  0  0
   -0.9544   -2.6973    2.5892 N   0  0  0  0  0  0  0  0  0  0  0  0
   -0.2085   -0.4081    1.9408 C   0  0  1  0  0  0  0  0  0  0  0  0
    1.0157   -0.6908    2.6358 O   0  0  0  0  0  0  0  0  0  0  0  0
    1.4702    0.2807    3.5719 C   0  0  1  0  0  0  0  0  0  0  0  0
    0.7182    0.2059    4.7800 O   0  0  0  0  0  0  0  0  0  0  0  0
    0.9169   -0.9611    5.5750 C   0  0  2  0  0  0  0  0  0  0  0  0
    0.0336   -0.8664    6.8262 C   0  0  0  0  0  0  0  0  0  0  0  0
   -0.6340    0.4242    6.9175 N   0  0  0  0  0  0  0  0  0  0  0  0
    2.3942   -1.0978    5.9881 C   0  0  1  0  0  0  0  0  0  0  0  0
    2.5767   -2.2930    6.7261 O   0  0  0  0  0  0  0  0  0  0  0  0
    3.2594   -1.1288    4.7220 C   0  0  2  0  0  0  0  0  0  0  0  0
    4.6306   -1.1657    5.0704 O   0  0  0  0  0  0  0  0  0  0  0  0
    2.9680    0.0902    3.8364 C   0  0  1  0  0  0  0  0  0  0  0  0
    3.7074   -0.0169    2.5706 N   0  0  0  0  0  0  0  0  0  0  0  0
    0.0919    2.9336    3.4453 C   0  0  2  0  0  0  0  0  0  0  0  0
   -0.5620    2.5033    4.6247 O   0  0  0  0  0  0  0  0  0  0  0  0
   -0.0001    4.4423    3.2222 C   0  0  2  0  0  0  0  0  0  0  0  0
    0.0317    5.1968    4.4175 O   0  0  0  0  0  0  0  0  0  0  0  0
  2  1  1  0  0  0  0
  3  2  1  6  0  0  0
  3 30  1  0  0  0  0
  4  5  1  0  0  0  0
  4  3  1  0  0  0  0
  5 28  1  0  0  0  0
  5  6  1  6  0  0  0
  7  6  1  1  0  0  0
  8  7  1  0  0  0  0
  8  9  1  6  0  0  0
 10 11  1  1  0  0  0
 10  8  1  0  0  0  0
 12 10  1  0  0  0  0
 13 12  1  0  0  0  0
 13 15  1  0  0  0  0
 13 14  1  1  0  0  0
 15  7  1  0  0  0  0
 15 16  1  6  0  0  0
 17 16  1  6  0  0  0
 18 17  1  0  0  0  0
 19 20  1  1  0  0  0
 19 18  1  0  0  0  0
 20 21  1  0  0  0  0
 22 24  1  0  0  0  0
 22 19  1  0  0  0  0
 22 23  1  6  0  0  0
 24 25  1  1  0  0  0
 24 26  1  0  0  0  0
 26 17  1  0  0  0  0
 26 27  1  6  0  0  0
 28 29  1  1  0  0  0
 28 30  1  0  0  0  0
 30 31  1  1  0  0  0
M  END
>  <CHROM.1>
166.12711387,-83.33312360,-108.59994520,61.25235079,51.44476613,158.24059570
52.91144732,81.11575278,76.78699279,-6.03402194,-102.87022498,-57.25579871
-178.59544968,-79.49674224,-49.50514348,-60.47663247,0.23326657,0.89220477
2.91706667,-2.64883813,1.00359900,-2.92456587

>  <Name>
lig.pdb

>  <RI>
1.55206e+07

>  <Rbt.Current_Directory>
/home/itssahil/PROJECTS/Mol_Feturizer/New_Systems/rnas/2n0j

>  <Rbt.Executable>
rbdock ($Id: //depot/dev/client3/rdock/2013.1/src/exe/rbdock.cxx#4 $)

>  <Rbt.Library>
libRbt.so (2013.1, Build901 2013/11/27)

>  <Rbt.Parameter_File>
/export/apps/rDock/src/rDock_2013.1_src/data/scripts/dock_solv.prm

>  <Rbt.Receptor>
prm/blind_docking_80.prm

>  <SCORE>
-36.1771

>  <SCORE.INTER>
-40.8431

>  <SCORE.INTER.CONST>
1

>  <SCORE.INTER.POLAR>
-4.99666

>  <SCORE.INTER.ROT>
6

>  <SCORE.INTER.SOLV>
25.1707

>  <SCORE.INTER.VDW>
-26.5634

>  <SCORE.INTER.norm>
-1.31752

>  <SCORE.INTRA>
1.85521

>  <SCORE.INTRA.DIHEDRAL>
-4.22871

>  <SCORE.INTRA.DIHEDRAL.0>
28.0161

>  <SCORE.INTRA.POLAR>
-0.264076

>  <SCORE.INTRA.POLAR.0>
-1.05798

>  <SCORE.INTRA.REPUL>
0.0265152

>  <SCORE.INTRA.REPUL.0>
0

>  <SCORE.INTRA.SOLV>
1.65268

>  <SCORE.INTRA.SOLV.lig_0>
-42.5945

>  <SCORE.INTRA.VDW>
3.9085

>  <SCORE.INTRA.VDW.0>
-5.13869

>  <SCORE.INTRA.norm>
0.0598455

>  <SCORE.RESTR>
2.81075

>  <SCORE.RESTR.CAVITY>
2.81075

>  <SCORE.RESTR.norm>
0.0906692

>  <SCORE.SYSTEM>
0

>  <SCORE.SYSTEM.CONST>
0

>  <SCORE.SYSTEM.DIHEDRAL>
0

>  <SCORE.SYSTEM.SOLV>
0

>  <SCORE.SYSTEM.norm>
0

>  <SCORE.heavy>
31

>  <SCORE.norm>
-1.167

>  <RMSD>
5.513

$$$$
lig.pdb
 OpenBabel11021811453D
libRbt.so/2013.1/901 2013/11/27
 31 33  0  0  0  0  0  0  0  0999 V2000
   -4.9064   -1.9880    5.1929 O   0  0  0  0  0  0  0  0  0  0  0  0
   -3.5810   -1.5112    5.0662 C   0  0  0  0  0  0  0  0  0  0  0  0
   -3.3931   -0.1752    5.7977 C   0  0  1  0  0  0  0  0  0  0  0  0
   -2.5165    0.6919    5.0956 O   0  0  0  0  0  0  0  0  0  0  0  0
   -2.8185    2.0449    5.4226 C   0  0  1  0  0  0  0  0  0  0  0  0
   -2.9014    2.8218    4.2337 O   0  0  0  0  0  0  0  0  0  0  0  0
   -2.0788    3.9750    4.1555 C   0  0  2  0  0  0  0  0  0  0  0  0
   -2.9937    5.2079    4.2271 C   0  0  1  0  0  0  0  0  0  0  0  0
   -3.5453    5.3188    5.5297 O   0  0  0  0  0  0  0  0  0  0  0  0
   -2.2830    6.5341    3.9173 C   0  0  2  0  0  0  0  0  0  0  0  0
   -3.2361    7.6547    3.9088 N   0  0  0  0  0  0  0  0  0  0  0  0
   -1.5944    6.4437    2.5606 C   0  0  0  0  0  0  0  0  0  0  0  0
   -0.6365    5.2587    2.5494 C   0  0  2  0  0  0  0  0  0  0  0  0
    0.0510    5.2287    1.2539 N   0  0  0  0  0  0  0  0  0  0  0  0
   -1.4022    3.9461    2.8225 C   0  0  1  0  0  0  0  0  0  0  0  0
   -0.4125    2.9071    2.7722 O   0  0  0  0  0  0  0  0  0  0  0  0
   -0.8301    1.5946    3.1321 C   0  0  1  0  0  0  0  0  0  0  0  0
   -1.9633    1.1988    2.3642 O   0  0  0  0  0  0  0  0  0  0  0  0
   -1.7357    0.9734    0.9746 C   0  0  2  0  0  0  0  0  0  0  0  0
   -3.0574    0.5566    0.3157 C   0  0  0  0  0  0  0  0  0  0  0  0
   -3.0460    0.8063   -1.1186 N   0  0  0  0  0  0  0  0  0  0  0  0
   -0.6780   -0.1259    0.7638 C   0  0  1  0  0  0  0  0  0  0  0  0
   -0.4270   -0.2901   -0.6206 O   0  0  0  0  0  0  0  0  0  0  0  0
    0.6124    0.2870    1.4827 C   0  0  2  0  0  0  0  0  0  0  0  0
    1.5771   -0.7436    1.3815 O   0  0  0  0  0  0  0  0  0  0  0  0
    0.3320    0.6105    2.9565 C   0  0  1  0  0  0  0  0  0  0  0  0
    1.5484    1.1261    3.6006 N   0  0  0  0  0  0  0  0  0  0  0  0
   -4.1826    2.0382    6.1278 C   0  0  2  0  0  0  0  0  0  0  0  0
   -4.0138    2.3278    7.5030 O   0  0  0  0  0  0  0  0  0  0  0  0
   -4.6921    0.6212    5.8691 C   0  0  2  0  0  0  0  0  0  0  0  0
   -5.5937    0.1527    6.8523 O   0  0  0  0  0  0  0  0  0  0  0  0
  2  1  1  0  0  0  0
  3  2  1  6  0  0  0
  3 30  1  0  0  0  0
  4  5  1  0  0  0  0
  4  3  1  0  0  0  0
  5 28  1  0  0  0  0
  5  6  1  6  0  0  0
  7  6  1  6  0  0  0
  8  7  1  0  0  0  0
  8  9  1  1  0  0  0
 10 11  1  6  0  0  0
 10  8  1  0  0  0  0
 12 10  1  0  0  0  0
 13 12  1  0  0  0  0
 13 15  1  0  0  0  0
 13 14  1  6  0  0  0
 15  7  1  0  0  0  0
 15 16  1  1  0  0  0
 17 16  1  6  0  0  0
 18 17  1  0  0  0  0
 19 20  1  6  0  0  0
 19 18  1  0  0  0  0
 20 21  1  0  0  0  0
 22 24  1  0  0  0  0
 22 19  1  0  0  0  0
 22 23  1  6  0  0  0
 24 25  1  1  0  0  0
 24 26  1  0  0  0  0
 26 17  1  0  0  0  0
 26 27  1  6  0  0  0
 28 29  1  1  0  0  0
 28 30  1  0  0  0  0
 30 31  1  1  0  0  0
M  END
>  <CHROM.1>
86.99769862,-143.36876302,-125.13636026,-110.36509693,64.67941467,147.20769635
-109.16885327,52.74231401,54.00182419,157.88376105,-5.85709162,-66.02659985
-27.76991869,-169.14240494,-179.07846548,-47.38245988,-2.08830879,2.09165785
3.41174746,2.63759737,0.91041876,0.11091025

>  <Name>
lig.pdb

>  <RI>
3.33129e+07

>  <Rbt.Current_Directory>
/home/itssahil/PROJECTS/Mol_Feturizer/New_Systems/rnas/2n0j

>  <Rbt.Executable>
rbdock ($Id: //depot/dev/client3/rdock/2013.1/src/exe/rbdock.cxx#4 $)

>  <Rbt.Library>
libRbt.so (2013.1, Build901 2013/11/27)

>  <Rbt.Parameter_File>
/export/apps/rDock/src/rDock_2013.1_src/data/scripts/dock_solv.prm

>  <Rbt.Receptor>
prm/pocket_docking_4.prm

>  <SCORE>
-24.3097

>  <SCORE.INTER>
-37.8535

>  <SCORE.INTER.CONST>
1

>  <SCORE.INTER.POLAR>
-4.86057

>  <SCORE.INTER.ROT>
6

>  <SCORE.INTER.SOLV>
14.8796

>  <SCORE.INTER.VDW>
-21.5936

>  <SCORE.INTER.norm>
-1.22108

>  <SCORE.INTRA>
13.5437

>  <SCORE.INTRA.DIHEDRAL>
8.86393

>  <SCORE.INTRA.DIHEDRAL.0>
28.0161

>  <SCORE.INTRA.POLAR>
0.644287

>  <SCORE.INTRA.POLAR.0>
-1.05798

>  <SCORE.INTRA.REPUL>
0.100222

>  <SCORE.INTRA.REPUL.0>
0

>  <SCORE.INTRA.SOLV>
1.15

>  <SCORE.INTRA.SOLV.lig_0>
-42.5945

>  <SCORE.INTRA.VDW>
5.84509

>  <SCORE.INTRA.VDW.0>
-5.13869

>  <SCORE.INTRA.norm>
0.436895

>  <SCORE.RESTR>
0

>  <SCORE.RESTR.CAVITY>
0

>  <SCORE.RESTR.norm>
0

>  <SCORE.SYSTEM>
0

>  <SCORE.SYSTEM.CONST>
0

>  <SCORE.SYSTEM.DIHEDRAL>
0

>  <SCORE.SYSTEM.SOLV>
0

>  <SCORE.SYSTEM.norm>
0

>  <SCORE.heavy>
31

>  <SCORE.norm>
-0.784185

>  <RMSD>
5.518

$$$$
lig.pdb
 OpenBabel11021811453D
libRbt.so/2013.1/901 2013/11/27
 31 33  0  0  0  0  0  0  0  0999 V2000
    0.1403    6.2917    1.2016 O   0  0  0  0  0  0  0  0  0  0  0  0
   -1.1519    6.0545    1.7252 C   0  0  0  0  0  0  0  0  0  0  0  0
   -1.2336    4.6887    2.4204 C   0  0  1  0  0  0  0  0  0  0  0  0
   -1.2662    3.6220    1.4854 O   0  0  0  0  0  0  0  0  0  0  0  0
   -0.7467    2.4409    2.0887 C   0  0  1  0  0  0  0  0  0  0  0  0
    0.1977    1.8295    1.2180 O   0  0  0  0  0  0  0  0  0  0  0  0
   -0.1172    0.5360    0.7275 C   0  0  2  0  0  0  0  0  0  0  0  0
   -1.4597    0.6312   -0.0146 C   0  0  1  0  0  0  0  0  0  0  0  0
   -1.2928    1.3751   -1.2113 O   0  0  0  0  0  0  0  0  0  0  0  0
   -2.0592   -0.7292   -0.4020 C   0  0  2  0  0  0  0  0  0  0  0  0
   -3.3845   -0.5658   -1.0194 N   0  0  0  0  0  0  0  0  0  0  0  0
   -2.1816   -1.6085    0.8369 C   0  0  0  0  0  0  0  0  0  0  0  0
   -0.8189   -1.7469    1.5046 C   0  0  2  0  0  0  0  0  0  0  0  0
   -0.9556   -2.6405    2.6597 N   0  0  0  0  0  0  0  0  0  0  0  0
   -0.2776   -0.3600    1.9136 C   0  0  1  0  0  0  0  0  0  0  0  0
    0.9891   -0.6123    2.5407 O   0  0  0  0  0  0  0  0  0  0  0  0
    1.4188    0.3144    3.5322 C   0  0  1  0  0  0  0  0  0  0  0  0
    0.5781    0.2484    4.6809 O   0  0  0  0  0  0  0  0  0  0  0  0
    0.6640   -0.9448    5.4571 C   0  0  2  0  0  0  0  0  0  0  0  0
   -0.3027   -0.8363    6.6439 C   0  0  0  0  0  0  0  0  0  0  0  0
   -0.4082    0.5325    7.1289 N   0  0  0  0  0  0  0  0  0  0  0  0
    2.0993   -1.1620    5.9713 C   0  0  1  0  0  0  0  0  0  0  0  0
    2.1718   -2.3812    6.6887 O   0  0  0  0  0  0  0  0  0  0  0  0
    3.0520   -1.2057    4.7701 C   0  0  2  0  0  0  0  0  0  0  0  0
    4.3910   -1.3168    5.2148 O   0  0  0  0  0  0  0  0  0  0  0  0
    2.8829    0.0458    3.8983 C   0  0  1  0  0  0  0  0  0  0  0  0
    3.7068   -0.0678    2.6864 N   0  0  0  0  0  0  0  0  0  0  0  0
   -0.0450    2.8748    3.3839 C   0  0  2  0  0  0  0  0  0  0  0  0
   -0.7971    2.4469    4.5041 O   0  0  0  0  0  0  0  0  0  0  0  0
    0.0158    4.3951    3.2447 C   0  0  2  0  0  0  0  0  0  0  0  0
    0.0549    5.0783    4.4820 O   0  0  0  0  0  0  0  0  0  0  0  0
  2  1  1  0  0  0  0
  3  2  1  6  0  0  0
  3 30  1  0  0  0  0
  4  5  1  0  0  0  0
  4  3  1  0  0  0  0
  5 28  1  0  0  0  0
  5  6  1  6  0  0  0
  7  6  1  1  0  0  0
  8  7  1  0  0  0  0
  8  9  1  6  0  0  0
 10 11  1  1  0  0  0
 10  8  1  0  0  0  0
 12 10  1  0  0  0  0
 13 12  1  0  0  0  0
 13 15  1  0  0  0  0
 13 14  1  1  0  0  0
 15  7  1  0  0  0  0
 15 16  1  6  0  0  0
 17 16  1  6  0  0  0
 18 17  1  0  0  0  0
 19 20  1  1  0  0  0
 19 18  1  0  0  0  0
 20 21  1  0  0  0  0
 22 24  1  0  0  0  0
 22 19  1  0  0  0  0
 22 23  1  6  0  0  0
 24 25  1  1  0  0  0
 24 26  1  0  0  0  0
 26 17  1  0  0  0  0
 26 27  1  6  0  0  0
 28 29  1  1  0  0  0
 28 30  1  0  0  0  0
 30 31  1  1  0  0  0
M  END
>  <CHROM.1>
179.50554809,-74.36854704,-116.52791492,57.95609252,50.77485053,-179.12936040
176.41253796,87.73252578,67.30085621,-33.92711975,165.81989097,175.87052620
-58.81550219,154.38436299,65.79533524,-55.92818558,0.13921498,0.89331625
2.92020914,-2.55955494,1.00159111,-3.01703212

>  <Name>
lig.pdb

>  <RI>
9.20816e+06

>  <Rbt.Current_Directory>
/home/itssahil/PROJECTS/Mol_Feturizer/New_Systems/rnas/2n0j

>  <Rbt.Executable>
rbdock ($Id: //depot/dev/client3/rdock/2013.1/src/exe/rbdock.cxx#4 $)

>  <Rbt.Library>
libRbt.so (2013.1, Build901 2013/11/27)

>  <Rbt.Parameter_File>
/export/apps/rDock/src/rDock_2013.1_src/data/scripts/dock_solv.prm

>  <Rbt.Receptor>
prm/blind_docking_100.prm

>  <SCORE>
-34.7647

>  <SCORE.INTER>
-33.9758

>  <SCORE.INTER.CONST>
1

>  <SCORE.INTER.POLAR>
-4.05686

>  <SCORE.INTER.ROT>
6

>  <SCORE.INTER.SOLV>
23.652

>  <SCORE.INTER.VDW>
-24.6117

>  <SCORE.INTER.norm>
-1.09599

>  <SCORE.INTRA>
-3.09312

>  <SCORE.INTRA.DIHEDRAL>
-11.6811

>  <SCORE.INTRA.DIHEDRAL.0>
28.0161

>  <SCORE.INTRA.POLAR>
-0.214192

>  <SCORE.INTRA.POLAR.0>
-1.05798

>  <SCORE.INTRA.REPUL>
0

>  <SCORE.INTRA.REPUL.0>
0

>  <SCORE.INTRA.SOLV>
1.74906

>  <SCORE.INTRA.SOLV.lig_0>
-42.5945

>  <SCORE.INTRA.VDW>
2.60115

>  <SCORE.INTRA.VDW.0>
-5.13869

>  <SCORE.INTRA.norm>
-0.0997781

>  <SCORE.RESTR>
2.30426

>  <SCORE.RESTR.CAVITY>
2.30426

>  <SCORE.RESTR.norm>
0.0743308

>  <SCORE.SYSTEM>
0

>  <SCORE.SYSTEM.CONST>
0

>  <SCORE.SYSTEM.DIHEDRAL>
0

>  <SCORE.SYSTEM.SOLV>
0

>  <SCORE.SYSTEM.norm>
0

>  <SCORE.heavy>
31

>  <SCORE.norm>
-1.12144

>  <RMSD>
5.519

$$$$
lig.pdb
 OpenBabel11021811453D
libRbt.so/2013.1/901 2013/11/27
 31 33  0  0  0  0  0  0  0  0999 V2000
    0.7926    6.9038    1.3810 O   0  0  0  0  0  0  0  0  0  0  0  0
    0.7826    6.0877    2.5360 C   0  0  0  0  0  0  0  0  0  0  0  0
   -0.2209    4.9346    2.3995 C   0  0  1  0  0  0  0  0  0  0  0  0
    0.0590    4.1225    1.2702 O   0  0  0  0  0  0  0  0  0  0  0  0
   -0.4433    2.8079    1.4898 C   0  0  1  0  0  0  0  0  0  0  0  0
    0.5524    1.8486    1.1552 O   0  0  0  0  0  0  0  0  0  0  0  0
    0.1066    0.5474    0.8074 C   0  0  2  0  0  0  0  0  0  0  0  0
   -1.2202    0.6956    0.0461 C   0  0  1  0  0  0  0  0  0  0  0  0
   -0.9799    1.2814   -1.2238 O   0  0  0  0  0  0  0  0  0  0  0  0
   -1.9559   -0.6314   -0.1947 C   0  0  2  0  0  0  0  0  0  0  0  0
   -3.2584   -0.4038   -0.8395 N   0  0  0  0  0  0  0  0  0  0  0  0
   -2.1657   -1.3510    1.1324 C   0  0  0  0  0  0  0  0  0  0  0  0
   -0.8233   -1.5521    1.8249 C   0  0  2  0  0  0  0  0  0  0  0  0
   -1.0489   -2.2937    3.0702 N   0  0  0  0  0  0  0  0  0  0  0  0
   -0.1428   -0.1906    2.0836 C   0  0  1  0  0  0  0  0  0  0  0  0
    1.0924   -0.4992    2.7474 O   0  0  0  0  0  0  0  0  0  0  0  0
    1.6528    0.5114    3.5788 C   0  0  1  0  0  0  0  0  0  0  0  0
    0.8636    0.6935    4.7512 O   0  0  0  0  0  0  0  0  0  0  0  0
    0.8724   -0.3799    5.6900 C   0  0  2  0  0  0  0  0  0  0  0  0
   -0.0239   -0.0080    6.8786 C   0  0  0  0  0  0  0  0  0  0  0  0
    0.7130   -0.0236    8.1342 N   0  0  0  0  0  0  0  0  0  0  0  0
    2.3031   -0.6642    6.1840 C   0  0  1  0  0  0  0  0  0  0  0  0
    2.2935   -1.7703    7.0689 O   0  0  0  0  0  0  0  0  0  0  0  0
    3.1910   -0.9730    4.9721 C   0  0  2  0  0  0  0  0  0  0  0  0
    4.5327   -1.1529    5.3850 O   0  0  0  0  0  0  0  0  0  0  0  0
    3.1004    0.1527    3.9329 C   0  0  1  0  0  0  0  0  0  0  0  0
    3.8531   -0.2137    2.7247 N   0  0  0  0  0  0  0  0  0  0  0  0
   -0.7756    2.7029    2.9854 C   0  0  2  0  0  0  0  0  0  0  0  0
   -2.1793    2.6678    3.1642 O   0  0  0  0  0  0  0  0  0  0  0  0
   -0.1257    3.9574    3.5670 C   0  0  2  0  0  0  0  0  0  0  0  0
   -0.7448    4.4221    4.7502 O   0  0  0  0  0  0  0  0  0  0  0  0
  2  1  1  0  0  0  0
  3  2  1  1  0  0  0
  3 30  1  0  0  0  0
  4  5  1  0  0  0  0
  4  3  1  0  0  0  0
  5 28  1  0  0  0  0
  5  6  1  1  0  0  0
  7  6  1  1  0  0  0
  8  7  1  0  0  0  0
  8  9  1  6  0  0  0
 10 11  1  1  0  0  0
 10  8  1  0  0  0  0
 12 10  1  0  0  0  0
 13 12  1  0  0  0  0
 13 15  1  0  0  0  0
 13 14  1  1  0  0  0
 15  7  1  0  0  0  0
 15 16  1  6  0  0  0
 17 16  1  6  0  0  0
 18 17  1  0  0  0  0
 19 20  1  1  0  0  0
 19 18  1  0  0  0  0
 20 21  1  0  0  0  0
 22 24  1  0  0  0  0
 22 19  1  0  0  0  0
 22 23  1  1  0  0  0
 24 25  1  1  0  0  0
 24 26  1  0  0  0  0
 26 17  1  0  0  0  0
 26 27  1  6  0  0  0
 28 29  1  6  0  0  0
 28 30  1  0  0  0  0
 30 31  1  1  0  0  0
M  END
>  <CHROM.1>
178.88589106,58.06411453,-156.00572182,35.32914161,-172.35015812,-171.22341158
159.15058200,84.44530770,70.00895885,-121.49052279,-61.37117736,60.33816203
-69.27418397,157.88836048,65.00307933,-166.57030604,0.34999251,1.04523010
3.03499670,-2.53375473,0.99919990,3.08927554

>  <Name>
lig.pdb

>  <RI>
0

>  <Rbt.Current_Directory>
/home/itssahil/PROJECTS/Mol_Feturizer/New_Systems/rnas/2n0j

>  <Rbt.Executable>
rbdock ($Id: //depot/dev/client3/rdock/2013.1/src/exe/rbdock.cxx#4 $)

>  <Rbt.Library>
libRbt.so (2013.1, Build901 2013/11/27)

>  <Rbt.Parameter_File>
/export/apps/rDock/src/rDock_2013.1_src/data/scripts/dock_solv.prm

>  <Rbt.Receptor>
prm/blind_docking_40.prm

>  <SCORE>
-30.1585

>  <SCORE.INTER>
-36.2514

>  <SCORE.INTER.CONST>
1

>  <SCORE.INTER.POLAR>
-4.74066

>  <SCORE.INTER.ROT>
6

>  <SCORE.INTER.SOLV>
22.2241

>  <SCORE.INTER.VDW>
-23.3735

>  <SCORE.INTER.norm>
-1.1694

>  <SCORE.INTRA>
2.60719

>  <SCORE.INTRA.DIHEDRAL>
-10.335

>  <SCORE.INTRA.DIHEDRAL.0>
28.0161

>  <SCORE.INTRA.POLAR>
0.740938

>  <SCORE.INTRA.POLAR.0>
-1.05798

>  <SCORE.INTRA.REPUL>
0

>  <SCORE.INTRA.REPUL.0>
0

>  <SCORE.INTRA.SOLV>
0.603329

>  <SCORE.INTRA.SOLV.lig_0>
-42.5945

>  <SCORE.INTRA.VDW>
4.95381

>  <SCORE.INTRA.VDW.0>
-5.13869

>  <SCORE.INTRA.norm>
0.0841029

>  <SCORE.RESTR>
3.48574

>  <SCORE.RESTR.CAVITY>
3.48574

>  <SCORE.RESTR.norm>
0.112443

>  <SCORE.SYSTEM>
0

>  <SCORE.SYSTEM.CONST>
0

>  <SCORE.SYSTEM.DIHEDRAL>
0

>  <SCORE.SYSTEM.SOLV>
0

>  <SCORE.SYSTEM.norm>
0

>  <SCORE.heavy>
31

>  <SCORE.norm>
-0.972855

>  <RMSD>
5.519

$$$$
lig.pdb
 OpenBabel11021811453D
libRbt.so/2013.1/901 2013/11/27
 31 33  0  0  0  0  0  0  0  0999 V2000
    2.8085    4.1728    2.7885 O   0  0  0  0  0  0  0  0  0  0  0  0
    2.1362    5.3789    2.4830 C   0  0  0  0  0  0  0  0  0  0  0  0
    0.7521    5.1117    1.8763 C   0  0  1  0  0  0  0  0  0  0  0  0
    0.6289    3.7772    1.4105 O   0  0  0  0  0  0  0  0  0  0  0  0
   -0.7413    3.3888    1.4277 C   0  0  1  0  0  0  0  0  0  0  0  0
   -0.8733    2.1115    2.0400 O   0  0  0  0  0  0  0  0  0  0  0  0
   -0.7989    0.9765    1.1920 C   0  0  2  0  0  0  0  0  0  0  0  0
   -2.2283    0.6332    0.7437 C   0  0  1  0  0  0  0  0  0  0  0  0
   -2.7071    1.6371   -0.1375 O   0  0  0  0  0  0  0  0  0  0  0  0
   -2.3493   -0.7124    0.0123 C   0  0  2  0  0  0  0  0  0  0  0  0
   -3.7537   -1.0195   -0.2998 N   0  0  0  0  0  0  0  0  0  0  0  0
   -1.7677   -1.8228    0.8794 C   0  0  0  0  0  0  0  0  0  0  0  0
   -0.3255   -1.4895    1.2409 C   0  0  2  0  0  0  0  0  0  0  0  0
    0.2249   -2.5984    2.0277 N   0  0  0  0  0  0  0  0  0  0  0  0
   -0.2596   -0.1525    2.0103 C   0  0  1  0  0  0  0  0  0  0  0  0
    1.1299    0.0494    2.3102 O   0  0  0  0  0  0  0  0  0  0  0  0
    1.4395    0.8543    3.4428 C   0  0  1  0  0  0  0  0  0  0  0  0
    0.7969    0.3490    4.6100 O   0  0  0  0  0  0  0  0  0  0  0  0
    1.2763   -0.9004    5.1027 C   0  0  2  0  0  0  0  0  0  0  0  0
    0.4742   -1.2820    6.3539 C   0  0  0  0  0  0  0  0  0  0  0  0
    0.6419   -0.3045    7.4198 N   0  0  0  0  0  0  0  0  0  0  0  0
    2.7743   -0.8145    5.4491 C   0  0  1  0  0  0  0  0  0  0  0  0
    3.2398   -2.0811    5.8799 O   0  0  0  0  0  0  0  0  0  0  0  0
    3.5451   -0.3728    4.1988 C   0  0  2  0  0  0  0  0  0  0  0  0
    4.9154   -0.1996    4.5076 O   0  0  0  0  0  0  0  0  0  0  0  0
    2.9589    0.9272    3.6319 C   0  0  1  0  0  0  0  0  0  0  0  0
    3.6219    1.2702    2.3657 N   0  0  0  0  0  0  0  0  0  0  0  0
   -1.4905    4.4381    2.2620 C   0  0  2  0  0  0  0  0  0  0  0  0
   -2.3030    5.2321    1.4177 O   0  0  0  0  0  0  0  0  0  0  0  0
   -0.3562    5.2235    2.9185 C   0  0  2  0  0  0  0  0  0  0  0  0
   -0.7005    6.5560    3.2426 O   0  0  0  0  0  0  0  0  0  0  0  0
  2  1  1  0  0  0  0
  3  2  1  1  0  0  0
  3 30  1  0  0  0  0
  4  5  1  0  0  0  0
  4  3  1  0  0  0  0
  5 28  1  0  0  0  0
  5  6  1  1  0  0  0
  7  6  1  1  0  0  0
  8  7  1  0  0  0  0
  8  9  1  6  0  0  0
 10 11  1  1  0  0  0
 10  8  1  0  0  0  0
 12 10  1  0  0  0  0
 13 12  1  0  0  0  0
 13 15  1  0  0  0  0
 13 14  1  1  0  0  0
 15  7  1  0  0  0  0
 15 16  1  6  0  0  0
 17 16  1  6  0  0  0
 18 17  1  0  0  0  0
 19 20  1  1  0  0  0
 19 18  1  0  0  0  0
 20 21  1  0  0  0  0
 22 24  1  0  0  0  0
 22 19  1  0  0  0  0
 22 23  1  6  0  0  0
 24 25  1  1  0  0  0
 24 26  1  0  0  0  0
 26 17  1  0  0  0  0
 26 27  1  6  0  0  0
 28 29  1  6  0  0  0
 28 30  1  0  0  0  0
 30 31  1  6  0  0  0
M  END
>  <CHROM.1>
-48.00425500,-17.07745519,-90.38970114,-91.52348635,-65.24096657,64.24020407
109.92787389,84.75797198,55.10403576,-61.72697957,-25.17109547,-177.37437713
72.08318982,68.58225182,-176.51960269,-73.13513318,0.42777403,1.24548288
2.75725843,-2.34167874,0.68544552,3.03991143

>  <Name>
lig.pdb

>  <RI>
0

>  <Rbt.Current_Directory>
/home/itssahil/PROJECTS/Mol_Feturizer/New_Systems/rnas/2n0j

>  <Rbt.Executable>
rbdock ($Id: //depot/dev/client3/rdock/2013.1/src/exe/rbdock.cxx#4 $)

>  <Rbt.Library>
libRbt.so (2013.1, Build901 2013/11/27)

>  <Rbt.Parameter_File>
/export/apps/rDock/src/rDock_2013.1_src/data/scripts/dock_solv.prm

>  <Rbt.Receptor>
prm/blind_docking_40.prm

>  <SCORE>
-32.6037

>  <SCORE.INTER>
-34.6188

>  <SCORE.INTER.CONST>
1

>  <SCORE.INTER.POLAR>
-5.06579

>  <SCORE.INTER.ROT>
6

>  <SCORE.INTER.SOLV>
24.9757

>  <SCORE.INTER.VDW>
-22.1185

>  <SCORE.INTER.norm>
-1.11674

>  <SCORE.INTRA>
0.078407

>  <SCORE.INTRA.DIHEDRAL>
-4.86643

>  <SCORE.INTRA.DIHEDRAL.0>
28.0161

>  <SCORE.INTRA.POLAR>
0.0683474

>  <SCORE.INTRA.POLAR.0>
-1.05798

>  <SCORE.INTRA.REPUL>
0

>  <SCORE.INTRA.REPUL.0>
0

>  <SCORE.INTRA.SOLV>
1.19168

>  <SCORE.INTRA.SOLV.lig_0>
-42.5945

>  <SCORE.INTRA.VDW>
1.6834

>  <SCORE.INTRA.VDW.0>
-5.13869

>  <SCORE.INTRA.norm>
0.00252926

>  <SCORE.RESTR>
1.93667

>  <SCORE.RESTR.CAVITY>
1.93667

>  <SCORE.RESTR.norm>
0.0624732

>  <SCORE.SYSTEM>
0

>  <SCORE.SYSTEM.CONST>
0

>  <SCORE.SYSTEM.DIHEDRAL>
0

>  <SCORE.SYSTEM.SOLV>
0

>  <SCORE.SYSTEM.norm>
0

>  <SCORE.heavy>
31

>  <SCORE.norm>
-1.05173

>  <RMSD>
5.519

$$$$
lig.pdb
 OpenBabel11021811453D
libRbt.so/2013.1/901 2013/11/27
 31 33  0  0  0  0  0  0  0  0999 V2000
   -4.6849    2.5251    2.7782 O   0  0  0  0  0  0  0  0  0  0  0  0
   -3.9021    3.5731    2.2405 C   0  0  0  0  0  0  0  0  0  0  0  0
   -2.4551    3.5098    2.7478 C   0  0  1  0  0  0  0  0  0  0  0  0
   -1.8197    2.2957    2.3797 O   0  0  0  0  0  0  0  0  0  0  0  0
   -0.4111    2.4950    2.3094 C   0  0  1  0  0  0  0  0  0  0  0  0
    0.0945    1.9440    1.0992 O   0  0  0  0  0  0  0  0  0  0  0  0
   -0.2881    0.6148    0.7838 C   0  0  2  0  0  0  0  0  0  0  0  0
   -1.7076    0.6636    0.1965 C   0  0  1  0  0  0  0  0  0  0  0  0
   -1.6753    1.2794   -1.0815 O   0  0  0  0  0  0  0  0  0  0  0  0
   -2.3614   -0.7157    0.0227 C   0  0  2  0  0  0  0  0  0  0  0  0
   -3.7484   -0.5869   -0.4504 N   0  0  0  0  0  0  0  0  0  0  0  0
   -2.3458   -1.4630    1.3510 C   0  0  0  0  0  0  0  0  0  0  0  0
   -0.9154   -1.5626    1.8669 C   0  0  2  0  0  0  0  0  0  0  0  0
   -0.9240   -2.3322    3.1156 N   0  0  0  0  0  0  0  0  0  0  0  0
   -0.3166   -0.1535    2.0661 C   0  0  1  0  0  0  0  0  0  0  0  0
    1.0125   -0.3686    2.5647 O   0  0  0  0  0  0  0  0  0  0  0  0
    1.5051    0.5622    3.5227 C   0  0  1  0  0  0  0  0  0  0  0  0
    0.7129    0.5322    4.7069 O   0  0  0  0  0  0  0  0  0  0  0  0
    0.8048   -0.6513    5.4970 C   0  0  2  0  0  0  0  0  0  0  0  0
   -0.1076   -0.5032    6.7219 C   0  0  0  0  0  0  0  0  0  0  0  0
   -0.6884   -1.7782    7.1178 N   0  0  0  0  0  0  0  0  0  0  0  0
    2.2555   -0.8944    5.9532 C   0  0  1  0  0  0  0  0  0  0  0  0
    2.3309   -2.1046    6.6856 O   0  0  0  0  0  0  0  0  0  0  0  0
    3.1548   -0.9777    4.7136 C   0  0  2  0  0  0  0  0  0  0  0  0
    4.5087   -1.1134    5.1028 O   0  0  0  0  0  0  0  0  0  0  0  0
    2.9770    0.2648    3.8305 C   0  0  1  0  0  0  0  0  0  0  0  0
    3.7456    0.1146    2.5867 N   0  0  0  0  0  0  0  0  0  0  0  0
   -0.1755    4.0124    2.3207 C   0  0  2  0  0  0  0  0  0  0  0  0
    0.3924    4.4011    3.5575 O   0  0  0  0  0  0  0  0  0  0  0  0
   -1.5782    4.5759    2.0987 C   0  0  2  0  0  0  0  0  0  0  0  0
   -1.7629    5.8701    2.6371 O   0  0  0  0  0  0  0  0  0  0  0  0
  2  1  1  0  0  0  0
  3  2  1  6  0  0  0
  3 30  1  0  0  0  0
  4  5  1  0  0  0  0
  4  3  1  0  0  0  0
  5 28  1  0  0  0  0
  5  6  1  6  0  0  0
  7  6  1  1  0  0  0
  8  7  1  0  0  0  0
  8  9  1  6  0  0  0
 10 11  1  1  0  0  0
 10  8  1  0  0  0  0
 12 10  1  0  0  0  0
 13 12  1  0  0  0  0
 13 15  1  0  0  0  0
 13 14  1  1  0  0  0
 15  7  1  0  0  0  0
 15 16  1  6  0  0  0
 17 16  1  6  0  0  0
 18 17  1  0  0  0  0
 19 20  1  1  0  0  0
 19 18  1  0  0  0  0
 20 21  1  0  0  0  0
 22 24  1  0  0  0  0
 22 19  1  0  0  0  0
 22 23  1  6  0  0  0
 24 25  1  1  0  0  0
 24 26  1  0  0  0  0
 26 17  1  0  0  0  0
 26 27  1  6  0  0  0
 28 29  1  1  0  0  0
 28 30  1  0  0  0  0
 30 31  1  1  0  0  0
M  END
>  <CHROM.1>
-175.75177134,60.64706158,-49.68990625,79.51429941,44.99030160,-57.48288327
-72.47371053,94.94891657,62.54149898,146.38358981,89.59798733,-68.04222973
-61.98836072,37.55681941,-176.81053808,-72.85017776,-0.27791001,0.76973558
2.95726556,-2.68982143,0.75300569,-3.02106478

>  <Name>
lig.pdb

>  <RI>
3.32461e+07

>  <Rbt.Current_Directory>
/home/itssahil/PROJECTS/Mol_Feturizer/New_Systems/rnas/2n0j

>  <Rbt.Executable>
rbdock ($Id: //depot/dev/client3/rdock/2013.1/src/exe/rbdock.cxx#4 $)

>  <Rbt.Library>
libRbt.so (2013.1, Build901 2013/11/27)

>  <Rbt.Parameter_File>
/export/apps/rDock/src/rDock_2013.1_src/data/scripts/dock_solv.prm

>  <Rbt.Receptor>
prm/pocket_docking_7.prm

>  <SCORE>
-45.8063

>  <SCORE.INTER>
-47.6495

>  <SCORE.INTER.CONST>
1

>  <SCORE.INTER.POLAR>
-5.42607

>  <SCORE.INTER.ROT>
6

>  <SCORE.INTER.SOLV>
21.3967

>  <SCORE.INTER.VDW>
-28.4117

>  <SCORE.INTER.norm>
-1.53708

>  <SCORE.INTRA>
1.84318

>  <SCORE.INTRA.DIHEDRAL>
-12.1675

>  <SCORE.INTRA.DIHEDRAL.0>
28.0161

>  <SCORE.INTRA.POLAR>
1.05798

>  <SCORE.INTRA.POLAR.0>
-1.05798

>  <SCORE.INTRA.REPUL>
0.0695588

>  <SCORE.INTRA.REPUL.0>
0

>  <SCORE.INTRA.SOLV>
0.22593

>  <SCORE.INTRA.SOLV.lig_0>
-42.5945

>  <SCORE.INTRA.VDW>
3.869

>  <SCORE.INTRA.VDW.0>
-5.13869

>  <SCORE.INTRA.norm>
0.0594576

>  <SCORE.RESTR>
0

>  <SCORE.RESTR.CAVITY>
0

>  <SCORE.RESTR.norm>
0

>  <SCORE.SYSTEM>
0

>  <SCORE.SYSTEM.CONST>
0

>  <SCORE.SYSTEM.DIHEDRAL>
0

>  <SCORE.SYSTEM.SOLV>
0

>  <SCORE.SYSTEM.norm>
0

>  <SCORE.heavy>
31

>  <SCORE.norm>
-1.47762

>  <RMSD>
5.521

$$$$
lig.pdb
 OpenBabel11021811453D
libRbt.so/2013.1/901 2013/11/27
 31 33  0  0  0  0  0  0  0  0999 V2000
    2.2371    5.3903    2.9720 O   0  0  0  0  0  0  0  0  0  0  0  0
    0.9029    5.8556    3.0315 C   0  0  0  0  0  0  0  0  0  0  0  0
   -0.0940    4.7507    2.6563 C   0  0  1  0  0  0  0  0  0  0  0  0
    0.2804    4.0865    1.4598 O   0  0  0  0  0  0  0  0  0  0  0  0
   -0.2511    2.7650    1.4596 C   0  0  1  0  0  0  0  0  0  0  0  0
    0.7627    1.8370    1.0921 O   0  0  0  0  0  0  0  0  0  0  0  0
    0.3427    0.5356    0.7145 C   0  0  2  0  0  0  0  0  0  0  0  0
   -0.9245    0.6834   -0.1425 C   0  0  1  0  0  0  0  0  0  0  0  0
   -0.5912    1.2671   -1.3921 O   0  0  0  0  0  0  0  0  0  0  0  0
   -1.6415   -0.6436   -0.4346 C   0  0  2  0  0  0  0  0  0  0  0  0
   -2.8929   -0.4162   -1.1737 N   0  0  0  0  0  0  0  0  0  0  0  0
   -1.9487   -1.3610    0.8746 C   0  0  0  0  0  0  0  0  0  0  0  0
   -0.6609   -1.5618    1.6640 C   0  0  2  0  0  0  0  0  0  0  0  0
   -0.9779   -2.3013    2.8906 N   0  0  0  0  0  0  0  0  0  0  0  0
   -0.0003   -0.2003    1.9700 C   0  0  1  0  0  0  0  0  0  0  0  0
    1.1826   -0.5085    2.7232 O   0  0  0  0  0  0  0  0  0  0  0  0
    1.7067    0.5185    3.5582 C   0  0  1  0  0  0  0  0  0  0  0  0
    0.9027    0.6787    4.7238 O   0  0  0  0  0  0  0  0  0  0  0  0
    0.9345   -0.3932    5.6637 C   0  0  2  0  0  0  0  0  0  0  0  0
    0.0178   -0.0461    6.8444 C   0  0  0  0  0  0  0  0  0  0  0  0
    0.7344   -0.0832    8.1113 N   0  0  0  0  0  0  0  0  0  0  0  0
    2.3685   -0.6357    6.1700 C   0  0  1  0  0  0  0  0  0  0  0  0
    2.3833   -1.7409    7.0560 O   0  0  0  0  0  0  0  0  0  0  0  0
    3.2751   -0.9199    4.9660 C   0  0  2  0  0  0  0  0  0  0  0  0
    4.6179   -1.0608    5.3903 O   0  0  0  0  0  0  0  0  0  0  0  0
    3.1610    0.2018    3.9249 C   0  0  1  0  0  0  0  0  0  0  0  0
    3.9340   -0.1437    2.7234 N   0  0  0  0  0  0  0  0  0  0  0  0
   -0.7188    2.4736    2.8930 C   0  0  2  0  0  0  0  0  0  0  0  0
   -2.1332    2.4443    2.9400 O   0  0  0  0  0  0  0  0  0  0  0  0
   -0.1137    3.6286    3.6894 C   0  0  2  0  0  0  0  0  0  0  0  0
   -0.8337    3.9484    4.8635 O   0  0  0  0  0  0  0  0  0  0  0  0
  2  1  1  0  0  0  0
  3  2  1  1  0  0  0
  3 30  1  0  0  0  0
  4  5  1  0  0  0  0
  4  3  1  0  0  0  0
  5 28  1  0  0  0  0
  5  6  1  1  0  0  0
  7  6  1  1  0  0  0
  8  7  1  0  0  0  0
  8  9  1  6  0  0  0
 10 11  1  1  0  0  0
 10  8  1  0  0  0  0
 12 10  1  0  0  0  0
 13 12  1  0  0  0  0
 13 15  1  0  0  0  0
 13 14  1  1  0  0  0
 15  7  1  0  0  0  0
 15 16  1  6  0  0  0
 17 16  1  6  0  0  0
 18 17  1  0  0  0  0
 19 20  1  1  0  0  0
 19 18  1  0  0  0  0
 20 21  1  0  0  0  0
 22 24  1  0  0  0  0
 22 19  1  0  0  0  0
 22 23  1  1  0  0  0
 24 25  1  1  0  0  0
 24 26  1  0  0  0  0
 26 17  1  0  0  0  0
 26 27  1  6  0  0  0
 28 29  1  6  0  0  0
 28 30  1  0  0  0  0
 30 31  1  1  0  0  0
M  END
>  <CHROM.1>
63.23651860,-48.33841836,-164.53959288,40.45469650,45.39643372,25.82560488
41.32781618,82.40452007,74.60929066,-123.39889136,-177.24580872,67.45238923
-67.89510545,-81.95694087,-55.59994617,-65.25465549,0.53021961,0.93827941
3.05200808,-2.83931907,1.03482279,-3.13320637

>  <Name>
lig.pdb

>  <RI>
1.55206e+07

>  <Rbt.Current_Directory>
/home/itssahil/PROJECTS/Mol_Feturizer/New_Systems/rnas/2n0j

>  <Rbt.Executable>
rbdock ($Id: //depot/dev/client3/rdock/2013.1/src/exe/rbdock.cxx#4 $)

>  <Rbt.Library>
libRbt.so (2013.1, Build901 2013/11/27)

>  <Rbt.Parameter_File>
/export/apps/rDock/src/rDock_2013.1_src/data/scripts/dock_solv.prm

>  <Rbt.Receptor>
prm/blind_docking_80.prm

>  <SCORE>
-32.1921

>  <SCORE.INTER>
-39.6347

>  <SCORE.INTER.CONST>
1

>  <SCORE.INTER.POLAR>
-4.95919

>  <SCORE.INTER.ROT>
6

>  <SCORE.INTER.SOLV>
24.0479

>  <SCORE.INTER.VDW>
-25.5085

>  <SCORE.INTER.norm>
-1.27854

>  <SCORE.INTRA>
3.86056

>  <SCORE.INTRA.DIHEDRAL>
-10.0036

>  <SCORE.INTRA.DIHEDRAL.0>
28.0161

>  <SCORE.INTRA.POLAR>
0.630578

>  <SCORE.INTRA.POLAR.0>
-1.05798

>  <SCORE.INTRA.REPUL>
0

>  <SCORE.INTRA.REPUL.0>
0

>  <SCORE.INTRA.SOLV>
1.51932

>  <SCORE.INTRA.SOLV.lig_0>
-42.5945

>  <SCORE.INTRA.VDW>
5.95872

>  <SCORE.INTRA.VDW.0>
-5.13869

>  <SCORE.INTRA.norm>
0.124534

>  <SCORE.RESTR>
3.58204

>  <SCORE.RESTR.CAVITY>
3.58204

>  <SCORE.RESTR.norm>
0.11555

>  <SCORE.SYSTEM>
0

>  <SCORE.SYSTEM.CONST>
0

>  <SCORE.SYSTEM.DIHEDRAL>
0

>  <SCORE.SYSTEM.SOLV>
0

>  <SCORE.SYSTEM.norm>
0

>  <SCORE.heavy>
31

>  <SCORE.norm>
-1.03846

>  <RMSD>
5.522

$$$$
lig.pdb
 OpenBabel11021811453D
libRbt.so/2013.1/901 2013/11/27
 31 33  0  0  0  0  0  0  0  0999 V2000
    0.2167    6.2777    1.1426 O   0  0  0  0  0  0  0  0  0  0  0  0
   -1.0639    6.1066    1.7179 C   0  0  0  0  0  0  0  0  0  0  0  0
   -1.1937    4.7387    2.4014 C   0  0  1  0  0  0  0  0  0  0  0  0
   -1.1807    3.6759    1.4615 O   0  0  0  0  0  0  0  0  0  0  0  0
   -0.7039    2.4889    2.0879 C   0  0  1  0  0  0  0  0  0  0  0  0
    0.2839    1.8744    1.2690 O   0  0  0  0  0  0  0  0  0  0  0  0
   -0.0188    0.5925    0.7416 C   0  0  2  0  0  0  0  0  0  0  0  0
   -1.3395    0.7067   -0.0361 C   0  0  1  0  0  0  0  0  0  0  0  0
   -1.1374    1.4762   -1.2110 O   0  0  0  0  0  0  0  0  0  0  0  0
   -1.9296   -0.6436   -0.4700 C   0  0  2  0  0  0  0  0  0  0  0  0
   -3.2365   -0.4641   -1.1212 N   0  0  0  0  0  0  0  0  0  0  0  0
   -2.0886   -1.5496    0.7453 C   0  0  0  0  0  0  0  0  0  0  0  0
   -0.7456   -1.7053    1.4483 C   0  0  2  0  0  0  0  0  0  0  0  0
   -0.9165   -2.6237    2.5793 N   0  0  0  0  0  0  0  0  0  0  0  0
   -0.2142   -0.3288    1.9028 C   0  0  1  0  0  0  0  0  0  0  0  0
    1.0337   -0.5973    2.5601 O   0  0  0  0  0  0  0  0  0  0  0  0
    1.5120    0.3856    3.4720 C   0  0  1  0  0  0  0  0  0  0  0  0
    0.7108    0.4112    4.6502 O   0  0  0  0  0  0  0  0  0  0  0  0
    0.8050   -0.7290    5.5015 C   0  0  2  0  0  0  0  0  0  0  0  0
   -0.1180   -0.5245    6.7101 C   0  0  0  0  0  0  0  0  0  0  0  0
   -0.7428   -1.7715    7.1275 N   0  0  0  0  0  0  0  0  0  0  0  0
    2.2538   -0.9370    5.9805 C   0  0  1  0  0  0  0  0  0  0  0  0
    2.3322   -2.1069    6.7754 O   0  0  0  0  0  0  0  0  0  0  0  0
    3.1634   -1.0777    4.7536 C   0  0  2  0  0  0  0  0  0  0  0  0
    4.5152   -1.1827    5.1595 O   0  0  0  0  0  0  0  0  0  0  0  0
    2.9835    0.1159    3.8059 C   0  0  1  0  0  0  0  0  0  0  0  0
    3.7630   -0.0929    2.5773 N   0  0  0  0  0  0  0  0  0  0  0  0
   -0.0734    2.9128    3.4224 C   0  0  2  0  0  0  0  0  0  0  0  0
   -0.8902    2.4856    4.4966 O   0  0  0  0  0  0  0  0  0  0  0  0
    0.0053    4.4332    3.2935 C   0  0  2  0  0  0  0  0  0  0  0  0
   -0.0207    5.1112    4.5340 O   0  0  0  0  0  0  0  0  0  0  0  0
  2  1  1  0  0  0  0
  3  2  1  6  0  0  0
  3 30  1  0  0  0  0
  4  5  1  0  0  0  0
  4  3  1  0  0  0  0
  5 28  1  0  0  0  0
  5  6  1  6  0  0  0
  7  6  1  1  0  0  0
  8  7  1  0  0  0  0
  8  9  1  6  0  0  0
 10 11  1  1  0  0  0
 10  8  1  0  0  0  0
 12 10  1  0  0  0  0
 13 12  1  0  0  0  0
 13 15  1  0  0  0  0
 13 14  1  1  0  0  0
 15  7  1  0  0  0  0
 15 16  1  6  0  0  0
 17 16  1  6  0  0  0
 18 17  1  0  0  0  0
 19 20  1  1  0  0  0
 19 18  1  0  0  0  0
 20 21  1  0  0  0  0
 22 24  1  0  0  0  0
 22 19  1  0  0  0  0
 22 23  1  1  0  0  0
 24 25  1  1  0  0  0
 24 26  1  0  0  0  0
 26 17  1  0  0  0  0
 26 27  1  6  0  0  0
 28 29  1  1  0  0  0
 28 30  1  0  0  0  0
 30 31  1  1  0  0  0
M  END
>  <CHROM.1>
-179.49964679,-68.04352706,-115.72106954,55.81655032,47.56387979,38.51577155
-67.61437310,80.67133788,70.74040600,143.63753159,-157.12974831,-66.56006340
118.87872532,38.60679462,-52.22258344,-60.30231181,0.19885023,0.88403168
2.90295551,-2.47560952,1.00778815,-3.08424239

>  <Name>
lig.pdb

>  <RI>
1.55206e+07

>  <Rbt.Current_Directory>
/home/itssahil/PROJECTS/Mol_Feturizer/New_Systems/rnas/2n0j

>  <Rbt.Executable>
rbdock ($Id: //depot/dev/client3/rdock/2013.1/src/exe/rbdock.cxx#4 $)

>  <Rbt.Library>
libRbt.so (2013.1, Build901 2013/11/27)

>  <Rbt.Parameter_File>
/export/apps/rDock/src/rDock_2013.1_src/data/scripts/dock_solv.prm

>  <Rbt.Receptor>
prm/blind_docking_80.prm

>  <SCORE>
-42.7054

>  <SCORE.INTER>
-50.8789

>  <SCORE.INTER.CONST>
1

>  <SCORE.INTER.POLAR>
-6.7393

>  <SCORE.INTER.ROT>
6

>  <SCORE.INTER.SOLV>
25.2267

>  <SCORE.INTER.VDW>
-27.4638

>  <SCORE.INTER.norm>
-1.64126

>  <SCORE.INTRA>
5.93899

>  <SCORE.INTRA.DIHEDRAL>
-2.61198

>  <SCORE.INTRA.DIHEDRAL.0>
28.0161

>  <SCORE.INTRA.POLAR>
1.04486

>  <SCORE.INTRA.POLAR.0>
-1.05798

>  <SCORE.INTRA.REPUL>
0

>  <SCORE.INTRA.REPUL.0>
0

>  <SCORE.INTRA.SOLV>
1.3572

>  <SCORE.INTRA.SOLV.lig_0>
-42.5945

>  <SCORE.INTRA.VDW>
3.01387

>  <SCORE.INTRA.VDW.0>
-5.13869

>  <SCORE.INTRA.norm>
0.19158

>  <SCORE.RESTR>
2.23456

>  <SCORE.RESTR.CAVITY>
2.23456

>  <SCORE.RESTR.norm>
0.0720826

>  <SCORE.SYSTEM>
0

>  <SCORE.SYSTEM.CONST>
0

>  <SCORE.SYSTEM.DIHEDRAL>
0

>  <SCORE.SYSTEM.SOLV>
0

>  <SCORE.SYSTEM.norm>
0

>  <SCORE.heavy>
31

>  <SCORE.norm>
-1.37759

>  <RMSD>
5.527

$$$$
lig.pdb
 OpenBabel11021811453D
libRbt.so/2013.1/901 2013/11/27
 31 33  0  0  0  0  0  0  0  0999 V2000
    0.1227    7.1891    1.9186 O   0  0  0  0  0  0  0  0  0  0  0  0
    0.6580    6.0555    2.5731 C   0  0  0  0  0  0  0  0  0  0  0  0
   -0.3001    4.8591    2.4971 C   0  0  1  0  0  0  0  0  0  0  0  0
   -0.1288    4.1214    1.2973 O   0  0  0  0  0  0  0  0  0  0  0  0
   -0.5377    2.7725    1.5024 C   0  0  1  0  0  0  0  0  0  0  0  0
    0.4508    1.8856    0.9923 O   0  0  0  0  0  0  0  0  0  0  0  0
    0.0319    0.5714    0.6604 C   0  0  2  0  0  0  0  0  0  0  0  0
   -1.3440    0.6761   -0.0165 C   0  0  1  0  0  0  0  0  0  0  0  0
   -1.2040    1.2794   -1.2931 O   0  0  0  0  0  0  0  0  0  0  0  0
   -2.0445   -0.6754   -0.2239 C   0  0  2  0  0  0  0  0  0  0  0  0
   -3.3918   -0.4913   -0.7853 N   0  0  0  0  0  0  0  0  0  0  0  0
   -2.1456   -1.4116    1.1068 C   0  0  0  0  0  0  0  0  0  0  0  0
   -0.7566   -1.5681    1.7134 C   0  0  2  0  0  0  0  0  0  0  0  0
   -0.8777   -2.3263    2.9633 N   0  0  0  0  0  0  0  0  0  0  0  0
   -0.1112   -0.1843    1.9426 C   0  0  1  0  0  0  0  0  0  0  0  0
    1.1730   -0.4519    2.5262 O   0  0  0  0  0  0  0  0  0  0  0  0
    1.6483    0.4706    3.5007 C   0  0  1  0  0  0  0  0  0  0  0  0
    0.7743    0.5092    4.6256 O   0  0  0  0  0  0  0  0  0  0  0  0
    0.7439   -0.6606    5.4406 C   0  0  2  0  0  0  0  0  0  0  0  0
   -0.2428   -0.4368    6.5943 C   0  0  0  0  0  0  0  0  0  0  0  0
   -0.6547   -1.6942    7.2019 N   0  0  0  0  0  0  0  0  0  0  0  0
    2.1429   -0.9729    6.0034 C   0  0  1  0  0  0  0  0  0  0  0  0
    2.0987   -2.1696    6.7601 O   0  0  0  0  0  0  0  0  0  0  0  0
    3.1212   -1.1315    4.8328 C   0  0  2  0  0  0  0  0  0  0  0  0
    4.4346   -1.3328    5.3201 O   0  0  0  0  0  0  0  0  0  0  0  0
    3.0759    0.0998    3.9180 C   0  0  1  0  0  0  0  0  0  0  0  0
    3.9205   -0.1186    2.7351 N   0  0  0  0  0  0  0  0  0  0  0  0
   -0.6718    2.5742    3.0193 C   0  0  2  0  0  0  0  0  0  0  0  0
   -2.0382    2.4556    3.3691 O   0  0  0  0  0  0  0  0  0  0  0  0
   -0.0121    3.8304    3.5860 C   0  0  2  0  0  0  0  0  0  0  0  0
   -0.4965    4.2010    4.8616 O   0  0  0  0  0  0  0  0  0  0  0  0
  2  1  1  0  0  0  0
  3  2  1  6  0  0  0
  3 30  1  0  0  0  0
  4  5  1  0  0  0  0
  4  3  1  0  0  0  0
  5 28  1  0  0  0  0
  5  6  1  1  0  0  0
  7  6  1  1  0  0  0
  8  7  1  0  0  0  0
  8  9  1  6  0  0  0
 10 11  1  1  0  0  0
 10  8  1  0  0  0  0
 12 10  1  0  0  0  0
 13 12  1  0  0  0  0
 13 15  1  0  0  0  0
 13 14  1  1  0  0  0
 15  7  1  0  0  0  0
 15 16  1  6  0  0  0
 17 16  1  6  0  0  0
 18 17  1  0  0  0  0
 19 20  1  1  0  0  0
 19 18  1  0  0  0  0
 20 21  1  0  0  0  0
 22 24  1  0  0  0  0
 22 19  1  0  0  0  0
 22 23  1  6  0  0  0
 24 25  1  1  0  0  0
 24 26  1  0  0  0  0
 26 17  1  0  0  0  0
 26 27  1  6  0  0  0
 28 29  1  6  0  0  0
 28 30  1  0  0  0  0
 30 31  1  1  0  0  0
M  END
>  <CHROM.1>
-56.67698067,85.69865888,-157.53421905,40.42044295,-172.90535393,-55.02031783
39.43163410,94.45930123,61.76948478,161.41474823,63.54387872,172.32524519
171.29731994,-83.16494675,64.77654111,49.04017406,0.23525382,0.89666612,2.95523221
-2.32913299,0.95897681,3.05923164

>  <Name>
lig.pdb

>  <RI>
0

>  <Rbt.Current_Directory>
/home/itssahil/PROJECTS/Mol_Feturizer/New_Systems/rnas/2n0j

>  <Rbt.Executable>
rbdock ($Id: //depot/dev/client3/rdock/2013.1/src/exe/rbdock.cxx#4 $)

>  <Rbt.Library>
libRbt.so (2013.1, Build901 2013/11/27)

>  <Rbt.Parameter_File>
/export/apps/rDock/src/rDock_2013.1_src/data/scripts/dock_solv.prm

>  <Rbt.Receptor>
prm/blind_docking_60.prm

>  <SCORE>
-40.2612

>  <SCORE.INTER>
-41.9201

>  <SCORE.INTER.CONST>
1

>  <SCORE.INTER.POLAR>
-5.07276

>  <SCORE.INTER.ROT>
6

>  <SCORE.INTER.SOLV>
22.7111

>  <SCORE.INTER.VDW>
-26.2079

>  <SCORE.INTER.norm>
-1.35226

>  <SCORE.INTRA>
-1.74374

>  <SCORE.INTRA.DIHEDRAL>
-12.2192

>  <SCORE.INTRA.DIHEDRAL.0>
28.0161

>  <SCORE.INTRA.POLAR>
0.558386

>  <SCORE.INTRA.POLAR.0>
-1.05798

>  <SCORE.INTRA.REPUL>
0

>  <SCORE.INTRA.REPUL.0>
0

>  <SCORE.INTRA.SOLV>
0.537911

>  <SCORE.INTRA.SOLV.lig_0>
-42.5945

>  <SCORE.INTRA.VDW>
2.19838

>  <SCORE.INTRA.VDW.0>
-5.13869

>  <SCORE.INTRA.norm>
-0.0562496

>  <SCORE.RESTR>
3.40259

>  <SCORE.RESTR.CAVITY>
3.40259

>  <SCORE.RESTR.norm>
0.109761

>  <SCORE.SYSTEM>
0

>  <SCORE.SYSTEM.CONST>
0

>  <SCORE.SYSTEM.DIHEDRAL>
0

>  <SCORE.SYSTEM.SOLV>
0

>  <SCORE.SYSTEM.norm>
0

>  <SCORE.heavy>
31

>  <SCORE.norm>
-1.29875

>  <RMSD>
5.532

$$$$
lig.pdb
 OpenBabel11021811453D
libRbt.so/2013.1/901 2013/11/27
 31 33  0  0  0  0  0  0  0  0999 V2000
    0.6249    6.2516    1.0955 O   0  0  0  0  0  0  0  0  0  0  0  0
   -0.6042    6.2845    1.7945 C   0  0  0  0  0  0  0  0  0  0  0  0
   -0.9649    4.9044    2.3605 C   0  0  1  0  0  0  0  0  0  0  0  0
   -0.9987    3.9113    1.3479 O   0  0  0  0  0  0  0  0  0  0  0  0
   -0.7324    2.6346    1.9205 C   0  0  1  0  0  0  0  0  0  0  0  0
    0.2416    1.9500    1.1418 O   0  0  0  0  0  0  0  0  0  0  0  0
   -0.0889    0.6453    0.6931 C   0  0  2  0  0  0  0  0  0  0  0  0
   -1.4518    0.7248   -0.0129 C   0  0  1  0  0  0  0  0  0  0  0  0
   -1.3177    1.4381   -1.2322 O   0  0  0  0  0  0  0  0  0  0  0  0
   -2.0640   -0.6435   -0.3488 C   0  0  2  0  0  0  0  0  0  0  0  0
   -3.4060   -0.4929   -0.9324 N   0  0  0  0  0  0  0  0  0  0  0  0
   -2.1526   -1.4912    0.9148 C   0  0  0  0  0  0  0  0  0  0  0  0
   -0.7717   -1.6157    1.5470 C   0  0  2  0  0  0  0  0  0  0  0  0
   -0.8770   -2.4798    2.7276 N   0  0  0  0  0  0  0  0  0  0  0  0
   -0.2170   -0.2202    1.9055 C   0  0  1  0  0  0  0  0  0  0  0  0
    1.0665   -0.4595    2.5027 O   0  0  0  0  0  0  0  0  0  0  0  0
    1.5047    0.4652    3.4924 C   0  0  1  0  0  0  0  0  0  0  0  0
    0.6789    0.3908    4.6514 O   0  0  0  0  0  0  0  0  0  0  0  0
    0.7797   -0.8050    5.4216 C   0  0  2  0  0  0  0  0  0  0  0  0
   -0.1724   -0.7055    6.6209 C   0  0  0  0  0  0  0  0  0  0  0  0
   -0.6654   -2.0138    7.0269 N   0  0  0  0  0  0  0  0  0  0  0  0
    2.2223   -1.0180    5.9167 C   0  0  1  0  0  0  0  0  0  0  0  0
    2.3091   -2.2397    6.6283 O   0  0  0  0  0  0  0  0  0  0  0  0
    3.1600   -1.0528    4.7035 C   0  0  2  0  0  0  0  0  0  0  0  0
    4.5050   -1.1597    5.1308 O   0  0  0  0  0  0  0  0  0  0  0  0
    2.9744    0.2015    3.8390 C   0  0  1  0  0  0  0  0  0  0  0  0
    3.7835    0.0963    2.6163 N   0  0  0  0  0  0  0  0  0  0  0  0
   -0.1781    2.8865    3.3303 C   0  0  2  0  0  0  0  0  0  0  0  0
   -1.1360    2.5019    4.2988 O   0  0  0  0  0  0  0  0  0  0  0  0
    0.1006    4.3888    3.3226 C   0  0  2  0  0  0  0  0  0  0  0  0
    0.0464    4.9837    4.6041 O   0  0  0  0  0  0  0  0  0  0  0  0
  2  1  1  0  0  0  0
  3  2  1  6  0  0  0
  3 30  1  0  0  0  0
  4  5  1  0  0  0  0
  4  3  1  0  0  0  0
  5 28  1  0  0  0  0
  5  6  1  6  0  0  0
  7  6  1  1  0  0  0
  8  7  1  0  0  0  0
  8  9  1  6  0  0  0
 10 11  1  1  0  0  0
 10  8  1  0  0  0  0
 12 10  1  0  0  0  0
 13 12  1  0  0  0  0
 13 15  1  0  0  0  0
 13 14  1  1  0  0  0
 15  7  1  0  0  0  0
 15 16  1  6  0  0  0
 17 16  1  6  0  0  0
 18 17  1  0  0  0  0
 19 20  1  1  0  0  0
 19 18  1  0  0  0  0
 20 21  1  0  0  0  0
 22 24  1  0  0  0  0
 22 19  1  0  0  0  0
 22 23  1  6  0  0  0
 24 25  1  1  0  0  0
 24 26  1  0  0  0  0
 26 17  1  0  0  0  0
 26 27  1  6  0  0  0
 28 29  1  1  0  0  0
 28 30  1  0  0  0  0
 30 31  1  1  0  0  0
M  END
>  <CHROM.1>
177.27582966,-55.91169347,-126.57328069,52.21730241,48.51053309,61.01336178
-69.67451153,89.89392802,66.48648432,149.90880766,-39.48099502,170.45571670
79.47562014,38.12594631,-56.33312148,64.22142178,0.20865039,0.90474354,2.88893150
-2.32617846,0.95563481,3.06165982

>  <Name>
lig.pdb

>  <RI>
1.79691e+07

>  <Rbt.Current_Directory>
/home/itssahil/PROJECTS/Mol_Feturizer/New_Systems/rnas/2n0j

>  <Rbt.Executable>
rbdock ($Id: //depot/dev/client3/rdock/2013.1/src/exe/rbdock.cxx#4 $)

>  <Rbt.Library>
libRbt.so (2013.1, Build901 2013/11/27)

>  <Rbt.Parameter_File>
/export/apps/rDock/src/rDock_2013.1_src/data/scripts/dock_solv.prm

>  <Rbt.Receptor>
prm/blind_docking_20.prm

>  <SCORE>
-35.5614

>  <SCORE.INTER>
-39.8377

>  <SCORE.INTER.CONST>
1

>  <SCORE.INTER.POLAR>
-4.75762

>  <SCORE.INTER.ROT>
6

>  <SCORE.INTER.SOLV>
24.649

>  <SCORE.INTER.VDW>
-26.516

>  <SCORE.INTER.norm>
-1.28509

>  <SCORE.INTRA>
2.07671

>  <SCORE.INTRA.DIHEDRAL>
-8.7022

>  <SCORE.INTRA.DIHEDRAL.0>
28.0161

>  <SCORE.INTRA.POLAR>
1.04611

>  <SCORE.INTRA.POLAR.0>
-1.05798

>  <SCORE.INTRA.REPUL>
0

>  <SCORE.INTRA.REPUL.0>
0

>  <SCORE.INTRA.SOLV>
1.55065

>  <SCORE.INTRA.SOLV.lig_0>
-42.5945

>  <SCORE.INTRA.VDW>
2.09571

>  <SCORE.INTRA.VDW.0>
-5.13869

>  <SCORE.INTRA.norm>
0.0669906

>  <SCORE.RESTR>
2.19951

>  <SCORE.RESTR.CAVITY>
2.19951

>  <SCORE.RESTR.norm>
0.0709518

>  <SCORE.SYSTEM>
0

>  <SCORE.SYSTEM.CONST>
0

>  <SCORE.SYSTEM.DIHEDRAL>
0

>  <SCORE.SYSTEM.SOLV>
0

>  <SCORE.SYSTEM.norm>
0

>  <SCORE.heavy>
31

>  <SCORE.norm>
-1.14714

>  <RMSD>
5.539

$$$$
lig.pdb
 OpenBabel11021811453D
libRbt.so/2013.1/901 2013/11/27
 31 33  0  0  0  0  0  0  0  0999 V2000
   -1.5040    6.9500    2.3281 O   0  0  0  0  0  0  0  0  0  0  0  0
   -1.4363    5.8011    1.5062 C   0  0  0  0  0  0  0  0  0  0  0  0
   -1.2423    4.5264    2.3386 C   0  0  1  0  0  0  0  0  0  0  0  0
   -1.2319    3.3628    1.5269 O   0  0  0  0  0  0  0  0  0  0  0  0
   -0.4838    2.3364    2.1715 C   0  0  1  0  0  0  0  0  0  0  0  0
    0.4299    1.7537    1.2497 O   0  0  0  0  0  0  0  0  0  0  0  0
    0.1017    0.4730    0.7351 C   0  0  2  0  0  0  0  0  0  0  0  0
   -1.1689    0.6228   -0.1166 C   0  0  1  0  0  0  0  0  0  0  0  0
   -0.8708    1.3542   -1.2954 O   0  0  0  0  0  0  0  0  0  0  0  0
   -1.7920   -0.7121   -0.5522 C   0  0  2  0  0  0  0  0  0  0  0  0
   -3.0528   -0.4945   -1.2782 N   0  0  0  0  0  0  0  0  0  0  0  0
   -2.0551   -1.5806    0.6724 C   0  0  0  0  0  0  0  0  0  0  0  0
   -0.7601   -1.7746    1.4516 C   0  0  2  0  0  0  0  0  0  0  0  0
   -1.0310   -2.6570    2.5916 N   0  0  0  0  0  0  0  0  0  0  0  0
   -0.1956   -0.4106    1.9040 C   0  0  1  0  0  0  0  0  0  0  0  0
    1.0023   -0.7145    2.6348 O   0  0  0  0  0  0  0  0  0  0  0  0
    1.4178    0.2251    3.6202 C   0  0  1  0  0  0  0  0  0  0  0  0
    0.6465    0.0811    4.8098 O   0  0  0  0  0  0  0  0  0  0  0  0
    0.8578   -1.1148    5.5572 C   0  0  2  0  0  0  0  0  0  0  0  0
   -0.0493   -1.0943    6.7947 C   0  0  0  0  0  0  0  0  0  0  0  0
    0.2197    0.0599    7.6403 N   0  0  0  0  0  0  0  0  0  0  0  0
    2.3303   -1.2366    5.9915 C   0  0  1  0  0  0  0  0  0  0  0  0
    2.5271   -2.4585    6.6804 O   0  0  0  0  0  0  0  0  0  0  0  0
    3.2183   -1.1932    4.7416 C   0  0  2  0  0  0  0  0  0  0  0  0
    4.5836   -1.2149    5.1136 O   0  0  0  0  0  0  0  0  0  0  0  0
    2.9146    0.0564    3.9042 C   0  0  1  0  0  0  0  0  0  0  0  0
    3.6786    0.0210    2.6489 N   0  0  0  0  0  0  0  0  0  0  0  0
    0.2952    3.0045    3.3139 C   0  0  2  0  0  0  0  0  0  0  0  0
   -0.2532    2.6171    4.5599 O   0  0  0  0  0  0  0  0  0  0  0  0
    0.1234    4.4934    3.0172 C   0  0  2  0  0  0  0  0  0  0  0  0
    0.2091    5.3153    4.1645 O   0  0  0  0  0  0  0  0  0  0  0  0
  2  1  1  0  0  0  0
  3  2  1  6  0  0  0
  3 30  1  0  0  0  0
  4  5  1  0  0  0  0
  4  3  1  0  0  0  0
  5 28  1  0  0  0  0
  5  6  1  6  0  0  0
  7  6  1  1  0  0  0
  8  7  1  0  0  0  0
  8  9  1  6  0  0  0
 10 11  1  1  0  0  0
 10  8  1  0  0  0  0
 12 10  1  0  0  0  0
 13 12  1  0  0  0  0
 13 15  1  0  0  0  0
 13 14  1  1  0  0  0
 15  7  1  0  0  0  0
 15 16  1  6  0  0  0
 17 16  1  6  0  0  0
 18 17  1  0  0  0  0
 19 20  1  1  0  0  0
 19 18  1  0  0  0  0
 20 21  1  0  0  0  0
 22 24  1  0  0  0  0
 22 19  1  0  0  0  0
 22 23  1  6  0  0  0
 24 25  1  1  0  0  0
 24 26  1  0  0  0  0
 26 17  1  0  0  0  0
 26 27  1  6  0  0  0
 28 29  1  1  0  0  0
 28 30  1  0  0  0  0
 30 31  1  1  0  0  0
M  END
>  <CHROM.1>
-156.83608780,177.42229944,-104.53567428,65.56647497,44.43177660,-89.60060648
57.69047788,85.18063013,78.47327909,-58.99820045,-46.63068358,179.63599638
80.07991124,-83.92579082,62.29664989,72.43272920,0.24952957,0.86434372,2.94363789
-2.69035389,1.01980611,-2.84596175

>  <Name>
lig.pdb

>  <RI>
1.55206e+07

>  <Rbt.Current_Directory>
/home/itssahil/PROJECTS/Mol_Feturizer/New_Systems/rnas/2n0j

>  <Rbt.Executable>
rbdock ($Id: //depot/dev/client3/rdock/2013.1/src/exe/rbdock.cxx#4 $)

>  <Rbt.Library>
libRbt.so (2013.1, Build901 2013/11/27)

>  <Rbt.Parameter_File>
/export/apps/rDock/src/rDock_2013.1_src/data/scripts/dock_solv.prm

>  <Rbt.Receptor>
prm/blind_docking_80.prm

>  <SCORE>
-36.419

>  <SCORE.INTER>
-37.9836

>  <SCORE.INTER.CONST>
1

>  <SCORE.INTER.POLAR>
-5.03363

>  <SCORE.INTER.ROT>
6

>  <SCORE.INTER.SOLV>
25.9934

>  <SCORE.INTER.VDW>
-24.8081

>  <SCORE.INTER.norm>
-1.22528

>  <SCORE.INTRA>
-0.154539

>  <SCORE.INTRA.DIHEDRAL>
-7.74383

>  <SCORE.INTRA.DIHEDRAL.0>
28.0161

>  <SCORE.INTRA.POLAR>
-0.0438895

>  <SCORE.INTRA.POLAR.0>
-1.05798

>  <SCORE.INTRA.REPUL>
0

>  <SCORE.INTRA.REPUL.0>
0

>  <SCORE.INTRA.SOLV>
1.39814

>  <SCORE.INTRA.SOLV.lig_0>
-42.5945

>  <SCORE.INTRA.VDW>
3.16753

>  <SCORE.INTRA.VDW.0>
-5.13869

>  <SCORE.INTRA.norm>
-0.00498513

>  <SCORE.RESTR>
1.71912

>  <SCORE.RESTR.CAVITY>
1.71912

>  <SCORE.RESTR.norm>
0.0554556

>  <SCORE.SYSTEM>
0

>  <SCORE.SYSTEM.CONST>
0

>  <SCORE.SYSTEM.DIHEDRAL>
0

>  <SCORE.SYSTEM.SOLV>
0

>  <SCORE.SYSTEM.norm>
0

>  <SCORE.heavy>
31

>  <SCORE.norm>
-1.17481

>  <RMSD>
5.551

$$$$
lig.pdb
 OpenBabel11021811453D
libRbt.so/2013.1/901 2013/11/27
 31 33  0  0  0  0  0  0  0  0999 V2000
   -0.5821   -0.5586    8.5872 O   0  0  0  0  0  0  0  0  0  0  0  0
   -0.2981    0.7331    8.0863 C   0  0  0  0  0  0  0  0  0  0  0  0
   -1.5664    1.5929    8.0000 C   0  0  1  0  0  0  0  0  0  0  0  0
   -1.3703    2.7427    7.1922 O   0  0  0  0  0  0  0  0  0  0  0  0
   -2.6174    3.1629    6.6472 C   0  0  1  0  0  0  0  0  0  0  0  0
   -2.4767    3.4079    5.2529 O   0  0  0  0  0  0  0  0  0  0  0  0
   -1.7833    4.5847    4.8692 C   0  0  2  0  0  0  0  0  0  0  0  0
   -2.7387    5.7735    5.0598 C   0  0  1  0  0  0  0  0  0  0  0  0
   -2.9600    5.9917    6.4443 O   0  0  0  0  0  0  0  0  0  0  0  0
   -2.2228    7.0930    4.4659 C   0  0  2  0  0  0  0  0  0  0  0  0
   -3.2266    8.1602    4.5988 N   0  0  0  0  0  0  0  0  0  0  0  0
   -1.8838    6.8961    2.9930 C   0  0  0  0  0  0  0  0  0  0  0  0
   -0.8755    5.7631    2.8457 C   0  0  2  0  0  0  0  0  0  0  0  0
   -0.5268    5.6325    1.4269 N   0  0  0  0  0  0  0  0  0  0  0  0
   -1.4545    4.4508    3.4169 C   0  0  1  0  0  0  0  0  0  0  0  0
   -0.4356    3.4604    3.2110 O   0  0  0  0  0  0  0  0  0  0  0  0
   -0.7831    2.1060    3.4784 C   0  0  1  0  0  0  0  0  0  0  0  0
   -2.1345    1.8502    3.1057 O   0  0  0  0  0  0  0  0  0  0  0  0
   -2.4171    1.8677    1.7081 C   0  0  2  0  0  0  0  0  0  0  0  0
   -3.9083    1.5727    1.4988 C   0  0  0  0  0  0  0  0  0  0  0  0
   -4.3355    0.4002    2.2487 N   0  0  0  0  0  0  0  0  0  0  0  0
   -1.5683    0.8199    0.9641 C   0  0  1  0  0  0  0  0  0  0  0  0
   -1.8235    0.8968   -0.4271 O   0  0  0  0  0  0  0  0  0  0  0  0
   -0.0858    1.1008    1.2392 C   0  0  2  0  0  0  0  0  0  0  0  0
    0.7181    0.1019    0.6401 O   0  0  0  0  0  0  0  0  0  0  0  0
    0.1826    1.1654    2.7488 C   0  0  1  0  0  0  0  0  0  0  0  0
    1.5764    1.5604    2.9974 N   0  0  0  0  0  0  0  0  0  0  0  0
   -3.6099    2.0123    6.8688 C   0  0  2  0  0  0  0  0  0  0  0  0
   -4.5538    2.3763    7.8588 O   0  0  0  0  0  0  0  0  0  0  0  0
   -2.7034    0.8590    7.2962 C   0  0  2  0  0  0  0  0  0  0  0  0
   -3.3497   -0.1014    8.1081 O   0  0  0  0  0  0  0  0  0  0  0  0
  2  1  1  0  0  0  0
  3  2  1  6  0  0  0
  3 30  1  0  0  0  0
  4  5  1  0  0  0  0
  4  3  1  0  0  0  0
  5 28  1  0  0  0  0
  5  6  1  6  0  0  0
  7  6  1  6  0  0  0
  8  7  1  0  0  0  0
  8  9  1  1  0  0  0
 10 11  1  6  0  0  0
 10  8  1  0  0  0  0
 12 10  1  0  0  0  0
 13 12  1  0  0  0  0
 13 15  1  0  0  0  0
 13 14  1  6  0  0  0
 15  7  1  0  0  0  0
 15 16  1  1  0  0  0
 17 16  1  6  0  0  0
 18 17  1  0  0  0  0
 19 20  1  1  0  0  0
 19 18  1  0  0  0  0
 20 21  1  0  0  0  0
 22 24  1  0  0  0  0
 22 19  1  0  0  0  0
 22 23  1  6  0  0  0
 24 25  1  1  0  0  0
 24 26  1  0  0  0  0
 26 17  1  0  0  0  0
 26 27  1  6  0  0  0
 28 29  1  1  0  0  0
 28 30  1  0  0  0  0
 30 31  1  1  0  0  0
M  END
>  <CHROM.1>
-172.56710389,-164.75371122,-73.73358611,-77.14681585,55.21628063,102.14298485
-113.47940727,67.81602472,36.09861413,-49.03287538,58.79523193,-179.76078967
162.12188095,179.52579086,-62.66993533,-57.81298211,-1.79626650,2.78972688
4.31057793,-2.49936597,1.28707642,-0.61465995

>  <Name>
lig.pdb

>  <RI>
3.33129e+07

>  <Rbt.Current_Directory>
/home/itssahil/PROJECTS/Mol_Feturizer/New_Systems/rnas/2n0j

>  <Rbt.Executable>
rbdock ($Id: //depot/dev/client3/rdock/2013.1/src/exe/rbdock.cxx#4 $)

>  <Rbt.Library>
libRbt.so (2013.1, Build901 2013/11/27)

>  <Rbt.Parameter_File>
/export/apps/rDock/src/rDock_2013.1_src/data/scripts/dock_solv.prm

>  <Rbt.Receptor>
prm/pocket_docking_4.prm

>  <SCORE>
-41.0507

>  <SCORE.INTER>
-40.5538

>  <SCORE.INTER.CONST>
1

>  <SCORE.INTER.POLAR>
-5.17001

>  <SCORE.INTER.ROT>
6

>  <SCORE.INTER.SOLV>
16.215

>  <SCORE.INTER.VDW>
-22.8075

>  <SCORE.INTER.norm>
-1.30819

>  <SCORE.INTRA>
-0.528035

>  <SCORE.INTRA.DIHEDRAL>
-13.1267

>  <SCORE.INTRA.DIHEDRAL.0>
28.0161

>  <SCORE.INTRA.POLAR>
0.458243

>  <SCORE.INTRA.POLAR.0>
-1.05798

>  <SCORE.INTRA.REPUL>
0.0701713

>  <SCORE.INTRA.REPUL.0>
0

>  <SCORE.INTRA.SOLV>
0.307595

>  <SCORE.INTRA.SOLV.lig_0>
-42.5945

>  <SCORE.INTRA.VDW>
3.97262

>  <SCORE.INTRA.VDW.0>
-5.13869

>  <SCORE.INTRA.norm>
-0.0170334

>  <SCORE.RESTR>
0.0311505

>  <SCORE.RESTR.CAVITY>
0.0311505

>  <SCORE.RESTR.norm>
0.00100486

>  <SCORE.SYSTEM>
0

>  <SCORE.SYSTEM.CONST>
0

>  <SCORE.SYSTEM.DIHEDRAL>
0

>  <SCORE.SYSTEM.SOLV>
0

>  <SCORE.SYSTEM.norm>
0

>  <SCORE.heavy>
31

>  <SCORE.norm>
-1.32422

>  <RMSD>
5.560

$$$$
lig.pdb
 OpenBabel11021811453D
libRbt.so/2013.1/901 2013/11/27
 31 33  0  0  0  0  0  0  0  0999 V2000
    3.2858    4.2649    2.3357 O   0  0  0  0  0  0  0  0  0  0  0  0
    2.2939    5.1730    2.7733 C   0  0  0  0  0  0  0  0  0  0  0  0
    0.9729    4.9671    2.0198 C   0  0  1  0  0  0  0  0  0  0  0  0
    0.8387    3.6373    1.5439 O   0  0  0  0  0  0  0  0  0  0  0  0
   -0.5420    3.3132    1.4120 C   0  0  1  0  0  0  0  0  0  0  0  0
   -0.7995    2.0468    2.0068 O   0  0  0  0  0  0  0  0  0  0  0  0
   -0.7180    0.9078    1.1650 C   0  0  2  0  0  0  0  0  0  0  0  0
   -2.1269    0.6287    0.6180 C   0  0  1  0  0  0  0  0  0  0  0  0
   -2.4972    1.6514   -0.2933 O   0  0  0  0  0  0  0  0  0  0  0  0
   -2.2578   -0.7116   -0.1212 C   0  0  2  0  0  0  0  0  0  0  0  0
   -3.6496   -0.9554   -0.5306 N   0  0  0  0  0  0  0  0  0  0  0  0
   -1.7890   -1.8454    0.7831 C   0  0  0  0  0  0  0  0  0  0  0  0
   -0.3617   -1.5770    1.2443 C   0  0  2  0  0  0  0  0  0  0  0  0
    0.0818   -2.7081    2.0664 N   0  0  0  0  0  0  0  0  0  0  0  0
   -0.2887   -0.2428    2.0178 C   0  0  1  0  0  0  0  0  0  0  0  0
    1.0844   -0.1035    2.4137 O   0  0  0  0  0  0  0  0  0  0  0  0
    1.3629    0.7864    3.4893 C   0  0  1  0  0  0  0  0  0  0  0  0
    0.7442    0.3333    4.6904 O   0  0  0  0  0  0  0  0  0  0  0  0
    1.2757   -0.8602    5.2619 C   0  0  2  0  0  0  0  0  0  0  0  0
    0.4927   -1.1910    6.5394 C   0  0  0  0  0  0  0  0  0  0  0  0
    0.6786   -0.1730    7.5636 N   0  0  0  0  0  0  0  0  0  0  0  0
    2.7697   -0.6903    5.5946 C   0  0  1  0  0  0  0  0  0  0  0  0
    3.2879   -1.9056    6.1056 O   0  0  0  0  0  0  0  0  0  0  0  0
    3.5189   -0.3008    4.3142 C   0  0  2  0  0  0  0  0  0  0  0  0
    4.8815   -0.0516    4.6044 O   0  0  0  0  0  0  0  0  0  0  0  0
    2.8784    0.9339    3.6658 C   0  0  1  0  0  0  0  0  0  0  0  0
    3.5240    1.2194    2.3766 N   0  0  0  0  0  0  0  0  0  0  0  0
   -1.3274    4.4008    2.1593 C   0  0  2  0  0  0  0  0  0  0  0  0
   -2.0052    5.2271    1.2313 O   0  0  0  0  0  0  0  0  0  0  0  0
   -0.2357    5.1362    2.9350 C   0  0  2  0  0  0  0  0  0  0  0  0
   -0.5503    6.4851    3.2191 O   0  0  0  0  0  0  0  0  0  0  0  0
  2  1  1  0  0  0  0
  3  2  1  1  0  0  0
  3 30  1  0  0  0  0
  4  5  1  0  0  0  0
  4  3  1  0  0  0  0
  5 28  1  0  0  0  0
  5  6  1  1  0  0  0
  7  6  1  1  0  0  0
  8  7  1  0  0  0  0
  8  9  1  6  0  0  0
 10 11  1  1  0  0  0
 10  8  1  0  0  0  0
 12 10  1  0  0  0  0
 13 12  1  0  0  0  0
 13 15  1  0  0  0  0
 13 14  1  1  0  0  0
 15  7  1  0  0  0  0
 15 16  1  6  0  0  0
 17 16  1  6  0  0  0
 18 17  1  0  0  0  0
 19 20  1  1  0  0  0
 19 18  1  0  0  0  0
 20 21  1  0  0  0  0
 22 24  1  0  0  0  0
 22 19  1  0  0  0  0
 22 23  1  6  0  0  0
 24 25  1  1  0  0  0
 24 26  1  0  0  0  0
 26 17  1  0  0  0  0
 26 27  1  6  0  0  0
 28 29  1  6  0  0  0
 28 30  1  0  0  0  0
 30 31  1  6  0  0  0
M  END
>  <CHROM.1>
64.97313876,26.19485170,-91.85835049,-92.70320907,-72.55728029,-56.01378863
125.29245532,79.12749138,63.25026362,-64.71793748,-33.81634357,73.24676852
172.19427893,-52.15672361,177.43822921,-72.18101848,0.49786930,1.23290491
2.75910946,-2.38574058,0.72663688,2.99126863

>  <Name>
lig.pdb

>  <RI>
1.79691e+07

>  <Rbt.Current_Directory>
/home/itssahil/PROJECTS/Mol_Feturizer/New_Systems/rnas/2n0j

>  <Rbt.Executable>
rbdock ($Id: //depot/dev/client3/rdock/2013.1/src/exe/rbdock.cxx#4 $)

>  <Rbt.Library>
libRbt.so (2013.1, Build901 2013/11/27)

>  <Rbt.Parameter_File>
/export/apps/rDock/src/rDock_2013.1_src/data/scripts/dock_solv.prm

>  <Rbt.Receptor>
prm/blind_docking_20.prm

>  <SCORE>
-29.9481

>  <SCORE.INTER>
-31.0506

>  <SCORE.INTER.CONST>
1

>  <SCORE.INTER.POLAR>
-5.12774

>  <SCORE.INTER.ROT>
6

>  <SCORE.INTER.SOLV>
25.1793

>  <SCORE.INTER.VDW>
-19.601

>  <SCORE.INTER.norm>
-1.00163

>  <SCORE.INTRA>
-0.538756

>  <SCORE.INTRA.DIHEDRAL>
-6.85554

>  <SCORE.INTRA.DIHEDRAL.0>
28.0161

>  <SCORE.INTRA.POLAR>
0.046808

>  <SCORE.INTRA.POLAR.0>
-1.05798

>  <SCORE.INTRA.REPUL>
0

>  <SCORE.INTRA.REPUL.0>
0

>  <SCORE.INTRA.SOLV>
0.853333

>  <SCORE.INTRA.SOLV.lig_0>
-42.5945

>  <SCORE.INTRA.VDW>
2.3032

>  <SCORE.INTRA.VDW.0>
-5.13869

>  <SCORE.INTRA.norm>
-0.0173792

>  <SCORE.RESTR>
1.64126

>  <SCORE.RESTR.CAVITY>
1.64126

>  <SCORE.RESTR.norm>
0.052944

>  <SCORE.SYSTEM>
0

>  <SCORE.SYSTEM.CONST>
0

>  <SCORE.SYSTEM.DIHEDRAL>
0

>  <SCORE.SYSTEM.SOLV>
0

>  <SCORE.SYSTEM.norm>
0

>  <SCORE.heavy>
31

>  <SCORE.norm>
-0.966068

>  <RMSD>
5.579

$$$$
lig.pdb
 OpenBabel11021811453D
libRbt.so/2013.1/901 2013/11/27
 31 33  0  0  0  0  0  0  0  0999 V2000
    1.0742    6.7663    2.1862 O   0  0  0  0  0  0  0  0  0  0  0  0
    1.0392    5.6683    3.0768 C   0  0  0  0  0  0  0  0  0  0  0  0
   -0.0046    4.6291    2.6456 C   0  0  1  0  0  0  0  0  0  0  0  0
    0.3510    3.9994    1.4249 O   0  0  0  0  0  0  0  0  0  0  0  0
   -0.2423    2.7060    1.3631 C   0  0  1  0  0  0  0  0  0  0  0  0
    0.7304    1.7472    0.9650 O   0  0  0  0  0  0  0  0  0  0  0  0
    0.2603    0.4553    0.6147 C   0  0  2  0  0  0  0  0  0  0  0  0
   -1.0319    0.6325   -0.1984 C   0  0  1  0  0  0  0  0  0  0  0  0
   -0.7266    1.1957   -1.4645 O   0  0  0  0  0  0  0  0  0  0  0  0
   -1.7964   -0.6756   -0.4525 C   0  0  2  0  0  0  0  0  0  0  0  0
   -3.0663   -0.4184   -1.1491 N   0  0  0  0  0  0  0  0  0  0  0  0
   -2.0772   -1.3728    0.8734 C   0  0  0  0  0  0  0  0  0  0  0  0
   -0.7685   -1.6041    1.6188 C   0  0  2  0  0  0  0  0  0  0  0  0
   -1.0627   -2.3237    2.8627 N   0  0  0  0  0  0  0  0  0  0  0  0
   -0.0588   -0.2597    1.8885 C   0  0  1  0  0  0  0  0  0  0  0  0
    1.1408   -0.5957    2.6023 O   0  0  0  0  0  0  0  0  0  0  0  0
    1.6339    0.3639    3.5311 C   0  0  1  0  0  0  0  0  0  0  0  0
    0.7972    0.4255    4.6830 O   0  0  0  0  0  0  0  0  0  0  0  0
    0.8116   -0.7181    5.5346 C   0  0  2  0  0  0  0  0  0  0  0  0
   -0.1396   -0.4721    6.7133 C   0  0  0  0  0  0  0  0  0  0  0  0
    0.5880   -0.1929    7.9431 N   0  0  0  0  0  0  0  0  0  0  0  0
    2.2331   -0.9926    6.0596 C   0  0  1  0  0  0  0  0  0  0  0  0
    2.2322   -2.1652    6.8542 O   0  0  0  0  0  0  0  0  0  0  0  0
    3.1744   -1.1742    4.8623 C   0  0  2  0  0  0  0  0  0  0  0  0
    4.5062   -1.3413    5.3113 O   0  0  0  0  0  0  0  0  0  0  0  0
    3.0801    0.0268    3.9117 C   0  0  1  0  0  0  0  0  0  0  0  0
    3.8883   -0.2168    2.7084 N   0  0  0  0  0  0  0  0  0  0  0  0
   -0.7388    2.3764    2.7784 C   0  0  2  0  0  0  0  0  0  0  0  0
   -2.1534    2.4126    2.8116 O   0  0  0  0  0  0  0  0  0  0  0  0
   -0.0886    3.4662    3.6292 C   0  0  2  0  0  0  0  0  0  0  0  0
   -0.8054    3.7697    4.8096 O   0  0  0  0  0  0  0  0  0  0  0  0
  2  1  1  0  0  0  0
  3  2  1  1  0  0  0
  3 30  1  0  0  0  0
  4  5  1  0  0  0  0
  4  3  1  0  0  0  0
  5 28  1  0  0  0  0
  5  6  1  1  0  0  0
  7  6  1  1  0  0  0
  8  7  1  0  0  0  0
  8  9  1  6  0  0  0
 10 11  1  1  0  0  0
 10  8  1  0  0  0  0
 12 10  1  0  0  0  0
 13 12  1  0  0  0  0
 13 15  1  0  0  0  0
 13 14  1  1  0  0  0
 15  7  1  0  0  0  0
 15 16  1  6  0  0  0
 17 16  1  6  0  0  0
 18 17  1  0  0  0  0
 19 20  1  1  0  0  0
 19 18  1  0  0  0  0
 20 21  1  0  0  0  0
 22 24  1  0  0  0  0
 22 19  1  0  0  0  0
 22 23  1  6  0  0  0
 24 25  1  1  0  0  0
 24 26  1  0  0  0  0
 26 17  1  0  0  0  0
 26 27  1  6  0  0  0
 28 29  1  6  0  0  0
 28 30  1  0  0  0  0
 30 31  1  1  0  0  0
M  END
>  <CHROM.1>
59.03942960,66.87727843,-168.70622185,40.63924657,-40.13226076,26.59334100
41.45917261,89.77158136,71.80883661,-105.56762315,173.57727454,163.61054766
-67.60866268,38.35281938,-59.13120867,-70.20657811,0.42150591,0.85737455
2.95954033,-2.61705971,1.03168445,3.11913220

>  <Name>
lig.pdb

>  <RI>
1.79691e+07

>  <Rbt.Current_Directory>
/home/itssahil/PROJECTS/Mol_Feturizer/New_Systems/rnas/2n0j

>  <Rbt.Executable>
rbdock ($Id: //depot/dev/client3/rdock/2013.1/src/exe/rbdock.cxx#4 $)

>  <Rbt.Library>
libRbt.so (2013.1, Build901 2013/11/27)

>  <Rbt.Parameter_File>
/export/apps/rDock/src/rDock_2013.1_src/data/scripts/dock_solv.prm

>  <Rbt.Receptor>
prm/blind_docking_20.prm

>  <SCORE>
-32.1132

>  <SCORE.INTER>
-39.6655

>  <SCORE.INTER.CONST>
1

>  <SCORE.INTER.POLAR>
-4.67842

>  <SCORE.INTER.ROT>
6

>  <SCORE.INTER.SOLV>
22.5671

>  <SCORE.INTER.VDW>
-25.9713

>  <SCORE.INTER.norm>
-1.27953

>  <SCORE.INTRA>
4.03182

>  <SCORE.INTRA.DIHEDRAL>
-8.57189

>  <SCORE.INTRA.DIHEDRAL.0>
28.0161

>  <SCORE.INTRA.POLAR>
0.705721

>  <SCORE.INTRA.POLAR.0>
-1.05798

>  <SCORE.INTRA.REPUL>
0

>  <SCORE.INTRA.REPUL.0>
0

>  <SCORE.INTRA.SOLV>
0.925667

>  <SCORE.INTRA.SOLV.lig_0>
-42.5945

>  <SCORE.INTRA.VDW>
5.45548

>  <SCORE.INTRA.VDW.0>
-5.13869

>  <SCORE.INTRA.norm>
0.130059

>  <SCORE.RESTR>
3.52055

>  <SCORE.RESTR.CAVITY>
3.52055

>  <SCORE.RESTR.norm>
0.113566

>  <SCORE.SYSTEM>
0

>  <SCORE.SYSTEM.CONST>
0

>  <SCORE.SYSTEM.DIHEDRAL>
0

>  <SCORE.SYSTEM.SOLV>
0

>  <SCORE.SYSTEM.norm>
0

>  <SCORE.heavy>
31

>  <SCORE.norm>
-1.03591

>  <RMSD>
5.585

$$$$
lig.pdb
 OpenBabel11021811453D
libRbt.so/2013.1/901 2013/11/27
 31 33  0  0  0  0  0  0  0  0999 V2000
   -3.2764    1.2217   -1.8277 O   0  0  0  0  0  0  0  0  0  0  0  0
   -3.5276    0.8260   -0.4933 C   0  0  0  0  0  0  0  0  0  0  0  0
   -2.5459   -0.2615   -0.0363 C   0  0  1  0  0  0  0  0  0  0  0  0
   -1.5231    0.2660    0.7935 O   0  0  0  0  0  0  0  0  0  0  0  0
   -1.0291   -0.7567    1.6530 C   0  0  1  0  0  0  0  0  0  0  0  0
   -0.9591   -0.2725    2.9888 O   0  0  0  0  0  0  0  0  0  0  0  0
   -0.3971   -1.1381    3.9623 C   0  0  2  0  0  0  0  0  0  0  0  0
   -1.5553   -1.7695    4.7511 C   0  0  1  0  0  0  0  0  0  0  0  0
   -2.2646   -2.6728    3.9179 O   0  0  0  0  0  0  0  0  0  0  0  0
   -1.1120   -2.5497    5.9980 C   0  0  2  0  0  0  0  0  0  0  0  0
   -2.2741   -3.0418    6.7540 N   0  0  0  0  0  0  0  0  0  0  0  0
   -0.2678   -1.6508    6.8938 C   0  0  0  0  0  0  0  0  0  0  0  0
    0.9149   -1.1043    6.1036 C   0  0  2  0  0  0  0  0  0  0  0  0
    1.7381   -0.2888    7.0031 N   0  0  0  0  0  0  0  0  0  0  0  0
    0.4196   -0.2933    4.8868 C   0  0  1  0  0  0  0  0  0  0  0  0
    1.6067    0.1817    4.2334 O   0  0  0  0  0  0  0  0  0  0  0  0
    1.5127    0.4644    2.8414 C   0  0  1  0  0  0  0  0  0  0  0  0
    0.5230    1.4598    2.5957 O   0  0  0  0  0  0  0  0  0  0  0  0
    0.8234    2.7750    3.0577 C   0  0  2  0  0  0  0  0  0  0  0  0
   -0.3460    3.7044    2.7063 C   0  0  0  0  0  0  0  0  0  0  0  0
   -1.0270    3.2774    1.4923 N   0  0  0  0  0  0  0  0  0  0  0  0
    2.1194    3.2999    2.4121 C   0  0  1  0  0  0  0  0  0  0  0  0
    2.4275    4.5818    2.9301 O   0  0  0  0  0  0  0  0  0  0  0  0
    3.2583    2.3221    2.7271 C   0  0  2  0  0  0  0  0  0  0  0  0
    4.4454    2.7309    2.0739 O   0  0  0  0  0  0  0  0  0  0  0  0
    2.8814    0.8962    2.3028 C   0  0  1  0  0  0  0  0  0  0  0  0
    3.9250   -0.0488    2.7249 N   0  0  0  0  0  0  0  0  0  0  0  0
   -2.0288   -1.9201    1.5802 C   0  0  2  0  0  0  0  0  0  0  0  0
   -1.4526   -3.0052    0.8774 O   0  0  0  0  0  0  0  0  0  0  0  0
   -3.2215   -1.2986    0.8552 C   0  0  2  0  0  0  0  0  0  0  0  0
   -4.0063   -2.2356    0.1445 O   0  0  0  0  0  0  0  0  0  0  0  0
  2  1  1  0  0  0  0
  3  2  1  1  0  0  0
  3 30  1  0  0  0  0
  4  5  1  0  0  0  0
  4  3  1  0  0  0  0
  5 28  1  0  0  0  0
  5  6  1  1  0  0  0
  7  6  1  6  0  0  0
  8  7  1  0  0  0  0
  8  9  1  6  0  0  0
 10 11  1  1  0  0  0
 10  8  1  0  0  0  0
 12 10  1  0  0  0  0
 13 12  1  0  0  0  0
 13 15  1  0  0  0  0
 13 14  1  1  0  0  0
 15  7  1  0  0  0  0
 15 16  1  6  0  0  0
 17 16  1  1  0  0  0
 18 17  1  0  0  0  0
 19 20  1  6  0  0  0
 19 18  1  0  0  0  0
 20 21  1  0  0  0  0
 22 24  1  0  0  0  0
 22 19  1  0  0  0  0
 22 23  1  1  0  0  0
 24 25  1  6  0  0  0
 24 26  1  0  0  0  0
 26 17  1  0  0  0  0
 26 27  1  1  0  0  0
 28 29  1  6  0  0  0
 28 30  1  0  0  0  0
 30 31  1  6  0  0  0
M  END
>  <CHROM.1>
-58.42052158,102.28538428,-175.71192806,-101.30777267,59.91088745,166.56678210
72.10882361,33.72815091,59.24194868,-30.31247583,160.07478608,-175.02886675
172.47332361,71.00146927,178.07043048,57.51751172,-0.19675434,0.12106033
2.83993924,3.00997373,0.64028810,2.21888344

>  <Name>
lig.pdb

>  <RI>
0

>  <Rbt.Current_Directory>
/home/itssahil/PROJECTS/Mol_Feturizer/New_Systems/rnas/2n0j

>  <Rbt.Executable>
rbdock ($Id: //depot/dev/client3/rdock/2013.1/src/exe/rbdock.cxx#4 $)

>  <Rbt.Library>
libRbt.so (2013.1, Build901 2013/11/27)

>  <Rbt.Parameter_File>
/export/apps/rDock/src/rDock_2013.1_src/data/scripts/dock_solv.prm

>  <Rbt.Receptor>
prm/blind_docking_60.prm

>  <SCORE>
-27.8442

>  <SCORE.INTER>
-37.0365

>  <SCORE.INTER.CONST>
1

>  <SCORE.INTER.POLAR>
-4.94418

>  <SCORE.INTER.ROT>
6

>  <SCORE.INTER.SOLV>
24.9824

>  <SCORE.INTER.VDW>
-24.1378

>  <SCORE.INTER.norm>
-1.19472

>  <SCORE.INTRA>
4.91447

>  <SCORE.INTRA.DIHEDRAL>
-9.86604

>  <SCORE.INTRA.DIHEDRAL.0>
28.0161

>  <SCORE.INTRA.POLAR>
-0.179868

>  <SCORE.INTRA.POLAR.0>
-1.05798

>  <SCORE.INTRA.REPUL>
0.206309

>  <SCORE.INTRA.REPUL.0>
0

>  <SCORE.INTRA.SOLV>
1.22003

>  <SCORE.INTRA.SOLV.lig_0>
-42.5945

>  <SCORE.INTRA.VDW>
8.81748

>  <SCORE.INTRA.VDW.0>
-5.13869

>  <SCORE.INTRA.norm>
0.158531

>  <SCORE.RESTR>
4.27779

>  <SCORE.RESTR.CAVITY>
4.27779

>  <SCORE.RESTR.norm>
0.137993

>  <SCORE.SYSTEM>
0

>  <SCORE.SYSTEM.CONST>
0

>  <SCORE.SYSTEM.DIHEDRAL>
0

>  <SCORE.SYSTEM.SOLV>
0

>  <SCORE.SYSTEM.norm>
0

>  <SCORE.heavy>
31

>  <SCORE.norm>
-0.8982

>  <RMSD>
5.585

$$$$
lig.pdb
 OpenBabel11021811453D
libRbt.so/2013.1/901 2013/11/27
 31 33  0  0  0  0  0  0  0  0999 V2000
   -5.9001    0.3679    1.7783 O   0  0  0  0  0  0  0  0  0  0  0  0
   -5.3999    1.6881    1.8626 C   0  0  0  0  0  0  0  0  0  0  0  0
   -5.5320    2.2484    3.2852 C   0  0  1  0  0  0  0  0  0  0  0  0
   -4.8022    1.4769    4.2260 O   0  0  0  0  0  0  0  0  0  0  0  0
   -4.4424    2.2922    5.3372 C   0  0  1  0  0  0  0  0  0  0  0  0
   -3.0656    2.1089    5.6446 O   0  0  0  0  0  0  0  0  0  0  0  0
   -2.7397    1.0818    6.5675 C   0  0  2  0  0  0  0  0  0  0  0  0
   -3.0727    1.5966    7.9769 C   0  0  1  0  0  0  0  0  0  0  0  0
   -4.4798    1.7018    8.1273 O   0  0  0  0  0  0  0  0  0  0  0  0
   -2.5580    0.6964    9.1104 C   0  0  2  0  0  0  0  0  0  0  0  0
   -2.8266    1.2978   10.4258 N   0  0  0  0  0  0  0  0  0  0  0  0
   -1.0585    0.4751    8.9505 C   0  0  0  0  0  0  0  0  0  0  0  0
   -0.7701   -0.1089    7.5729 C   0  0  2  0  0  0  0  0  0  0  0  0
    0.6709   -0.3621    7.4675 N   0  0  0  0  0  0  0  0  0  0  0  0
   -1.2661    0.8492    6.4684 C   0  0  1  0  0  0  0  0  0  0  0  0
   -0.9301    0.2105    5.2272 O   0  0  0  0  0  0  0  0  0  0  0  0
   -0.8258    1.0421    4.0765 C   0  0  1  0  0  0  0  0  0  0  0  0
    0.5296    1.4189    3.8490 O   0  0  0  0  0  0  0  0  0  0  0  0
    1.4126    0.3778    3.4368 C   0  0  2  0  0  0  0  0  0  0  0  0
    2.8163    0.9656    3.2398 C   0  0  0  0  0  0  0  0  0  0  0  0
    3.6919    0.0428    2.5318 N   0  0  0  0  0  0  0  0  0  0  0  0
    0.9271   -0.2650    2.1243 C   0  0  1  0  0  0  0  0  0  0  0  0
    1.7865   -1.3329    1.7672 O   0  0  0  0  0  0  0  0  0  0  0  0
   -0.4994   -0.7896    2.3303 C   0  0  2  0  0  0  0  0  0  0  0  0
   -1.0073   -1.3086    1.1155 O   0  0  0  0  0  0  0  0  0  0  0  0
   -1.4152    0.3231    2.8577 C   0  0  1  0  0  0  0  0  0  0  0  0
   -2.7436   -0.2223    3.1712 N   0  0  0  0  0  0  0  0  0  0  0  0
   -4.6851    3.7491    4.9168 C   0  0  2  0  0  0  0  0  0  0  0  0
   -5.8048    4.2686    5.6096 O   0  0  0  0  0  0  0  0  0  0  0  0
   -4.9092    3.6353    3.4098 C   0  0  2  0  0  0  0  0  0  0  0  0
   -5.7110    4.6695    2.8744 O   0  0  0  0  0  0  0  0  0  0  0  0
  2  1  1  0  0  0  0
  3  2  1  6  0  0  0
  3 30  1  0  0  0  0
  4  5  1  0  0  0  0
  4  3  1  0  0  0  0
  5 28  1  0  0  0  0
  5  6  1  6  0  0  0
  7  6  1  6  0  0  0
  8  7  1  0  0  0  0
  8  9  1  6  0  0  0
 10 11  1  1  0  0  0
 10  8  1  0  0  0  0
 12 10  1  0  0  0  0
 13 12  1  0  0  0  0
 13 15  1  0  0  0  0
 13 14  1  6  0  0  0
 15  7  1  0  0  0  0
 15 16  1  6  0  0  0
 17 16  1  1  0  0  0
 18 17  1  0  0  0  0
 19 20  1  6  0  0  0
 19 18  1  0  0  0  0
 20 21  1  0  0  0  0
 22 24  1  0  0  0  0
 22 19  1  0  0  0  0
 22 23  1  1  0  0  0
 24 25  1  6  0  0  0
 24 26  1  0  0  0  0
 26 17  1  0  0  0  0
 26 27  1  1  0  0  0
 28 29  1  1  0  0  0
 28 30  1  0  0  0  0
 30 31  1  1  0  0  0
M  END
>  <CHROM.1>
-178.33440363,60.76153002,-89.75066667,-76.80367534,61.64725962,-56.69133319
-48.58194743,81.14139675,95.64651992,-166.85331508,-150.72302555,170.64723250
71.20895969,-179.33748725,-179.64270023,-60.39173722,-2.09046135,1.08554043
4.72341445,2.75473938,-0.41174151,1.52203828

>  <Name>
lig.pdb

>  <RI>
3.32461e+07

>  <Rbt.Current_Directory>
/home/itssahil/PROJECTS/Mol_Feturizer/New_Systems/rnas/2n0j

>  <Rbt.Executable>
rbdock ($Id: //depot/dev/client3/rdock/2013.1/src/exe/rbdock.cxx#4 $)

>  <Rbt.Library>
libRbt.so (2013.1, Build901 2013/11/27)

>  <Rbt.Parameter_File>
/export/apps/rDock/src/rDock_2013.1_src/data/scripts/dock_solv.prm

>  <Rbt.Receptor>
prm/pocket_docking_7.prm

>  <SCORE>
-32.7803

>  <SCORE.INTER>
-28.3169

>  <SCORE.INTER.CONST>
1

>  <SCORE.INTER.POLAR>
-4.42845

>  <SCORE.INTER.ROT>
6

>  <SCORE.INTER.SOLV>
13.8965

>  <SCORE.INTER.VDW>
-16.3486

>  <SCORE.INTER.norm>
-0.91345

>  <SCORE.INTRA>
-4.5184

>  <SCORE.INTRA.DIHEDRAL>
-12.4476

>  <SCORE.INTRA.DIHEDRAL.0>
28.0161

>  <SCORE.INTRA.POLAR>
-0.144855

>  <SCORE.INTRA.POLAR.0>
-1.05798

>  <SCORE.INTRA.REPUL>
0

>  <SCORE.INTRA.REPUL.0>
0

>  <SCORE.INTRA.SOLV>
1.426

>  <SCORE.INTRA.SOLV.lig_0>
-42.5945

>  <SCORE.INTRA.VDW>
1.48492

>  <SCORE.INTRA.VDW.0>
-5.13869

>  <SCORE.INTRA.norm>
-0.145755

>  <SCORE.RESTR>
0.0549927

>  <SCORE.RESTR.CAVITY>
0.0549927

>  <SCORE.RESTR.norm>
0.00177396

>  <SCORE.SYSTEM>
0

>  <SCORE.SYSTEM.CONST>
0

>  <SCORE.SYSTEM.DIHEDRAL>
0

>  <SCORE.SYSTEM.SOLV>
0

>  <SCORE.SYSTEM.norm>
0

>  <SCORE.heavy>
31

>  <SCORE.norm>
-1.05743

>  <RMSD>
5.590

$$$$
lig.pdb
 OpenBabel11021811453D
libRbt.so/2013.1/901 2013/11/27
 31 33  0  0  0  0  0  0  0  0999 V2000
   -3.7107    1.1650    0.0312 O   0  0  0  0  0  0  0  0  0  0  0  0
   -2.7790    0.7090   -0.9301 C   0  0  0  0  0  0  0  0  0  0  0  0
   -1.8262   -0.3371   -0.3358 C   0  0  1  0  0  0  0  0  0  0  0  0
   -0.9790    0.2233    0.6548 O   0  0  0  0  0  0  0  0  0  0  0  0
   -0.5748   -0.7917    1.5687 C   0  0  1  0  0  0  0  0  0  0  0  0
   -0.7454   -0.3340    2.9048 O   0  0  0  0  0  0  0  0  0  0  0  0
   -0.1503   -1.1072    3.9348 C   0  0  2  0  0  0  0  0  0  0  0  0
   -1.2827   -1.7659    4.7386 C   0  0  1  0  0  0  0  0  0  0  0  0
   -1.9177   -2.7569    3.9461 O   0  0  0  0  0  0  0  0  0  0  0  0
   -0.8169   -2.4465    6.0347 C   0  0  2  0  0  0  0  0  0  0  0  0
   -1.9611   -2.9685    6.7978 N   0  0  0  0  0  0  0  0  0  0  0  0
   -0.0483   -1.4480    6.8922 C   0  0  0  0  0  0  0  0  0  0  0  0
    1.1138   -0.8723    6.0922 C   0  0  2  0  0  0  0  0  0  0  0  0
    1.8665    0.0420    6.9578 N   0  0  0  0  0  0  0  0  0  0  0  0
    0.5936   -0.1627    4.8235 C   0  0  1  0  0  0  0  0  0  0  0  0
    1.7617    0.3494    4.1642 O   0  0  0  0  0  0  0  0  0  0  0  0
    1.6321    0.6954    2.7894 C   0  0  1  0  0  0  0  0  0  0  0  0
    0.6363    1.6997    2.6149 O   0  0  0  0  0  0  0  0  0  0  0  0
    0.9483    2.9928    3.1286 C   0  0  2  0  0  0  0  0  0  0  0  0
   -0.2298    3.9358    2.8501 C   0  0  0  0  0  0  0  0  0  0  0  0
   -0.0266    4.7057    1.6312 N   0  0  0  0  0  0  0  0  0  0  0  0
    2.2272    3.5483    2.4748 C   0  0  1  0  0  0  0  0  0  0  0  0
    2.5484    4.8056    3.0428 O   0  0  0  0  0  0  0  0  0  0  0  0
    3.3739    2.5586    2.7156 C   0  0  2  0  0  0  0  0  0  0  0  0
    4.5439    2.9983    2.0516 O   0  0  0  0  0  0  0  0  0  0  0  0
    2.9865    1.1531    2.2363 C   0  0  1  0  0  0  0  0  0  0  0  0
    4.0407    0.1911    2.5879 N   0  0  0  0  0  0  0  0  0  0  0  0
   -1.4863   -2.0024    1.3203 C   0  0  2  0  0  0  0  0  0  0  0  0
   -0.7478   -3.0412    0.7048 O   0  0  0  0  0  0  0  0  0  0  0  0
   -2.5792   -1.4263    0.4214 C   0  0  2  0  0  0  0  0  0  0  0  0
   -3.1889   -2.3862   -0.4189 O   0  0  0  0  0  0  0  0  0  0  0  0
  2  1  1  0  0  0  0
  3  2  1  1  0  0  0
  3 30  1  0  0  0  0
  4  5  1  0  0  0  0
  4  3  1  0  0  0  0
  5 28  1  0  0  0  0
  5  6  1  1  0  0  0
  7  6  1  6  0  0  0
  8  7  1  0  0  0  0
  8  9  1  6  0  0  0
 10 11  1  1  0  0  0
 10  8  1  0  0  0  0
 12 10  1  0  0  0  0
 13 12  1  0  0  0  0
 13 15  1  0  0  0  0
 13 14  1  1  0  0  0
 15  7  1  0  0  0  0
 15 16  1  6  0  0  0
 17 16  1  1  0  0  0
 18 17  1  0  0  0  0
 19 20  1  6  0  0  0
 19 18  1  0  0  0  0
 20 21  1  0  0  0  0
 22 24  1  0  0  0  0
 22 19  1  0  0  0  0
 22 23  1  1  0  0  0
 24 25  1  6  0  0  0
 24 26  1  0  0  0  0
 26 17  1  0  0  0  0
 26 27  1  1  0  0  0
 28 29  1  6  0  0  0
 28 30  1  0  0  0  0
 30 31  1  6  0  0  0
M  END
>  <CHROM.1>
113.36397801,-66.50080777,-167.87713474,-110.93196148,66.15225625,164.35028338
75.51674078,40.85593262,59.54507822,-95.79175712,-176.99930073,173.24730345
170.69771188,76.39865236,171.88051534,-64.19260026,0.10581408,0.26815963
2.83586084,2.78544617,0.74116639,2.23330927

>  <Name>
lig.pdb

>  <RI>
1.55206e+07

>  <Rbt.Current_Directory>
/home/itssahil/PROJECTS/Mol_Feturizer/New_Systems/rnas/2n0j

>  <Rbt.Executable>
rbdock ($Id: //depot/dev/client3/rdock/2013.1/src/exe/rbdock.cxx#4 $)

>  <Rbt.Library>
libRbt.so (2013.1, Build901 2013/11/27)

>  <Rbt.Parameter_File>
/export/apps/rDock/src/rDock_2013.1_src/data/scripts/dock_solv.prm

>  <Rbt.Receptor>
prm/blind_docking_80.prm

>  <SCORE>
-33.1947

>  <SCORE.INTER>
-45.3192

>  <SCORE.INTER.CONST>
1

>  <SCORE.INTER.POLAR>
-7.16347

>  <SCORE.INTER.ROT>
6

>  <SCORE.INTER.SOLV>
25.0568

>  <SCORE.INTER.VDW>
-22.2868

>  <SCORE.INTER.norm>
-1.46191

>  <SCORE.INTRA>
9.68789

>  <SCORE.INTRA.DIHEDRAL>
-4.93864

>  <SCORE.INTRA.DIHEDRAL.0>
28.0161

>  <SCORE.INTRA.POLAR>
0.776161

>  <SCORE.INTRA.POLAR.0>
-1.05798

>  <SCORE.INTRA.REPUL>
0.384737

>  <SCORE.INTRA.REPUL.0>
0

>  <SCORE.INTRA.SOLV>
1.56018

>  <SCORE.INTRA.SOLV.lig_0>
-42.5945

>  <SCORE.INTRA.VDW>
6.81449

>  <SCORE.INTRA.VDW.0>
-5.13869

>  <SCORE.INTRA.norm>
0.312513

>  <SCORE.RESTR>
2.43666

>  <SCORE.RESTR.CAVITY>
2.43666

>  <SCORE.RESTR.norm>
0.0786018

>  <SCORE.SYSTEM>
0

>  <SCORE.SYSTEM.CONST>
0

>  <SCORE.SYSTEM.DIHEDRAL>
0

>  <SCORE.SYSTEM.SOLV>
0

>  <SCORE.SYSTEM.norm>
0

>  <SCORE.heavy>
31

>  <SCORE.norm>
-1.0708

>  <RMSD>
5.600

$$$$
lig.pdb
 OpenBabel11021811453D
libRbt.so/2013.1/901 2013/11/27
 31 33  0  0  0  0  0  0  0  0999 V2000
   -1.4209   -1.3231    8.9679 O   0  0  0  0  0  0  0  0  0  0  0  0
   -1.1043   -0.5488    7.8276 C   0  0  0  0  0  0  0  0  0  0  0  0
   -1.7076    0.8593    7.9202 C   0  0  1  0  0  0  0  0  0  0  0  0
   -1.0633    1.7681    7.0416 O   0  0  0  0  0  0  0  0  0  0  0  0
   -1.9608    2.8194    6.6982 C   0  0  1  0  0  0  0  0  0  0  0  0
   -1.9449    3.0273    5.2909 O   0  0  0  0  0  0  0  0  0  0  0  0
   -1.4772    4.2840    4.8276 C   0  0  2  0  0  0  0  0  0  0  0  0
   -2.4254    5.3649    5.3704 C   0  0  1  0  0  0  0  0  0  0  0  0
   -2.2628    5.4819    6.7752 O   0  0  0  0  0  0  0  0  0  0  0  0
   -2.1974    6.7589    4.7663 C   0  0  2  0  0  0  0  0  0  0  0  0
   -3.1993    7.7177    5.2575 N   0  0  0  0  0  0  0  0  0  0  0  0
   -2.2740    6.6792    3.2462 C   0  0  0  0  0  0  0  0  0  0  0  0
   -1.2671    5.6563    2.7347 C   0  0  2  0  0  0  0  0  0  0  0  0
   -1.3241    5.6404    1.2690 N   0  0  0  0  0  0  0  0  0  0  0  0
   -1.5624    4.2649    3.3350 C   0  0  1  0  0  0  0  0  0  0  0  0
   -0.5724    3.3880    2.7761 O   0  0  0  0  0  0  0  0  0  0  0  0
   -0.7564    1.9904    2.9748 C   0  0  1  0  0  0  0  0  0  0  0  0
   -2.1153    1.6247    2.7502 O   0  0  0  0  0  0  0  0  0  0  0  0
   -2.5761    1.7080    1.4033 C   0  0  2  0  0  0  0  0  0  0  0  0
   -4.0483    1.2782    1.3542 C   0  0  0  0  0  0  0  0  0  0  0  0
   -4.2365   -0.0609    1.8937 N   0  0  0  0  0  0  0  0  0  0  0  0
   -1.7375    0.8043    0.4803 C   0  0  1  0  0  0  0  0  0  0  0  0
   -2.1759    0.9488   -0.8589 O   0  0  0  0  0  0  0  0  0  0  0  0
   -0.2641    1.2147    0.5943 C   0  0  2  0  0  0  0  0  0  0  0  0
    0.5443    0.3452   -0.1760 O   0  0  0  0  0  0  0  0  0  0  0  0
    0.1896    1.2040    2.0603 C   0  0  1  0  0  0  0  0  0  0  0  0
    1.5615    1.7205    2.1682 N   0  0  0  0  0  0  0  0  0  0  0  0
   -3.3622    2.3681    7.1348 C   0  0  2  0  0  0  0  0  0  0  0  0
   -3.7839    3.1256    8.2537 O   0  0  0  0  0  0  0  0  0  0  0  0
   -3.1591    0.8874    7.4520 C   0  0  2  0  0  0  0  0  0  0  0  0
   -4.0738    0.3788    8.4027 O   0  0  0  0  0  0  0  0  0  0  0  0
  2  1  1  0  0  0  0
  3  2  1  6  0  0  0
  3 30  1  0  0  0  0
  4  5  1  0  0  0  0
  4  3  1  0  0  0  0
  5 28  1  0  0  0  0
  5  6  1  6  0  0  0
  7  6  1  1  0  0  0
  8  7  1  0  0  0  0
  8  9  1  1  0  0  0
 10 11  1  1  0  0  0
 10  8  1  0  0  0  0
 12 10  1  0  0  0  0
 13 12  1  0  0  0  0
 13 15  1  0  0  0  0
 13 14  1  6  0  0  0
 15  7  1  0  0  0  0
 15 16  1  6  0  0  0
 17 16  1  6  0  0  0
 18 17  1  0  0  0  0
 19 20  1  1  0  0  0
 19 18  1  0  0  0  0
 20 21  1  0  0  0  0
 22 24  1  0  0  0  0
 22 19  1  0  0  0  0
 22 23  1  6  0  0  0
 24 25  1  6  0  0  0
 24 26  1  0  0  0  0
 26 17  1  0  0  0  0
 26 27  1  6  0  0  0
 28 29  1  1  0  0  0
 28 30  1  0  0  0  0
 30 31  1  1  0  0  0
M  END
>  <CHROM.1>
-157.97362631,160.75326342,-116.23666346,-62.42977862,57.37281375,-157.47385623
78.23208102,70.14388876,43.84272254,-56.76995895,-63.94824751,-170.70275244
68.75757136,-176.79314883,177.29885369,-71.84500985,-1.86845753,2.59518764
4.19736306,-2.74773897,1.35304608,-0.39858974

>  <Name>
lig.pdb

>  <RI>
0

>  <Rbt.Current_Directory>
/home/itssahil/PROJECTS/Mol_Feturizer/New_Systems/rnas/2n0j

>  <Rbt.Executable>
rbdock ($Id: //depot/dev/client3/rdock/2013.1/src/exe/rbdock.cxx#4 $)

>  <Rbt.Library>
libRbt.so (2013.1, Build901 2013/11/27)

>  <Rbt.Parameter_File>
/export/apps/rDock/src/rDock_2013.1_src/data/scripts/dock_solv.prm

>  <Rbt.Receptor>
prm/pocket_docking_5.prm

>  <SCORE>
-40.569

>  <SCORE.INTER>
-40.9558

>  <SCORE.INTER.CONST>
1

>  <SCORE.INTER.POLAR>
-5.61128

>  <SCORE.INTER.ROT>
6

>  <SCORE.INTER.SOLV>
19.1993

>  <SCORE.INTER.VDW>
-22.5994

>  <SCORE.INTER.norm>
-1.32116

>  <SCORE.INTRA>
0.386857

>  <SCORE.INTRA.DIHEDRAL>
-11.9529

>  <SCORE.INTRA.DIHEDRAL.0>
28.0161

>  <SCORE.INTRA.POLAR>
0.986774

>  <SCORE.INTRA.POLAR.0>
-1.05798

>  <SCORE.INTRA.REPUL>
0

>  <SCORE.INTRA.REPUL.0>
0

>  <SCORE.INTRA.SOLV>
0.582734

>  <SCORE.INTRA.SOLV.lig_0>
-42.5945

>  <SCORE.INTRA.VDW>
2.7169

>  <SCORE.INTRA.VDW.0>
-5.13869

>  <SCORE.INTRA.norm>
0.0124793

>  <SCORE.RESTR>
0

>  <SCORE.RESTR.CAVITY>
0

>  <SCORE.RESTR.norm>
0

>  <SCORE.SYSTEM>
0

>  <SCORE.SYSTEM.CONST>
0

>  <SCORE.SYSTEM.DIHEDRAL>
0

>  <SCORE.SYSTEM.SOLV>
0

>  <SCORE.SYSTEM.norm>
0

>  <SCORE.heavy>
31

>  <SCORE.norm>
-1.30868

>  <RMSD>
5.604

$$$$
lig.pdb
 OpenBabel11021811453D
libRbt.so/2013.1/901 2013/11/27
 31 33  0  0  0  0  0  0  0  0999 V2000
    0.5420    7.4934    2.6743 O   0  0  0  0  0  0  0  0  0  0  0  0
    1.1567    6.2824    2.2797 C   0  0  0  0  0  0  0  0  0  0  0  0
    0.1382    5.1374    2.1960 C   0  0  1  0  0  0  0  0  0  0  0  0
    0.4316    4.2472    1.1308 O   0  0  0  0  0  0  0  0  0  0  0  0
   -0.0969    2.9578    1.4254 C   0  0  1  0  0  0  0  0  0  0  0  0
    0.8909    1.9638    1.1804 O   0  0  0  0  0  0  0  0  0  0  0  0
    0.4338    0.6829    0.7762 C   0  0  2  0  0  0  0  0  0  0  0  0
   -0.8069    0.8867   -0.1078 C   0  0  1  0  0  0  0  0  0  0  0  0
   -0.4238    1.4734   -1.3416 O   0  0  0  0  0  0  0  0  0  0  0  0
   -1.5636   -0.4099   -0.4337 C   0  0  2  0  0  0  0  0  0  0  0  0
   -2.7885   -0.1287   -1.1984 N   0  0  0  0  0  0  0  0  0  0  0  0
   -1.9268   -1.1319    0.8585 C   0  0  0  0  0  0  0  0  0  0  0  0
   -0.6659   -1.3886    1.6747 C   0  0  2  0  0  0  0  0  0  0  0  0
   -1.0377   -2.1313    2.8837 N   0  0  0  0  0  0  0  0  0  0  0  0
    0.0354   -0.0555    2.0137 C   0  0  1  0  0  0  0  0  0  0  0  0
    1.1886   -0.4153    2.7897 O   0  0  0  0  0  0  0  0  0  0  0  0
    1.6947    0.5624    3.6922 C   0  0  1  0  0  0  0  0  0  0  0  0
    0.8805    0.6395    4.8592 O   0  0  0  0  0  0  0  0  0  0  0  0
    0.9178   -0.4894    5.7296 C   0  0  2  0  0  0  0  0  0  0  0  0
   -0.0114   -0.2281    6.9225 C   0  0  0  0  0  0  0  0  0  0  0  0
    0.7345   -0.0851    8.1646 N   0  0  0  0  0  0  0  0  0  0  0  0
    2.3508   -0.7477    6.2310 C   0  0  1  0  0  0  0  0  0  0  0  0
    2.3719   -1.9066    7.0453 O   0  0  0  0  0  0  0  0  0  0  0  0
    3.2694   -0.9449    5.0186 C   0  0  2  0  0  0  0  0  0  0  0  0
    4.6106   -1.0975    5.4439 O   0  0  0  0  0  0  0  0  0  0  0  0
    3.1498    0.2393    4.0498 C   0  0  1  0  0  0  0  0  0  0  0  0
    3.9356   -0.0208    2.8350 N   0  0  0  0  0  0  0  0  0  0  0  0
   -0.4661    2.9585    2.9160 C   0  0  2  0  0  0  0  0  0  0  0  0
   -1.8740    2.9559    3.0620 O   0  0  0  0  0  0  0  0  0  0  0  0
    0.1900    4.2397    3.4282 C   0  0  2  0  0  0  0  0  0  0  0  0
   -0.4493    4.7920    4.5620 O   0  0  0  0  0  0  0  0  0  0  0  0
  2  1  1  0  0  0  0
  3  2  1  1  0  0  0
  3 30  1  0  0  0  0
  4  5  1  0  0  0  0
  4  3  1  0  0  0  0
  5 28  1  0  0  0  0
  5  6  1  1  0  0  0
  7  6  1  1  0  0  0
  8  7  1  0  0  0  0
  8  9  1  6  0  0  0
 10 11  1  1  0  0  0
 10  8  1  0  0  0  0
 12 10  1  0  0  0  0
 13 12  1  0  0  0  0
 13 15  1  0  0  0  0
 13 14  1  1  0  0  0
 15  7  1  0  0  0  0
 15 16  1  1  0  0  0
 17 16  1  6  0  0  0
 18 17  1  0  0  0  0
 19 20  1  1  0  0  0
 19 18  1  0  0  0  0
 20 21  1  0  0  0  0
 22 24  1  0  0  0  0
 22 19  1  0  0  0  0
 22 23  1  1  0  0  0
 24 25  1  1  0  0  0
 24 26  1  0  0  0  0
 26 17  1  0  0  0  0
 26 27  1  6  0  0  0
 28 29  1  6  0  0  0
 28 30  1  0  0  0  0
 30 31  1  1  0  0  0
M  END
>  <CHROM.1>
177.83906888,144.18494759,-149.74911570,35.17403174,53.25881846,145.93565967
45.03882279,85.02297742,76.74292047,-112.51698701,175.93188336,45.48546713
91.40581507,18.35840483,-175.64816007,-177.38790587,0.54859791,1.17749742
3.02130459,-2.50760130,1.07170717,-3.12737801

>  <Name>
lig.pdb

>  <RI>
1.55206e+07

>  <Rbt.Current_Directory>
/home/itssahil/PROJECTS/Mol_Feturizer/New_Systems/rnas/2n0j

>  <Rbt.Executable>
rbdock ($Id: //depot/dev/client3/rdock/2013.1/src/exe/rbdock.cxx#4 $)

>  <Rbt.Library>
libRbt.so (2013.1, Build901 2013/11/27)

>  <Rbt.Parameter_File>
/export/apps/rDock/src/rDock_2013.1_src/data/scripts/dock_solv.prm

>  <Rbt.Receptor>
prm/blind_docking_80.prm

>  <SCORE>
-27.6037

>  <SCORE.INTER>
-39.3301

>  <SCORE.INTER.CONST>
1

>  <SCORE.INTER.POLAR>
-6.41542

>  <SCORE.INTER.ROT>
6

>  <SCORE.INTER.SOLV>
24.5656

>  <SCORE.INTER.VDW>
-20.6239

>  <SCORE.INTER.norm>
-1.26871

>  <SCORE.INTRA>
9.47368

>  <SCORE.INTRA.DIHEDRAL>
1.70226

>  <SCORE.INTRA.DIHEDRAL.0>
28.0161

>  <SCORE.INTRA.POLAR>
0.800538

>  <SCORE.INTRA.POLAR.0>
-1.05798

>  <SCORE.INTRA.REPUL>
0

>  <SCORE.INTRA.REPUL.0>
0

>  <SCORE.INTRA.SOLV>
0.829356

>  <SCORE.INTRA.SOLV.lig_0>
-42.5945

>  <SCORE.INTRA.VDW>
5.48604

>  <SCORE.INTRA.VDW.0>
-5.13869

>  <SCORE.INTRA.norm>
0.305603

>  <SCORE.RESTR>
2.25276

>  <SCORE.RESTR.CAVITY>
2.25276

>  <SCORE.RESTR.norm>
0.0726698

>  <SCORE.SYSTEM>
0

>  <SCORE.SYSTEM.CONST>
0

>  <SCORE.SYSTEM.DIHEDRAL>
0

>  <SCORE.SYSTEM.SOLV>
0

>  <SCORE.SYSTEM.norm>
0

>  <SCORE.heavy>
31

>  <SCORE.norm>
-0.890441

>  <RMSD>
5.608

$$$$
lig.pdb
 OpenBabel11021811453D
libRbt.so/2013.1/901 2013/11/27
 31 33  0  0  0  0  0  0  0  0999 V2000
    1.4408    7.4176    2.9954 O   0  0  0  0  0  0  0  0  0  0  0  0
    1.6432    6.0849    2.5677 C   0  0  0  0  0  0  0  0  0  0  0  0
    0.3354    5.4477    2.0789 C   0  0  1  0  0  0  0  0  0  0  0  0
    0.5513    4.1602    1.5233 O   0  0  0  0  0  0  0  0  0  0  0  0
   -0.6360    3.3823    1.6425 C   0  0  1  0  0  0  0  0  0  0  0  0
   -0.3201    2.0961    2.1619 O   0  0  0  0  0  0  0  0  0  0  0  0
   -0.4293    0.9949    1.2740 C   0  0  2  0  0  0  0  0  0  0  0  0
   -1.8789    0.9460    0.7658 C   0  0  1  0  0  0  0  0  0  0  0  0
   -2.1225    2.0500   -0.0917 O   0  0  0  0  0  0  0  0  0  0  0  0
   -2.2245   -0.3280   -0.0201 C   0  0  2  0  0  0  0  0  0  0  0  0
   -3.6481   -0.3505   -0.3902 N   0  0  0  0  0  0  0  0  0  0  0  0
   -1.8999   -1.5558    0.8225 C   0  0  0  0  0  0  0  0  0  0  0  0
   -0.4361   -1.5164    1.2442 C   0  0  2  0  0  0  0  0  0  0  0  0
   -0.1385   -2.7343    2.0057 N   0  0  0  0  0  0  0  0  0  0  0  0
   -0.1477   -0.2416    2.0660 C   0  0  1  0  0  0  0  0  0  0  0  0
    1.2418   -0.3190    2.4192 O   0  0  0  0  0  0  0  0  0  0  0  0
    1.7074    0.5764    3.4231 C   0  0  1  0  0  0  0  0  0  0  0  0
    0.8154    0.5947    4.5342 O   0  0  0  0  0  0  0  0  0  0  0  0
    0.7632   -0.5939    5.3204 C   0  0  2  0  0  0  0  0  0  0  0  0
   -0.2407   -0.3904    6.4629 C   0  0  0  0  0  0  0  0  0  0  0  0
   -0.5858   -1.6497    7.1070 N   0  0  0  0  0  0  0  0  0  0  0  0
    2.1506   -0.9300    5.8983 C   0  0  1  0  0  0  0  0  0  0  0  0
    2.0855   -2.1439    6.6253 O   0  0  0  0  0  0  0  0  0  0  0  0
    3.1469   -1.0679    4.7403 C   0  0  2  0  0  0  0  0  0  0  0  0
    4.4507   -1.2905    5.2440 O   0  0  0  0  0  0  0  0  0  0  0  0
    3.1253    0.1852    3.8547 C   0  0  1  0  0  0  0  0  0  0  0  0
    3.9878   -0.0112    2.6807 N   0  0  0  0  0  0  0  0  0  0  0  0
   -1.5551    4.1216    2.6258 C   0  0  2  0  0  0  0  0  0  0  0  0
   -2.6550    4.6775    1.9297 O   0  0  0  0  0  0  0  0  0  0  0  0
   -0.6291    5.1765    3.2292 C   0  0  2  0  0  0  0  0  0  0  0  0
   -1.3048    6.3301    3.6894 O   0  0  0  0  0  0  0  0  0  0  0  0
  2  1  1  0  0  0  0
  3  2  1  1  0  0  0
  3 30  1  0  0  0  0
  4  5  1  0  0  0  0
  4  3  1  0  0  0  0
  5 28  1  0  0  0  0
  5  6  1  1  0  0  0
  7  6  1  1  0  0  0
  8  7  1  0  0  0  0
  8  9  1  6  0  0  0
 10 11  1  1  0  0  0
 10  8  1  0  0  0  0
 12 10  1  0  0  0  0
 13 12  1  0  0  0  0
 13 15  1  0  0  0  0
 13 14  1  1  0  0  0
 15  7  1  0  0  0  0
 15 16  1  6  0  0  0
 17 16  1  6  0  0  0
 18 17  1  0  0  0  0
 19 20  1  1  0  0  0
 19 18  1  0  0  0  0
 20 21  1  0  0  0  0
 22 24  1  0  0  0  0
 22 19  1  0  0  0  0
 22 23  1  6  0  0  0
 24 25  1  1  0  0  0
 24 26  1  0  0  0  0
 26 17  1  0  0  0  0
 26 27  1  6  0  0  0
 28 29  1  6  0  0  0
 28 30  1  0  0  0  0
 30 31  1  6  0  0  0
M  END
>  <CHROM.1>
-57.69951107,174.08004835,-109.60332054,-58.72141864,-159.43837124,-176.01266532
17.21995381,72.64559324,46.24416739,166.21339059,62.12505016,178.82848608
174.98007448,151.77064242,-66.02061024,-172.94336095,0.21312766,1.26654092
2.93326760,-2.07631638,0.78138940,3.09060872

>  <Name>
lig.pdb

>  <RI>
0

>  <Rbt.Current_Directory>
/home/itssahil/PROJECTS/Mol_Feturizer/New_Systems/rnas/2n0j

>  <Rbt.Executable>
rbdock ($Id: //depot/dev/client3/rdock/2013.1/src/exe/rbdock.cxx#4 $)

>  <Rbt.Library>
libRbt.so (2013.1, Build901 2013/11/27)

>  <Rbt.Parameter_File>
/export/apps/rDock/src/rDock_2013.1_src/data/scripts/dock_solv.prm

>  <Rbt.Receptor>
prm/blind_docking_60.prm

>  <SCORE>
-32.8934

>  <SCORE.INTER>
-35.3695

>  <SCORE.INTER.CONST>
1

>  <SCORE.INTER.POLAR>
-4.2809

>  <SCORE.INTER.ROT>
6

>  <SCORE.INTER.SOLV>
23.7367

>  <SCORE.INTER.VDW>
-24.8223

>  <SCORE.INTER.norm>
-1.14095

>  <SCORE.INTRA>
0.335463

>  <SCORE.INTRA.DIHEDRAL>
-11.5472

>  <SCORE.INTRA.DIHEDRAL.0>
28.0161

>  <SCORE.INTRA.POLAR>
0.55417

>  <SCORE.INTRA.POLAR.0>
-1.05798

>  <SCORE.INTRA.REPUL>
0

>  <SCORE.INTRA.REPUL.0>
0

>  <SCORE.INTRA.SOLV>
0.822618

>  <SCORE.INTRA.SOLV.lig_0>
-42.5945

>  <SCORE.INTRA.VDW>
3.8136

>  <SCORE.INTRA.VDW.0>
-5.13869

>  <SCORE.INTRA.norm>
0.0108214

>  <SCORE.RESTR>
2.14069

>  <SCORE.RESTR.CAVITY>
2.14069

>  <SCORE.RESTR.norm>
0.0690546

>  <SCORE.SYSTEM>
0

>  <SCORE.SYSTEM.CONST>
0

>  <SCORE.SYSTEM.DIHEDRAL>
0

>  <SCORE.SYSTEM.SOLV>
0

>  <SCORE.SYSTEM.norm>
0

>  <SCORE.heavy>
31

>  <SCORE.norm>
-1.06108

>  <RMSD>
5.610

$$$$
lig.pdb
 OpenBabel11021811453D
libRbt.so/2013.1/901 2013/11/27
 31 33  0  0  0  0  0  0  0  0999 V2000
    0.7400    3.0847   11.0325 O   0  0  0  0  0  0  0  0  0  0  0  0
    0.5418    3.4917    9.6927 C   0  0  0  0  0  0  0  0  0  0  0  0
   -0.8881    4.0013    9.4668 C   0  0  1  0  0  0  0  0  0  0  0  0
   -1.0718    4.4896    8.1474 O   0  0  0  0  0  0  0  0  0  0  0  0
   -2.4447    4.3813    7.7839 C   0  0  1  0  0  0  0  0  0  0  0  0
   -2.5574    3.7926    6.4937 O   0  0  0  0  0  0  0  0  0  0  0  0
   -1.9439    4.4782    5.4136 C   0  0  2  0  0  0  0  0  0  0  0  0
   -2.7364    5.7726    5.1709 C   0  0  1  0  0  0  0  0  0  0  0  0
   -2.5315    6.6684    6.2520 O   0  0  0  0  0  0  0  0  0  0  0  0
   -2.3462    6.5137    3.8830 C   0  0  2  0  0  0  0  0  0  0  0  0
   -3.2083    7.6858    3.6663 N   0  0  0  0  0  0  0  0  0  0  0  0
   -2.4633    5.5705    2.6915 C   0  0  0  0  0  0  0  0  0  0  0  0
   -1.6047    4.3344    2.9293 C   0  0  2  0  0  0  0  0  0  0  0  0
   -1.6932    3.4720    1.7460 N   0  0  0  0  0  0  0  0  0  0  0  0
   -2.0614    3.6008    4.2088 C   0  0  1  0  0  0  0  0  0  0  0  0
   -1.2020    2.4562    4.3222 O   0  0  0  0  0  0  0  0  0  0  0  0
   -1.7444    1.1966    3.9401 C   0  0  1  0  0  0  0  0  0  0  0  0
   -0.9916    0.6275    2.8725 O   0  0  0  0  0  0  0  0  0  0  0  0
    0.3305    0.1990    3.1918 C   0  0  2  0  0  0  0  0  0  0  0  0
    0.9824   -0.3834    1.9306 C   0  0  0  0  0  0  0  0  0  0  0  0
    0.8508    0.5152    0.7926 N   0  0  0  0  0  0  0  0  0  0  0  0
    0.3080   -0.8639    4.3060 C   0  0  1  0  0  0  0  0  0  0  0  0
    1.6336   -1.2300    4.6456 O   0  0  0  0  0  0  0  0  0  0  0  0
   -0.4020   -0.2775    5.5326 C   0  0  2  0  0  0  0  0  0  0  0  0
   -0.5167   -1.2602    6.5445 O   0  0  0  0  0  0  0  0  0  0  0  0
   -1.7887    0.2583    5.1514 C   0  0  1  0  0  0  0  0  0  0  0  0
   -2.4048    0.9304    6.3043 N   0  0  0  0  0  0  0  0  0  0  0  0
   -3.1096    3.4686    8.8246 C   0  0  2  0  0  0  0  0  0  0  0  0
   -3.9654    4.2310    9.6551 O   0  0  0  0  0  0  0  0  0  0  0  0
   -1.9148    2.8781    9.5717 C   0  0  2  0  0  0  0  0  0  0  0  0
   -2.2075    2.4968   10.9014 O   0  0  0  0  0  0  0  0  0  0  0  0
  2  1  1  0  0  0  0
  3  2  1  6  0  0  0
  3 30  1  0  0  0  0
  4  5  1  0  0  0  0
  4  3  1  0  0  0  0
  5 28  1  0  0  0  0
  5  6  1  6  0  0  0
  7  6  1  1  0  0  0
  8  7  1  0  0  0  0
  8  9  1  1  0  0  0
 10 11  1  6  0  0  0
 10  8  1  0  0  0  0
 12 10  1  0  0  0  0
 13 12  1  0  0  0  0
 13 15  1  0  0  0  0
 13 14  1  6  0  0  0
 15  7  1  0  0  0  0
 15 16  1  1  0  0  0
 17 16  1  1  0  0  0
 18 17  1  0  0  0  0
 19 20  1  6  0  0  0
 19 18  1  0  0  0  0
 20 21  1  0  0  0  0
 22 24  1  0  0  0  0
 22 19  1  0  0  0  0
 22 23  1  1  0  0  0
 24 25  1  1  0  0  0
 24 26  1  0  0  0  0
 26 17  1  0  0  0  0
 26 27  1  1  0  0  0
 28 29  1  1  0  0  0
 28 30  1  0  0  0  0
 30 31  1  1  0  0  0
M  END
>  <CHROM.1>
-58.31424404,176.32831252,-60.35717182,-69.04461368,-174.80522710,93.66689798
-29.37861772,136.45903365,119.84595246,50.08783109,-88.93134238,-65.43691902
166.65462565,78.41313421,-58.97438031,-175.39345757,-1.36425470,2.78932003
5.73684823,-2.23172208,1.14371868,-1.50456208

>  <Name>
lig.pdb

>  <RI>
2.74555e+07

>  <Rbt.Current_Directory>
/home/itssahil/PROJECTS/Mol_Feturizer/New_Systems/rnas/2n0j

>  <Rbt.Executable>
rbdock ($Id: //depot/dev/client3/rdock/2013.1/src/exe/rbdock.cxx#4 $)

>  <Rbt.Library>
libRbt.so (2013.1, Build901 2013/11/27)

>  <Rbt.Parameter_File>
/export/apps/rDock/src/rDock_2013.1_src/data/scripts/dock_solv.prm

>  <Rbt.Receptor>
prm/pocket_docking_6.prm

>  <SCORE>
-35.7432

>  <SCORE.INTER>
-34.0855

>  <SCORE.INTER.CONST>
1

>  <SCORE.INTER.POLAR>
-4.50274

>  <SCORE.INTER.ROT>
6

>  <SCORE.INTER.SOLV>
12.4347

>  <SCORE.INTER.VDW>
-19.4595

>  <SCORE.INTER.norm>
-1.09953

>  <SCORE.INTRA>
-1.65768

>  <SCORE.INTRA.DIHEDRAL>
-6.01148

>  <SCORE.INTRA.DIHEDRAL.0>
28.0161

>  <SCORE.INTRA.POLAR>
-0.704244

>  <SCORE.INTRA.POLAR.0>
-1.05798

>  <SCORE.INTRA.REPUL>
0

>  <SCORE.INTRA.REPUL.0>
0

>  <SCORE.INTRA.SOLV>
0.343647

>  <SCORE.INTRA.SOLV.lig_0>
-42.5945

>  <SCORE.INTRA.VDW>
3.57067

>  <SCORE.INTRA.VDW.0>
-5.13869

>  <SCORE.INTRA.norm>
-0.0534734

>  <SCORE.RESTR>
0

>  <SCORE.RESTR.CAVITY>
0

>  <SCORE.RESTR.norm>
0

>  <SCORE.SYSTEM>
0

>  <SCORE.SYSTEM.CONST>
0

>  <SCORE.SYSTEM.DIHEDRAL>
0

>  <SCORE.SYSTEM.SOLV>
0

>  <SCORE.SYSTEM.norm>
0

>  <SCORE.heavy>
31

>  <SCORE.norm>
-1.15301

>  <RMSD>
5.611

$$$$
lig.pdb
 OpenBabel11021811453D
libRbt.so/2013.1/901 2013/11/27
 31 33  0  0  0  0  0  0  0  0999 V2000
    0.4485    7.7406    1.8674 O   0  0  0  0  0  0  0  0  0  0  0  0
    0.7444    6.4016    2.2131 C   0  0  0  0  0  0  0  0  0  0  0  0
   -0.4239    5.4644    1.8784 C   0  0  1  0  0  0  0  0  0  0  0  0
    0.0204    4.2681    1.2583 O   0  0  0  0  0  0  0  0  0  0  0  0
   -0.9165    3.2242    1.5058 C   0  0  1  0  0  0  0  0  0  0  0  0
   -0.2324    2.0542    1.9381 O   0  0  0  0  0  0  0  0  0  0  0  0
   -0.4274    0.8724    1.1777 C   0  0  2  0  0  0  0  0  0  0  0  0
   -1.8398    0.9320    0.5747 C   0  0  1  0  0  0  0  0  0  0  0  0
   -1.8927    1.9427   -0.4199 O   0  0  0  0  0  0  0  0  0  0  0  0
   -2.2965   -0.3797   -0.0818 C   0  0  2  0  0  0  0  0  0  0  0  0
   -3.6878   -0.2800   -0.5491 N   0  0  0  0  0  0  0  0  0  0  0  0
   -2.1779   -1.5236    0.9183 C   0  0  0  0  0  0  0  0  0  0  0  0
   -0.7477   -1.6050    1.4376 C   0  0  2  0  0  0  0  0  0  0  0  0
   -0.6500   -2.7460    2.3543 N   0  0  0  0  0  0  0  0  0  0  0  0
   -0.3496   -0.2813    2.1255 C   0  0  1  0  0  0  0  0  0  0  0  0
    0.9964   -0.4776    2.5851 O   0  0  0  0  0  0  0  0  0  0  0  0
    1.4968    0.4487    3.5433 C   0  0  1  0  0  0  0  0  0  0  0  0
    0.6566    0.4861    4.6937 O   0  0  0  0  0  0  0  0  0  0  0  0
    0.6551   -0.6821    5.5115 C   0  0  2  0  0  0  0  0  0  0  0  0
   -0.2976   -0.4599    6.6937 C   0  0  0  0  0  0  0  0  0  0  0  0
   -0.7274   -1.7201    7.2829 N   0  0  0  0  0  0  0  0  0  0  0  0
    2.0715   -0.9879    6.0329 C   0  0  1  0  0  0  0  0  0  0  0  0
    2.0545   -2.1832    6.7928 O   0  0  0  0  0  0  0  0  0  0  0  0
    3.0151   -1.1450    4.8340 C   0  0  2  0  0  0  0  0  0  0  0  0
    4.3433   -1.3402    5.2823 O   0  0  0  0  0  0  0  0  0  0  0  0
    2.9377    0.0843    3.9186 C   0  0  1  0  0  0  0  0  0  0  0  0
    3.7476   -0.1331    2.7114 N   0  0  0  0  0  0  0  0  0  0  0  0
   -1.8468    3.7176    2.6236 C   0  0  2  0  0  0  0  0  0  0  0  0
   -3.1316    3.9879    2.0947 O   0  0  0  0  0  0  0  0  0  0  0  0
   -1.1311    4.9668    3.1350 C   0  0  2  0  0  0  0  0  0  0  0  0
   -1.9978    5.9209    3.7160 O   0  0  0  0  0  0  0  0  0  0  0  0
  2  1  1  0  0  0  0
  3  2  1  1  0  0  0
  3 30  1  0  0  0  0
  4  5  1  0  0  0  0
  4  3  1  0  0  0  0
  5 28  1  0  0  0  0
  5  6  1  1  0  0  0
  7  6  1  1  0  0  0
  8  7  1  0  0  0  0
  8  9  1  6  0  0  0
 10 11  1  1  0  0  0
 10  8  1  0  0  0  0
 12 10  1  0  0  0  0
 13 12  1  0  0  0  0
 13 15  1  0  0  0  0
 13 14  1  1  0  0  0
 15  7  1  0  0  0  0
 15 16  1  6  0  0  0
 17 16  1  6  0  0  0
 18 17  1  0  0  0  0
 19 20  1  1  0  0  0
 19 18  1  0  0  0  0
 20 21  1  0  0  0  0
 22 24  1  0  0  0  0
 22 19  1  0  0  0  0
 22 23  1  6  0  0  0
 24 25  1  1  0  0  0
 24 26  1  0  0  0  0
 26 17  1  0  0  0  0
 26 27  1  6  0  0  0
 28 29  1  6  0  0  0
 28 30  1  0  0  0  0
 30 31  1  6  0  0  0
M  END
>  <CHROM.1>
-43.49327523,135.95554817,-122.75768772,-30.30839717,73.26963336,-168.14077022
55.30738707,74.65024231,56.54693974,159.18877220,63.58357262,173.80504459
-71.23142293,-89.30930346,-177.67313214,-176.94204516,-0.05314661,1.18303911
2.90742575,-2.17817610,0.83267297,3.09476141

>  <Name>
lig.pdb

>  <RI>
1.79691e+07

>  <Rbt.Current_Directory>
/home/itssahil/PROJECTS/Mol_Feturizer/New_Systems/rnas/2n0j

>  <Rbt.Executable>
rbdock ($Id: //depot/dev/client3/rdock/2013.1/src/exe/rbdock.cxx#4 $)

>  <Rbt.Library>
libRbt.so (2013.1, Build901 2013/11/27)

>  <Rbt.Parameter_File>
/export/apps/rDock/src/rDock_2013.1_src/data/scripts/dock_solv.prm

>  <Rbt.Receptor>
prm/blind_docking_20.prm

>  <SCORE>
-25.2527

>  <SCORE.INTER>
-34.5317

>  <SCORE.INTER.CONST>
1

>  <SCORE.INTER.POLAR>
-4.63352

>  <SCORE.INTER.ROT>
6

>  <SCORE.INTER.SOLV>
22.2069

>  <SCORE.INTER.VDW>
-22.5784

>  <SCORE.INTER.norm>
-1.11393

>  <SCORE.INTRA>
6.42322

>  <SCORE.INTRA.DIHEDRAL>
-5.10534

>  <SCORE.INTRA.DIHEDRAL.0>
28.0161

>  <SCORE.INTRA.POLAR>
0.592204

>  <SCORE.INTRA.POLAR.0>
-1.05798

>  <SCORE.INTRA.REPUL>
0

>  <SCORE.INTRA.REPUL.0>
0

>  <SCORE.INTRA.SOLV>
0.411456

>  <SCORE.INTRA.SOLV.lig_0>
-42.5945

>  <SCORE.INTRA.VDW>
6.75667

>  <SCORE.INTRA.VDW.0>
-5.13869

>  <SCORE.INTRA.norm>
0.207201

>  <SCORE.RESTR>
2.85577

>  <SCORE.RESTR.CAVITY>
2.85577

>  <SCORE.RESTR.norm>
0.0921216

>  <SCORE.SYSTEM>
0

>  <SCORE.SYSTEM.CONST>
0

>  <SCORE.SYSTEM.DIHEDRAL>
0

>  <SCORE.SYSTEM.SOLV>
0

>  <SCORE.SYSTEM.norm>
0

>  <SCORE.heavy>
31

>  <SCORE.norm>
-0.814605

>  <RMSD>
5.614

$$$$
lig.pdb
 OpenBabel11021811453D
libRbt.so/2013.1/901 2013/11/27
 31 33  0  0  0  0  0  0  0  0999 V2000
   -3.9137    1.1235   -0.3140 O   0  0  0  0  0  0  0  0  0  0  0  0
   -2.6702    0.9692   -0.9698 C   0  0  0  0  0  0  0  0  0  0  0  0
   -1.8585   -0.1864   -0.3689 C   0  0  1  0  0  0  0  0  0  0  0  0
   -0.9917    0.2582    0.6625 O   0  0  0  0  0  0  0  0  0  0  0  0
   -0.7330   -0.8129    1.5651 C   0  0  1  0  0  0  0  0  0  0  0  0
   -0.9007   -0.3660    2.9052 O   0  0  0  0  0  0  0  0  0  0  0  0
   -0.3581   -1.1811    3.9319 C   0  0  2  0  0  0  0  0  0  0  0  0
   -1.5320   -1.7952    4.7110 C   0  0  1  0  0  0  0  0  0  0  0  0
   -2.2028   -2.7435    3.8960 O   0  0  0  0  0  0  0  0  0  0  0  0
   -1.1178   -2.5151    6.0034 C   0  0  2  0  0  0  0  0  0  0  0  0
   -2.2965   -2.9915    6.7436 N   0  0  0  0  0  0  0  0  0  0  0  0
   -0.3143   -1.5666    6.8853 C   0  0  0  0  0  0  0  0  0  0  0  0
    0.8854   -1.0369    6.1092 C   0  0  2  0  0  0  0  0  0  0  0  0
    1.6689   -0.1719    6.9977 N   0  0  0  0  0  0  0  0  0  0  0  0
    0.4178   -0.2858    4.8439 C   0  0  1  0  0  0  0  0  0  0  0  0
    1.6183    0.1783    4.2077 O   0  0  0  0  0  0  0  0  0  0  0  0
    1.5422    0.4793    2.8183 C   0  0  1  0  0  0  0  0  0  0  0  0
    0.5407    1.4622    2.5705 O   0  0  0  0  0  0  0  0  0  0  0  0
    0.8124    2.7753    3.0555 C   0  0  2  0  0  0  0  0  0  0  0  0
   -0.3660    3.6909    2.6981 C   0  0  0  0  0  0  0  0  0  0  0  0
   -1.0308    3.2606    1.4764 N   0  0  0  0  0  0  0  0  0  0  0  0
    2.1100    3.3298    2.4386 C   0  0  1  0  0  0  0  0  0  0  0  0
    2.3891    4.6089    2.9793 O   0  0  0  0  0  0  0  0  0  0  0  0
    3.2593    2.3658    2.7585 C   0  0  2  0  0  0  0  0  0  0  0  0
    4.4500    2.8026    2.1304 O   0  0  0  0  0  0  0  0  0  0  0  0
    2.9122    0.9403    2.3083 C   0  0  1  0  0  0  0  0  0  0  0  0
    3.9641    0.0061    2.7341 N   0  0  0  0  0  0  0  0  0  0  0  0
   -1.7610   -1.9115    1.2576 C   0  0  2  0  0  0  0  0  0  0  0  0
   -1.1180   -3.0124    0.6427 O   0  0  0  0  0  0  0  0  0  0  0  0
   -2.7520   -1.2017    0.3365 C   0  0  2  0  0  0  0  0  0  0  0  0
   -3.4317   -2.0722   -0.5463 O   0  0  0  0  0  0  0  0  0  0  0  0
  2  1  1  0  0  0  0
  3  2  1  1  0  0  0
  3 30  1  0  0  0  0
  4  5  1  0  0  0  0
  4  3  1  0  0  0  0
  5 28  1  0  0  0  0
  5  6  1  1  0  0  0
  7  6  1  6  0  0  0
  8  7  1  0  0  0  0
  8  9  1  6  0  0  0
 10 11  1  1  0  0  0
 10  8  1  0  0  0  0
 12 10  1  0  0  0  0
 13 12  1  0  0  0  0
 13 15  1  0  0  0  0
 13 14  1  1  0  0  0
 15  7  1  0  0  0  0
 15 16  1  6  0  0  0
 17 16  1  1  0  0  0
 18 17  1  0  0  0  0
 19 20  1  6  0  0  0
 19 18  1  0  0  0  0
 20 21  1  0  0  0  0
 22 24  1  0  0  0  0
 22 19  1  0  0  0  0
 22 23  1  1  0  0  0
 24 25  1  6  0  0  0
 24 26  1  0  0  0  0
 26 17  1  0  0  0  0
 26 27  1  1  0  0  0
 28 29  1  6  0  0  0
 28 30  1  0  0  0  0
 30 31  1  6  0  0  0
M  END
>  <CHROM.1>
-71.86069306,-91.98782301,-164.14200027,-110.96287651,-166.83985887,166.63268684
66.19735164,37.51405779,57.38449214,-29.59453907,37.07761358,-170.50163465
170.38657591,68.32855903,166.67824441,-170.69257944,-0.10031243,0.14213231
2.80565499,2.99969042,0.67661794,2.18603541

>  <Name>
lig.pdb

>  <RI>
1.55206e+07

>  <Rbt.Current_Directory>
/home/itssahil/PROJECTS/Mol_Feturizer/New_Systems/rnas/2n0j

>  <Rbt.Executable>
rbdock ($Id: //depot/dev/client3/rdock/2013.1/src/exe/rbdock.cxx#4 $)

>  <Rbt.Library>
libRbt.so (2013.1, Build901 2013/11/27)

>  <Rbt.Parameter_File>
/export/apps/rDock/src/rDock_2013.1_src/data/scripts/dock_solv.prm

>  <Rbt.Receptor>
prm/blind_docking_80.prm

>  <SCORE>
-31.944

>  <SCORE.INTER>
-40.551

>  <SCORE.INTER.CONST>
1

>  <SCORE.INTER.POLAR>
-5.74679

>  <SCORE.INTER.ROT>
6

>  <SCORE.INTER.SOLV>
24.8034

>  <SCORE.INTER.VDW>
-23.7458

>  <SCORE.INTER.norm>
-1.3081

>  <SCORE.INTRA>
5.51904

>  <SCORE.INTRA.DIHEDRAL>
-6.48531

>  <SCORE.INTRA.DIHEDRAL.0>
28.0161

>  <SCORE.INTRA.POLAR>
-0.196302

>  <SCORE.INTRA.POLAR.0>
-1.05798

>  <SCORE.INTRA.REPUL>
0.407623

>  <SCORE.INTRA.REPUL.0>
0

>  <SCORE.INTRA.SOLV>
1.99244

>  <SCORE.INTRA.SOLV.lig_0>
-42.5945

>  <SCORE.INTRA.VDW>
6.39478

>  <SCORE.INTRA.VDW.0>
-5.13869

>  <SCORE.INTRA.norm>
0.178034

>  <SCORE.RESTR>
3.08792

>  <SCORE.RESTR.CAVITY>
3.08792

>  <SCORE.RESTR.norm>
0.0996103

>  <SCORE.SYSTEM>
0

>  <SCORE.SYSTEM.CONST>
0

>  <SCORE.SYSTEM.DIHEDRAL>
0

>  <SCORE.SYSTEM.SOLV>
0

>  <SCORE.SYSTEM.norm>
0

>  <SCORE.heavy>
31

>  <SCORE.norm>
-1.03045

>  <RMSD>
5.625

$$$$
lig.pdb
 OpenBabel11021811453D
libRbt.so/2013.1/901 2013/11/27
 31 33  0  0  0  0  0  0  0  0999 V2000
    2.3315    5.2072    2.9305 O   0  0  0  0  0  0  0  0  0  0  0  0
    1.0211    5.7361    2.9871 C   0  0  0  0  0  0  0  0  0  0  0  0
   -0.0277    4.6767    2.6226 C   0  0  1  0  0  0  0  0  0  0  0  0
    0.3159    3.9809    1.4349 O   0  0  0  0  0  0  0  0  0  0  0  0
   -0.2794    2.6870    1.4489 C   0  0  1  0  0  0  0  0  0  0  0  0
    0.6885    1.7065    1.0947 O   0  0  0  0  0  0  0  0  0  0  0  0
    0.2055    0.4266    0.7186 C   0  0  2  0  0  0  0  0  0  0  0  0
   -1.0811    0.6333   -0.0964 C   0  0  1  0  0  0  0  0  0  0  0  0
   -0.7641    1.2165   -1.3505 O   0  0  0  0  0  0  0  0  0  0  0  0
   -1.8589   -0.6612   -0.3780 C   0  0  2  0  0  0  0  0  0  0  0  0
   -3.1229   -0.3770   -1.0749 N   0  0  0  0  0  0  0  0  0  0  0  0
   -2.1532   -1.3797    0.9336 C   0  0  0  0  0  0  0  0  0  0  0  0
   -0.8504   -1.6394    1.6799 C   0  0  2  0  0  0  0  0  0  0  0  0
   -1.1579   -2.3787    2.9090 N   0  0  0  0  0  0  0  0  0  0  0  0
   -0.1269   -0.3083    1.9774 C   0  0  1  0  0  0  0  0  0  0  0  0
    1.0658   -0.6709    2.6898 O   0  0  0  0  0  0  0  0  0  0  0  0
    1.5486    0.2524    3.6600 C   0  0  1  0  0  0  0  0  0  0  0  0
    0.7678    0.1860    4.8502 O   0  0  0  0  0  0  0  0  0  0  0  0
    0.8898   -1.0092    5.6183 C   0  0  2  0  0  0  0  0  0  0  0  0
   -0.0144   -0.9007    6.8534 C   0  0  0  0  0  0  0  0  0  0  0  0
    0.3269    0.2550    7.6705 N   0  0  0  0  0  0  0  0  0  0  0  0
    2.3490   -1.2317    6.0576 C   0  0  1  0  0  0  0  0  0  0  0  0
    2.4546   -2.4529    6.7677 O   0  0  0  0  0  0  0  0  0  0  0  0
    3.2387   -1.2754    4.8091 C   0  0  2  0  0  0  0  0  0  0  0  0
    4.5984   -1.3913    5.1842 O   0  0  0  0  0  0  0  0  0  0  0  0
    3.0287   -0.0213    3.9498 C   0  0  1  0  0  0  0  0  0  0  0  0
    3.7890   -0.1345    2.6969 N   0  0  0  0  0  0  0  0  0  0  0  0
   -0.7633    2.4358    2.8845 C   0  0  2  0  0  0  0  0  0  0  0  0
   -2.1775    2.4760    2.9286 O   0  0  0  0  0  0  0  0  0  0  0  0
   -0.1040    3.5692    3.6688 C   0  0  2  0  0  0  0  0  0  0  0  0
   -0.8096    3.9376    4.8374 O   0  0  0  0  0  0  0  0  0  0  0  0
  2  1  1  0  0  0  0
  3  2  1  1  0  0  0
  3 30  1  0  0  0  0
  4  5  1  0  0  0  0
  4  3  1  0  0  0  0
  5 28  1  0  0  0  0
  5  6  1  1  0  0  0
  7  6  1  1  0  0  0
  8  7  1  0  0  0  0
  8  9  1  6  0  0  0
 10 11  1  1  0  0  0
 10  8  1  0  0  0  0
 12 10  1  0  0  0  0
 13 12  1  0  0  0  0
 13 15  1  0  0  0  0
 13 14  1  1  0  0  0
 15  7  1  0  0  0  0
 15 16  1  6  0  0  0
 17 16  1  6  0  0  0
 18 17  1  0  0  0  0
 19 20  1  1  0  0  0
 19 18  1  0  0  0  0
 20 21  1  0  0  0  0
 22 24  1  0  0  0  0
 22 19  1  0  0  0  0
 22 23  1  6  0  0  0
 24 25  1  1  0  0  0
 24 26  1  0  0  0  0
 26 17  1  0  0  0  0
 26 27  1  6  0  0  0
 28 29  1  6  0  0  0
 28 30  1  0  0  0  0
 30 31  1  1  0  0  0
M  END
>  <CHROM.1>
59.29684858,-48.08117530,-163.92792949,37.88985146,-40.31057057,147.15265142
168.95804449,91.15200296,76.80323526,-58.24227529,84.46254395,177.88571445
-67.83110267,40.05376966,-174.70714477,-67.42108925,0.44615063,0.76977273
3.02380292,-2.64005484,0.98227905,3.07004055

>  <Name>
lig.pdb

>  <RI>
9.20816e+06

>  <Rbt.Current_Directory>
/home/itssahil/PROJECTS/Mol_Feturizer/New_Systems/rnas/2n0j

>  <Rbt.Executable>
rbdock ($Id: //depot/dev/client3/rdock/2013.1/src/exe/rbdock.cxx#4 $)

>  <Rbt.Library>
libRbt.so (2013.1, Build901 2013/11/27)

>  <Rbt.Parameter_File>
/export/apps/rDock/src/rDock_2013.1_src/data/scripts/dock_solv.prm

>  <Rbt.Receptor>
prm/blind_docking_100.prm

>  <SCORE>
-29.462

>  <SCORE.INTER>
-34.7008

>  <SCORE.INTER.CONST>
1

>  <SCORE.INTER.POLAR>
-3.47665

>  <SCORE.INTER.ROT>
6

>  <SCORE.INTER.SOLV>
23.5387

>  <SCORE.INTER.VDW>
-26.9913

>  <SCORE.INTER.norm>
-1.11938

>  <SCORE.INTRA>
1.66659

>  <SCORE.INTRA.DIHEDRAL>
-11.6969

>  <SCORE.INTRA.DIHEDRAL.0>
28.0161

>  <SCORE.INTRA.POLAR>
1.02059

>  <SCORE.INTRA.POLAR.0>
-1.05798

>  <SCORE.INTRA.REPUL>
0

>  <SCORE.INTRA.REPUL.0>
0

>  <SCORE.INTRA.SOLV>
0.879076

>  <SCORE.INTRA.SOLV.lig_0>
-42.5945

>  <SCORE.INTRA.VDW>
3.60552

>  <SCORE.INTRA.VDW.0>
-5.13869

>  <SCORE.INTRA.norm>
0.0537611

>  <SCORE.RESTR>
3.57228

>  <SCORE.RESTR.CAVITY>
3.57228

>  <SCORE.RESTR.norm>
0.115235

>  <SCORE.SYSTEM>
0

>  <SCORE.SYSTEM.CONST>
0

>  <SCORE.SYSTEM.DIHEDRAL>
0

>  <SCORE.SYSTEM.SOLV>
0

>  <SCORE.SYSTEM.norm>
0

>  <SCORE.heavy>
31

>  <SCORE.norm>
-0.950386

>  <RMSD>
5.637

$$$$
lig.pdb
 OpenBabel11021811453D
libRbt.so/2013.1/901 2013/11/27
 31 33  0  0  0  0  0  0  0  0999 V2000
    1.8225    7.3421    3.0063 O   0  0  0  0  0  0  0  0  0  0  0  0
    1.9047    5.9413    2.8297 C   0  0  0  0  0  0  0  0  0  0  0  0
    0.6353    5.3832    2.1722 C   0  0  1  0  0  0  0  0  0  0  0  0
    0.8413    4.0807    1.6488 O   0  0  0  0  0  0  0  0  0  0  0  0
   -0.3977    3.3791    1.6098 C   0  0  1  0  0  0  0  0  0  0  0  0
   -0.2342    2.0796    2.1652 O   0  0  0  0  0  0  0  0  0  0  0  0
   -0.3698    0.9769    1.2828 C   0  0  2  0  0  0  0  0  0  0  0  0
   -1.8133    0.9749    0.7552 C   0  0  1  0  0  0  0  0  0  0  0  0
   -2.0068    2.0809   -0.1124 O   0  0  0  0  0  0  0  0  0  0  0  0
   -2.1924   -0.2916   -0.0273 C   0  0  2  0  0  0  0  0  0  0  0  0
   -3.6109   -0.2672   -0.4165 N   0  0  0  0  0  0  0  0  0  0  0  0
   -1.9220   -1.5242    0.8274 C   0  0  0  0  0  0  0  0  0  0  0  0
   -0.4636   -1.5328    1.2686 C   0  0  2  0  0  0  0  0  0  0  0  0
   -0.2188   -2.7551    2.0418 N   0  0  0  0  0  0  0  0  0  0  0  0
   -0.1420   -0.2632    2.0863 C   0  0  1  0  0  0  0  0  0  0  0  0
    1.2391   -0.3865    2.4588 O   0  0  0  0  0  0  0  0  0  0  0  0
    1.7301    0.5197    3.4408 C   0  0  1  0  0  0  0  0  0  0  0  0
    0.9003    0.5047    4.5992 O   0  0  0  0  0  0  0  0  0  0  0  0
    0.9296   -0.6880    5.3803 C   0  0  2  0  0  0  0  0  0  0  0  0
   -0.0161   -0.5216    6.5772 C   0  0  0  0  0  0  0  0  0  0  0  0
    0.6675    0.0516    7.7278 N   0  0  0  0  0  0  0  0  0  0  0  0
    2.3567   -0.9811    5.8794 C   0  0  1  0  0  0  0  0  0  0  0  0
    2.3707   -2.1994    6.6020 O   0  0  0  0  0  0  0  0  0  0  0  0
    3.2919   -1.0821    4.6679 C   0  0  2  0  0  0  0  0  0  0  0  0
    4.6278   -1.2643    5.0982 O   0  0  0  0  0  0  0  0  0  0  0  0
    3.1814    0.1730    3.7919 C   0  0  1  0  0  0  0  0  0  0  0  0
    3.9840    0.0093    2.5714 N   0  0  0  0  0  0  0  0  0  0  0  0
   -1.3901    4.1814    2.4639 C   0  0  2  0  0  0  0  0  0  0  0  0
   -2.3518    4.7995    1.6293 O   0  0  0  0  0  0  0  0  0  0  0  0
   -0.4873    5.1811    3.1851 C   0  0  2  0  0  0  0  0  0  0  0  0
   -1.1441    6.3779    3.5531 O   0  0  0  0  0  0  0  0  0  0  0  0
  2  1  1  0  0  0  0
  3  2  1  1  0  0  0
  3 30  1  0  0  0  0
  4  5  1  0  0  0  0
  4  3  1  0  0  0  0
  5 28  1  0  0  0  0
  5  6  1  1  0  0  0
  7  6  1  1  0  0  0
  8  7  1  0  0  0  0
  8  9  1  6  0  0  0
 10 11  1  1  0  0  0
 10  8  1  0  0  0  0
 12 10  1  0  0  0  0
 13 12  1  0  0  0  0
 13 15  1  0  0  0  0
 13 14  1  1  0  0  0
 15  7  1  0  0  0  0
 15 16  1  6  0  0  0
 17 16  1  6  0  0  0
 18 17  1  0  0  0  0
 19 20  1  1  0  0  0
 19 18  1  0  0  0  0
 20 21  1  0  0  0  0
 22 24  1  0  0  0  0
 22 19  1  0  0  0  0
 22 23  1  6  0  0  0
 24 25  1  1  0  0  0
 24 26  1  0  0  0  0
 26 17  1  0  0  0  0
 26 27  1  6  0  0  0
 28 29  1  6  0  0  0
 28 30  1  0  0  0  0
 30 31  1  6  0  0  0
M  END
>  <CHROM.1>
66.51929825,163.36320066,-113.08281462,-63.40370659,-146.01662314,64.88086761
22.73187315,71.21658552,52.27313530,-89.57497361,-99.94800971,-63.99576417
-65.82804539,38.99530020,-55.81998035,-77.80204969,0.38529120,1.32035346
2.95151770,-2.16540489,0.81241400,3.12032373

>  <Name>
lig.pdb

>  <RI>
1.55206e+07

>  <Rbt.Current_Directory>
/home/itssahil/PROJECTS/Mol_Feturizer/New_Systems/rnas/2n0j

>  <Rbt.Executable>
rbdock ($Id: //depot/dev/client3/rdock/2013.1/src/exe/rbdock.cxx#4 $)

>  <Rbt.Library>
libRbt.so (2013.1, Build901 2013/11/27)

>  <Rbt.Parameter_File>
/export/apps/rDock/src/rDock_2013.1_src/data/scripts/dock_solv.prm

>  <Rbt.Receptor>
prm/blind_docking_80.prm

>  <SCORE>
-36.4809

>  <SCORE.INTER>
-45.6694

>  <SCORE.INTER.CONST>
1

>  <SCORE.INTER.POLAR>
-6.54495

>  <SCORE.INTER.ROT>
6

>  <SCORE.INTER.SOLV>
25.0079

>  <SCORE.INTER.VDW>
-24.5657

>  <SCORE.INTER.norm>
-1.47321

>  <SCORE.INTRA>
7.38471

>  <SCORE.INTRA.DIHEDRAL>
-3.82395

>  <SCORE.INTRA.DIHEDRAL.0>
28.0161

>  <SCORE.INTRA.POLAR>
1.05798

>  <SCORE.INTRA.POLAR.0>
-1.05798

>  <SCORE.INTRA.REPUL>
0.00763562

>  <SCORE.INTRA.REPUL.0>
0

>  <SCORE.INTRA.SOLV>
0.712315

>  <SCORE.INTRA.SOLV.lig_0>
-42.5945

>  <SCORE.INTRA.VDW>
5.3052

>  <SCORE.INTRA.VDW.0>
-5.13869

>  <SCORE.INTRA.norm>
0.238216

>  <SCORE.RESTR>
1.80378

>  <SCORE.RESTR.CAVITY>
1.80378

>  <SCORE.RESTR.norm>
0.0581865

>  <SCORE.SYSTEM>
0

>  <SCORE.SYSTEM.CONST>
0

>  <SCORE.SYSTEM.DIHEDRAL>
0

>  <SCORE.SYSTEM.SOLV>
0

>  <SCORE.SYSTEM.norm>
0

>  <SCORE.heavy>
31

>  <SCORE.norm>
-1.1768

>  <RMSD>
5.643

$$$$
lig.pdb
 OpenBabel11021811453D
libRbt.so/2013.1/901 2013/11/27
 31 33  0  0  0  0  0  0  0  0999 V2000
    0.9921    6.9673    1.0499 O   0  0  0  0  0  0  0  0  0  0  0  0
    1.0968    6.2039    2.2358 C   0  0  0  0  0  0  0  0  0  0  0  0
    0.0865    5.0488    2.2506 C   0  0  1  0  0  0  0  0  0  0  0  0
    0.3368    4.1156    1.2115 O   0  0  0  0  0  0  0  0  0  0  0  0
   -0.1647    2.8362    1.5863 C   0  0  1  0  0  0  0  0  0  0  0  0
    0.8196    1.8399    1.3364 O   0  0  0  0  0  0  0  0  0  0  0  0
    0.3583    0.5642    0.9210 C   0  0  2  0  0  0  0  0  0  0  0  0
   -0.9012    0.7779    0.0665 C   0  0  1  0  0  0  0  0  0  0  0  0
   -0.5458    1.3858   -1.1653 O   0  0  0  0  0  0  0  0  0  0  0  0
   -1.6604   -0.5160   -0.2646 C   0  0  2  0  0  0  0  0  0  0  0  0
   -2.9018   -0.2268   -0.9990 N   0  0  0  0  0  0  0  0  0  0  0  0
   -1.9942   -1.2601    1.0230 C   0  0  0  0  0  0  0  0  0  0  0  0
   -0.7157   -1.5254    1.8085 C   0  0  2  0  0  0  0  0  0  0  0  0
   -1.0598   -2.2889    3.0128 N   0  0  0  0  0  0  0  0  0  0  0  0
   -0.0118   -0.1956    2.1544 C   0  0  1  0  0  0  0  0  0  0  0  0
    1.1585   -0.5638    2.9003 O   0  0  0  0  0  0  0  0  0  0  0  0
    1.7346    0.4327    3.7381 C   0  0  1  0  0  0  0  0  0  0  0  0
    1.0091    0.5443    4.9595 O   0  0  0  0  0  0  0  0  0  0  0  0
    1.1049   -0.5628    5.8531 C   0  0  2  0  0  0  0  0  0  0  0  0
    0.2676   -0.2656    7.1042 C   0  0  0  0  0  0  0  0  0  0  0  0
   -1.0409    0.2728    6.7608 N   0  0  0  0  0  0  0  0  0  0  0  0
    2.5697   -0.8183    6.2540 C   0  0  1  0  0  0  0  0  0  0  0  0
    2.6451   -1.9567    7.0936 O   0  0  0  0  0  0  0  0  0  0  0  0
    3.3954   -1.0518    4.9827 C   0  0  2  0  0  0  0  0  0  0  0  0
    4.7635   -1.2029    5.3119 O   0  0  0  0  0  0  0  0  0  0  0  0
    3.2105    0.1086    3.9956 C   0  0  1  0  0  0  0  0  0  0  0  0
    3.9032   -0.1869    2.7333 N   0  0  0  0  0  0  0  0  0  0  0  0
   -0.4617    2.8985    3.0916 C   0  0  2  0  0  0  0  0  0  0  0  0
   -1.8609    2.8918    3.3057 O   0  0  0  0  0  0  0  0  0  0  0  0
    0.2060    4.2056    3.5161 C   0  0  2  0  0  0  0  0  0  0  0  0
   -0.3832    4.8015    4.6549 O   0  0  0  0  0  0  0  0  0  0  0  0
  2  1  1  0  0  0  0
  3  2  1  1  0  0  0
  3 30  1  0  0  0  0
  4  5  1  0  0  0  0
  4  3  1  0  0  0  0
  5 28  1  0  0  0  0
  5  6  1  1  0  0  0
  7  6  1  1  0  0  0
  8  7  1  0  0  0  0
  8  9  1  6  0  0  0
 10 11  1  1  0  0  0
 10  8  1  0  0  0  0
 12 10  1  0  0  0  0
 13 12  1  0  0  0  0
 13 15  1  0  0  0  0
 13 14  1  1  0  0  0
 15  7  1  0  0  0  0
 15 16  1  6  0  0  0
 17 16  1  6  0  0  0
 18 17  1  0  0  0  0
 19 20  1  1  0  0  0
 19 18  1  0  0  0  0
 20 21  1  0  0  0  0
 22 24  1  0  0  0  0
 22 19  1  0  0  0  0
 22 23  1  1  0  0  0
 24 25  1  1  0  0  0
 24 26  1  0  0  0  0
 26 17  1  0  0  0  0
 26 27  1  6  0  0  0
 28 29  1  6  0  0  0
 28 30  1  0  0  0  0
 30 31  1  1  0  0  0
M  END
>  <CHROM.1>
52.64035049,63.76464881,-145.55662907,33.66785324,58.84722222,-77.16880177
-75.55538237,80.77132182,79.56044452,45.59835364,-26.61525575,59.72011425
127.17718702,-80.52599826,-179.90925858,-43.73170601,0.50856935,1.08211671
2.99048886,-2.34492590,0.99440223,3.04545306

>  <Name>
lig.pdb

>  <RI>
0

>  <Rbt.Current_Directory>
/home/itssahil/PROJECTS/Mol_Feturizer/New_Systems/rnas/2n0j

>  <Rbt.Executable>
rbdock ($Id: //depot/dev/client3/rdock/2013.1/src/exe/rbdock.cxx#4 $)

>  <Rbt.Library>
libRbt.so (2013.1, Build901 2013/11/27)

>  <Rbt.Parameter_File>
/export/apps/rDock/src/rDock_2013.1_src/data/scripts/dock_solv.prm

>  <Rbt.Receptor>
prm/blind_docking_60.prm

>  <SCORE>
-35.0825

>  <SCORE.INTER>
-42.4229

>  <SCORE.INTER.CONST>
1

>  <SCORE.INTER.POLAR>
-6.35784

>  <SCORE.INTER.ROT>
6

>  <SCORE.INTER.SOLV>
22.9447

>  <SCORE.INTER.VDW>
-22.3373

>  <SCORE.INTER.norm>
-1.36848

>  <SCORE.INTRA>
4.56315

>  <SCORE.INTRA.DIHEDRAL>
-3.22581

>  <SCORE.INTRA.DIHEDRAL.0>
28.0161

>  <SCORE.INTRA.POLAR>
0.855207

>  <SCORE.INTRA.POLAR.0>
-1.05798

>  <SCORE.INTRA.REPUL>
0

>  <SCORE.INTRA.REPUL.0>
0

>  <SCORE.INTRA.SOLV>
-0.426479

>  <SCORE.INTRA.SOLV.lig_0>
-42.5945

>  <SCORE.INTRA.VDW>
3.4816

>  <SCORE.INTRA.VDW.0>
-5.13869

>  <SCORE.INTRA.norm>
0.147198

>  <SCORE.RESTR>
2.7772

>  <SCORE.RESTR.CAVITY>
2.7772

>  <SCORE.RESTR.norm>
0.0895869

>  <SCORE.SYSTEM>
0

>  <SCORE.SYSTEM.CONST>
0

>  <SCORE.SYSTEM.DIHEDRAL>
0

>  <SCORE.SYSTEM.SOLV>
0

>  <SCORE.SYSTEM.norm>
0

>  <SCORE.heavy>
31

>  <SCORE.norm>
-1.13169

>  <RMSD>
5.655

$$$$
lig.pdb
 OpenBabel11021811453D
libRbt.so/2013.1/901 2013/11/27
 31 33  0  0  0  0  0  0  0  0999 V2000
   -0.5244   -1.6297    6.4980 O   0  0  0  0  0  0  0  0  0  0  0  0
   -1.6696   -1.2724    7.2470 C   0  0  0  0  0  0  0  0  0  0  0  0
   -1.6930    0.2312    7.5534 C   0  0  1  0  0  0  0  0  0  0  0  0
   -1.0378    0.9852    6.5458 O   0  0  0  0  0  0  0  0  0  0  0  0
   -1.5686    2.3066    6.5156 C   0  0  1  0  0  0  0  0  0  0  0  0
   -1.8658    2.6767    5.1745 O   0  0  0  0  0  0  0  0  0  0  0  0
   -1.4103    3.9475    4.7378 C   0  0  2  0  0  0  0  0  0  0  0  0
   -2.2990    5.0144    5.3967 C   0  0  1  0  0  0  0  0  0  0  0  0
   -2.0354    5.0622    6.7901 O   0  0  0  0  0  0  0  0  0  0  0  0
   -2.0902    6.4323    4.8432 C   0  0  2  0  0  0  0  0  0  0  0  0
   -3.0381    7.3804    5.4487 N   0  0  0  0  0  0  0  0  0  0  0  0
   -2.2755    6.4260    3.3304 C   0  0  0  0  0  0  0  0  0  0  0  0
   -1.3251    5.4147    2.7012 C   0  0  2  0  0  0  0  0  0  0  0  0
   -1.4859    5.4693    1.2442 N   0  0  0  0  0  0  0  0  0  0  0  0
   -1.6012    4.0005    3.2559 C   0  0  1  0  0  0  0  0  0  0  0  0
   -0.6685    3.1375    2.5875 O   0  0  0  0  0  0  0  0  0  0  0  0
   -0.7425    1.7472    2.8846 C   0  0  1  0  0  0  0  0  0  0  0  0
   -2.0817    1.2764    2.7597 O   0  0  0  0  0  0  0  0  0  0  0  0
   -2.6156    1.2377    1.4379 C   0  0  2  0  0  0  0  0  0  0  0  0
   -4.0542    0.7072    1.4984 C   0  0  0  0  0  0  0  0  0  0  0  0
   -4.1416   -0.5253    2.2684 N   0  0  0  0  0  0  0  0  0  0  0  0
   -1.7633    0.3326    0.5290 C   0  0  1  0  0  0  0  0  0  0  0  0
   -2.2788    0.3568   -0.7902 O   0  0  0  0  0  0  0  0  0  0  0  0
   -0.3188    0.8482    0.5345 C   0  0  2  0  0  0  0  0  0  0  0  0
    0.5088   -0.0147   -0.2228 O   0  0  0  0  0  0  0  0  0  0  0  0
    0.2089    0.9667    1.9706 C   0  0  1  0  0  0  0  0  0  0  0  0
    1.5444    1.5807    1.9688 N   0  0  0  0  0  0  0  0  0  0  0  0
   -2.8632    2.2847    7.3411 C   0  0  2  0  0  0  0  0  0  0  0  0
   -2.6710    2.9879    8.5544 O   0  0  0  0  0  0  0  0  0  0  0  0
   -3.1120    0.7909    7.5439 C   0  0  2  0  0  0  0  0  0  0  0  0
   -3.8501    0.4907    8.7119 O   0  0  0  0  0  0  0  0  0  0  0  0
  2  1  1  0  0  0  0
  3  2  1  6  0  0  0
  3 30  1  0  0  0  0
  4  5  1  0  0  0  0
  4  3  1  0  0  0  0
  5 28  1  0  0  0  0
  5  6  1  6  0  0  0
  7  6  1  1  0  0  0
  8  7  1  0  0  0  0
  8  9  1  1  0  0  0
 10 11  1  1  0  0  0
 10  8  1  0  0  0  0
 12 10  1  0  0  0  0
 13 12  1  0  0  0  0
 13 15  1  0  0  0  0
 13 14  1  6  0  0  0
 15  7  1  0  0  0  0
 15 16  1  6  0  0  0
 17 16  1  6  0  0  0
 18 17  1  0  0  0  0
 19 20  1  1  0  0  0
 19 18  1  0  0  0  0
 20 21  1  0  0  0  0
 22 24  1  0  0  0  0
 22 19  1  0  0  0  0
 22 23  1  6  0  0  0
 24 25  1  6  0  0  0
 24 26  1  0  0  0  0
 26 17  1  0  0  0  0
 26 27  1  6  0  0  0
 28 29  1  1  0  0  0
 28 30  1  0  0  0  0
 30 31  1  1  0  0  0
M  END
>  <CHROM.1>
-64.78619879,29.53744939,-132.27084224,-73.44954786,45.02289262,74.64743301
-164.27852976,61.40869661,50.26980815,-50.05065500,-42.84588259,-173.62790881
68.89634179,-51.80914984,57.31894814,-179.22143628,-1.76619724,2.25921120
4.08658584,-3.08022003,1.37610902,-0.29896454

>  <Name>
lig.pdb

>  <RI>
3.33129e+07

>  <Rbt.Current_Directory>
/home/itssahil/PROJECTS/Mol_Feturizer/New_Systems/rnas/2n0j

>  <Rbt.Executable>
rbdock ($Id: //depot/dev/client3/rdock/2013.1/src/exe/rbdock.cxx#4 $)

>  <Rbt.Library>
libRbt.so (2013.1, Build901 2013/11/27)

>  <Rbt.Parameter_File>
/export/apps/rDock/src/rDock_2013.1_src/data/scripts/dock_solv.prm

>  <Rbt.Receptor>
prm/pocket_docking_4.prm

>  <SCORE>
-40.3603

>  <SCORE.INTER>
-37.4197

>  <SCORE.INTER.CONST>
1

>  <SCORE.INTER.POLAR>
-4.71587

>  <SCORE.INTER.ROT>
6

>  <SCORE.INTER.SOLV>
16.3175

>  <SCORE.INTER.VDW>
-22.266

>  <SCORE.INTER.norm>
-1.20709

>  <SCORE.INTRA>
-2.97036

>  <SCORE.INTRA.DIHEDRAL>
-13.1802

>  <SCORE.INTRA.DIHEDRAL.0>
28.0161

>  <SCORE.INTRA.POLAR>
0.150508

>  <SCORE.INTRA.POLAR.0>
-1.05798

>  <SCORE.INTRA.REPUL>
0.00170306

>  <SCORE.INTRA.REPUL.0>
0

>  <SCORE.INTRA.SOLV>
0.52065

>  <SCORE.INTRA.SOLV.lig_0>
-42.5945

>  <SCORE.INTRA.VDW>
2.83918

>  <SCORE.INTRA.VDW.0>
-5.13869

>  <SCORE.INTRA.norm>
-0.0958181

>  <SCORE.RESTR>
0.0297164

>  <SCORE.RESTR.CAVITY>
0.0297164

>  <SCORE.RESTR.norm>
0.000958594

>  <SCORE.SYSTEM>
0

>  <SCORE.SYSTEM.CONST>
0

>  <SCORE.SYSTEM.DIHEDRAL>
0

>  <SCORE.SYSTEM.SOLV>
0

>  <SCORE.SYSTEM.norm>
0

>  <SCORE.heavy>
31

>  <SCORE.norm>
-1.30195

>  <RMSD>
5.656

$$$$
lig.pdb
 OpenBabel11021811453D
libRbt.so/2013.1/901 2013/11/27
 31 33  0  0  0  0  0  0  0  0999 V2000
   -4.4295    4.0840    7.6689 O   0  0  0  0  0  0  0  0  0  0  0  0
   -4.9110    3.3103    6.5874 C   0  0  0  0  0  0  0  0  0  0  0  0
   -4.8806    4.1026    5.2734 C   0  0  1  0  0  0  0  0  0  0  0  0
   -3.5574    4.4495    4.8970 O   0  0  0  0  0  0  0  0  0  0  0  0
   -3.4896    4.6151    3.4839 C   0  0  1  0  0  0  0  0  0  0  0  0
   -2.3665    3.9102    2.9686 O   0  0  0  0  0  0  0  0  0  0  0  0
   -1.0810    4.4158    3.2921 C   0  0  2  0  0  0  0  0  0  0  0  0
   -0.9168    5.7670    2.5783 C   0  0  1  0  0  0  0  0  0  0  0  0
   -1.7766    6.7281    3.1703 O   0  0  0  0  0  0  0  0  0  0  0  0
    0.5097    6.3349    2.6327 C   0  0  2  0  0  0  0  0  0  0  0  0
    0.6143    7.5759    1.8497 N   0  0  0  0  0  0  0  0  0  0  0  0
    1.4936    5.3065    2.0874 C   0  0  0  0  0  0  0  0  0  0  0  0
    1.3600    4.0045    2.8678 C   0  0  2  0  0  0  0  0  0  0  0  0
    2.3541    3.0534    2.3591 N   0  0  0  0  0  0  0  0  0  0  0  0
   -0.0764    3.4512    2.7482 C   0  0  1  0  0  0  0  0  0  0  0  0
   -0.0803    2.2283    3.5005 O   0  0  0  0  0  0  0  0  0  0  0  0
   -1.3039    1.5027    3.5539 C   0  0  1  0  0  0  0  0  0  0  0  0
   -1.1841    0.2623    2.8629 O   0  0  0  0  0  0  0  0  0  0  0  0
   -0.3346   -0.7138    3.4622 C   0  0  2  0  0  0  0  0  0  0  0  0
   -0.3301   -1.9737    2.5864 C   0  0  0  0  0  0  0  0  0  0  0  0
   -1.6434   -2.6002    2.5376 N   0  0  0  0  0  0  0  0  0  0  0  0
   -0.8199   -1.0658    4.8807 C   0  0  1  0  0  0  0  0  0  0  0  0
    0.0717   -1.9916    5.4761 O   0  0  0  0  0  0  0  0  0  0  0  0
   -0.8734    0.2189    5.7167 C   0  0  2  0  0  0  0  0  0  0  0  0
   -1.3997   -0.0576    7.0010 O   0  0  0  0  0  0  0  0  0  0  0  0
   -1.7203    1.2883    5.0135 C   0  0  1  0  0  0  0  0  0  0  0  0
   -1.6588    2.5528    5.7602 N   0  0  0  0  0  0  0  0  0  0  0  0
   -4.7804    4.0186    2.9039 C   0  0  2  0  0  0  0  0  0  0  0  0
   -5.6163    5.0561    2.4259 O   0  0  0  0  0  0  0  0  0  0  0  0
   -5.3735    3.2682    4.0953 C   0  0  2  0  0  0  0  0  0  0  0  0
   -6.7801    3.1354    4.0408 O   0  0  0  0  0  0  0  0  0  0  0  0
  2  1  1  0  0  0  0
  3  2  1  1  0  0  0
  3 30  1  0  0  0  0
  4  5  1  0  0  0  0
  4  3  1  0  0  0  0
  5 28  1  0  0  0  0
  5  6  1  6  0  0  0
  7  6  1  6  0  0  0
  8  7  1  0  0  0  0
  8  9  1  1  0  0  0
 10 11  1  6  0  0  0
 10  8  1  0  0  0  0
 12 10  1  0  0  0  0
 13 12  1  0  0  0  0
 13 15  1  0  0  0  0
 13 14  1  6  0  0  0
 15  7  1  0  0  0  0
 15 16  1  1  0  0  0
 17 16  1  1  0  0  0
 18 17  1  0  0  0  0
 19 20  1  6  0  0  0
 19 18  1  0  0  0  0
 20 21  1  0  0  0  0
 22 24  1  0  0  0  0
 22 19  1  0  0  0  0
 22 23  1  1  0  0  0
 24 25  1  1  0  0  0
 24 26  1  0  0  0  0
 26 17  1  0  0  0  0
 26 27  1  1  0  0  0
 28 29  1  1  0  0  0
 28 30  1  0  0  0  0
 30 31  1  6  0  0  0
M  END
>  <CHROM.1>
61.57920659,63.58785036,-69.25966927,-67.68823051,75.10258211,-160.09779151
-55.79401589,59.22855654,113.05858846,-64.62125119,-46.84320462,62.31703720
64.05630395,65.49278979,-54.02095467,154.62568238,-1.79067426,2.77813867
3.90294629,1.88786843,0.37953993,-0.25828930

>  <Name>
lig.pdb

>  <RI>
3.33129e+07

>  <Rbt.Current_Directory>
/home/itssahil/PROJECTS/Mol_Feturizer/New_Systems/rnas/2n0j

>  <Rbt.Executable>
rbdock ($Id: //depot/dev/client3/rdock/2013.1/src/exe/rbdock.cxx#4 $)

>  <Rbt.Library>
libRbt.so (2013.1, Build901 2013/11/27)

>  <Rbt.Parameter_File>
/export/apps/rDock/src/rDock_2013.1_src/data/scripts/dock_solv.prm

>  <Rbt.Receptor>
prm/pocket_docking_4.prm

>  <SCORE>
-36.3511

>  <SCORE.INTER>
-33.042

>  <SCORE.INTER.CONST>
1

>  <SCORE.INTER.POLAR>
-4.03737

>  <SCORE.INTER.ROT>
6

>  <SCORE.INTER.SOLV>
13.9631

>  <SCORE.INTER.VDW>
-20.8244

>  <SCORE.INTER.norm>
-1.06587

>  <SCORE.INTRA>
-3.92055

>  <SCORE.INTRA.DIHEDRAL>
-14.3839

>  <SCORE.INTRA.DIHEDRAL.0>
28.0161

>  <SCORE.INTRA.POLAR>
0.0385882

>  <SCORE.INTRA.POLAR.0>
-1.05798

>  <SCORE.INTRA.REPUL>
0

>  <SCORE.INTRA.REPUL.0>
0

>  <SCORE.INTRA.SOLV>
0.99655

>  <SCORE.INTRA.SOLV.lig_0>
-42.5945

>  <SCORE.INTRA.VDW>
2.64191

>  <SCORE.INTRA.VDW.0>
-5.13869

>  <SCORE.INTRA.norm>
-0.126469

>  <SCORE.RESTR>
0.611364

>  <SCORE.RESTR.CAVITY>
0.611364

>  <SCORE.RESTR.norm>
0.0197214

>  <SCORE.SYSTEM>
0

>  <SCORE.SYSTEM.CONST>
0

>  <SCORE.SYSTEM.DIHEDRAL>
0

>  <SCORE.SYSTEM.SOLV>
0

>  <SCORE.SYSTEM.norm>
0

>  <SCORE.heavy>
31

>  <SCORE.norm>
-1.17262

>  <RMSD>
5.664

$$$$
lig.pdb
 OpenBabel11021811453D
libRbt.so/2013.1/901 2013/11/27
 31 33  0  0  0  0  0  0  0  0999 V2000
    0.6250   -0.8162   -0.7052 O   0  0  0  0  0  0  0  0  0  0  0  0
    0.1823   -0.0898    0.4246 C   0  0  0  0  0  0  0  0  0  0  0  0
   -0.9418   -0.8297    1.1622 C   0  0  1  0  0  0  0  0  0  0  0  0
   -1.0814   -0.3782    2.5000 O   0  0  0  0  0  0  0  0  0  0  0  0
   -2.4176   -0.5970    2.9420 C   0  0  1  0  0  0  0  0  0  0  0  0
   -2.9185    0.5793    3.5657 O   0  0  0  0  0  0  0  0  0  0  0  0
   -2.6378    0.7497    4.9459 C   0  0  2  0  0  0  0  0  0  0  0  0
   -3.9260    0.4439    5.7264 C   0  0  1  0  0  0  0  0  0  0  0  0
   -4.2155   -0.9429    5.6465 O   0  0  0  0  0  0  0  0  0  0  0  0
   -3.8578    0.8114    7.2165 C   0  0  2  0  0  0  0  0  0  0  0  0
   -5.1524    0.5828    7.8767 N   0  0  0  0  0  0  0  0  0  0  0  0
   -3.4630    2.2758    7.3672 C   0  0  0  0  0  0  0  0  0  0  0  0
   -2.1429    2.5279    6.6491 C   0  0  2  0  0  0  0  0  0  0  0  0
   -1.7608    3.9288    6.8567 N   0  0  0  0  0  0  0  0  0  0  0  0
   -2.2731    2.1854    5.1493 C   0  0  1  0  0  0  0  0  0  0  0  0
   -0.9884    2.4741    4.5770 O   0  0  0  0  0  0  0  0  0  0  0  0
   -0.9289    2.6378    3.1641 C   0  0  1  0  0  0  0  0  0  0  0  0
   -1.5798    3.8423    2.7691 O   0  0  0  0  0  0  0  0  0  0  0  0
   -0.9395    5.0586    3.1487 C   0  0  2  0  0  0  0  0  0  0  0  0
   -1.7760    6.2403    2.6404 C   0  0  0  0  0  0  0  0  0  0  0  0
   -2.0304    7.2124    3.6940 N   0  0  0  0  0  0  0  0  0  0  0  0
    0.4826    5.1353    2.5626 C   0  0  1  0  0  0  0  0  0  0  0  0
    1.1180    6.3230    3.0011 O   0  0  0  0  0  0  0  0  0  0  0  0
    1.2779    3.9124    3.0363 C   0  0  2  0  0  0  0  0  0  0  0  0
    2.5630    3.9080    2.4434 O   0  0  0  0  0  0  0  0  0  0  0  0
    0.5309    2.6155    2.6969 C   0  0  1  0  0  0  0  0  0  0  0  0
    1.2391    1.4607    3.2674 N   0  0  0  0  0  0  0  0  0  0  0  0
   -3.2534   -0.9114    1.6926 C   0  0  2  0  0  0  0  0  0  0  0  0
   -3.6212   -2.2783    1.6923 O   0  0  0  0  0  0  0  0  0  0  0  0
   -2.3089   -0.5418    0.5499 C   0  0  2  0  0  0  0  0  0  0  0  0
   -2.5580   -1.2531   -0.6464 O   0  0  0  0  0  0  0  0  0  0  0  0
  2  1  1  0  0  0  0
  3  2  1  6  0  0  0
  3 30  1  0  0  0  0
  4  5  1  0  0  0  0
  4  3  1  0  0  0  0
  5 28  1  0  0  0  0
  5  6  1  6  0  0  0
  7  6  1  6  0  0  0
  8  7  1  0  0  0  0
  8  9  1  1  0  0  0
 10 11  1  6  0  0  0
 10  8  1  0  0  0  0
 12 10  1  0  0  0  0
 13 12  1  0  0  0  0
 13 15  1  0  0  0  0
 13 14  1  6  0  0  0
 15  7  1  0  0  0  0
 15 16  1  6  0  0  0
 17 16  1  1  0  0  0
 18 17  1  0  0  0  0
 19 20  1  6  0  0  0
 19 18  1  0  0  0  0
 20 21  1  0  0  0  0
 22 24  1  0  0  0  0
 22 19  1  0  0  0  0
 22 23  1  1  0  0  0
 24 25  1  6  0  0  0
 24 26  1  0  0  0  0
 26 17  1  0  0  0  0
 26 27  1  1  0  0  0
 28 29  1  6  0  0  0
 28 30  1  0  0  0  0
 30 31  1  6  0  0  0
M  END
>  <CHROM.1>
-138.26668340,159.92812590,-86.09637763,-104.65044631,-66.45463655,-51.97218167
54.30420305,77.68070994,69.66800501,129.90049593,58.13298631,-173.92923648
-179.69570547,166.42433156,-172.64252179,-176.13796236,-1.55747098,1.81666845
3.45370844,-2.18361230,0.85281854,0.66832126

>  <Name>
lig.pdb

>  <RI>
3.50357e+07

>  <Rbt.Current_Directory>
/home/itssahil/PROJECTS/Mol_Feturizer/New_Systems/rnas/2n0j

>  <Rbt.Executable>
rbdock ($Id: //depot/dev/client3/rdock/2013.1/src/exe/rbdock.cxx#4 $)

>  <Rbt.Library>
libRbt.so (2013.1, Build901 2013/11/27)

>  <Rbt.Parameter_File>
/export/apps/rDock/src/rDock_2013.1_src/data/scripts/dock_solv.prm

>  <Rbt.Receptor>
prm/pocket_docking_3.prm

>  <SCORE>
-28.1936

>  <SCORE.INTER>
-25.9394

>  <SCORE.INTER.CONST>
1

>  <SCORE.INTER.POLAR>
-3.522

>  <SCORE.INTER.ROT>
6

>  <SCORE.INTER.SOLV>
15.9653

>  <SCORE.INTER.VDW>
-18.4747

>  <SCORE.INTER.norm>
-0.836753

>  <SCORE.INTRA>
-2.25422

>  <SCORE.INTRA.DIHEDRAL>
-3.53394

>  <SCORE.INTRA.DIHEDRAL.0>
28.0161

>  <SCORE.INTRA.POLAR>
0.057985

>  <SCORE.INTRA.POLAR.0>
-1.05798

>  <SCORE.INTRA.REPUL>
0

>  <SCORE.INTRA.REPUL.0>
0

>  <SCORE.INTRA.SOLV>
0.149253

>  <SCORE.INTRA.SOLV.lig_0>
-42.5945

>  <SCORE.INTRA.VDW>
-0.759022

>  <SCORE.INTRA.VDW.0>
-5.13869

>  <SCORE.INTRA.norm>
-0.0727167

>  <SCORE.RESTR>
0

>  <SCORE.RESTR.CAVITY>
0

>  <SCORE.RESTR.norm>
0

>  <SCORE.SYSTEM>
0

>  <SCORE.SYSTEM.CONST>
0

>  <SCORE.SYSTEM.DIHEDRAL>
0

>  <SCORE.SYSTEM.SOLV>
0

>  <SCORE.SYSTEM.norm>
0

>  <SCORE.heavy>
31

>  <SCORE.norm>
-0.90947

>  <RMSD>
5.666

$$$$
lig.pdb
 OpenBabel11021811453D
libRbt.so/2013.1/901 2013/11/27
 31 33  0  0  0  0  0  0  0  0999 V2000
   -1.3449   -1.0003    9.1636 O   0  0  0  0  0  0  0  0  0  0  0  0
   -1.2316   -0.2928    7.9443 C   0  0  0  0  0  0  0  0  0  0  0  0
   -1.9188    1.0771    8.0246 C   0  0  1  0  0  0  0  0  0  0  0  0
   -1.3381    2.0119    7.1290 O   0  0  0  0  0  0  0  0  0  0  0  0
   -2.3007    3.0021    6.7803 C   0  0  1  0  0  0  0  0  0  0  0  0
   -2.3087    3.1922    5.3705 O   0  0  0  0  0  0  0  0  0  0  0  0
   -1.7290    4.3888    4.8754 C   0  0  2  0  0  0  0  0  0  0  0  0
   -2.6000    5.5621    5.3517 C   0  0  1  0  0  0  0  0  0  0  0  0
   -2.4642    5.7195    6.7553 O   0  0  0  0  0  0  0  0  0  0  0  0
   -2.2446    6.9092    4.7042 C   0  0  2  0  0  0  0  0  0  0  0  0
   -3.1776    7.9632    5.1317 N   0  0  0  0  0  0  0  0  0  0  0  0
   -2.2888    6.7776    3.1864 C   0  0  0  0  0  0  0  0  0  0  0  0
   -1.3554    5.6585    2.7411 C   0  0  2  0  0  0  0  0  0  0  0  0
   -1.3762    5.5910    1.2759 N   0  0  0  0  0  0  0  0  0  0  0  0
   -1.7776    4.3193    3.3827 C   0  0  1  0  0  0  0  0  0  0  0  0
   -0.8480    3.3451    2.8842 O   0  0  0  0  0  0  0  0  0  0  0  0
   -1.0506    1.9926    3.2793 C   0  0  1  0  0  0  0  0  0  0  0  0
   -2.3123    1.5171    2.8180 O   0  0  0  0  0  0  0  0  0  0  0  0
   -2.4446    1.3465    1.4085 C   0  0  2  0  0  0  0  0  0  0  0  0
   -3.8568    0.8309    1.1007 C   0  0  0  0  0  0  0  0  0  0  0  0
   -4.8672    1.8502    1.3455 N   0  0  0  0  0  0  0  0  0  0  0  0
   -1.3978    0.3502    0.8764 C   0  0  1  0  0  0  0  0  0  0  0  0
   -1.5112    0.2424   -0.5315 O   0  0  0  0  0  0  0  0  0  0  0  0
    0.0005    0.8577    1.2501 C   0  0  2  0  0  0  0  0  0  0  0  0
    0.9817   -0.0811    0.8512 O   0  0  0  0  0  0  0  0  0  0  0  0
    0.0968    1.1193    2.7592 C   0  0  1  0  0  0  0  0  0  0  0  0
    1.3962    1.7244    3.0849 N   0  0  0  0  0  0  0  0  0  0  0  0
   -3.6685    2.4721    7.2348 C   0  0  2  0  0  0  0  0  0  0  0  0
   -4.1265    3.2171    8.3477 O   0  0  0  0  0  0  0  0  0  0  0  0
   -3.3730    1.0108    7.5688 C   0  0  2  0  0  0  0  0  0  0  0  0
   -4.2474    0.4600    8.5337 O   0  0  0  0  0  0  0  0  0  0  0  0
  2  1  1  0  0  0  0
  3  2  1  6  0  0  0
  3 30  1  0  0  0  0
  4  5  1  0  0  0  0
  4  3  1  0  0  0  0
  5 28  1  0  0  0  0
  5  6  1  6  0  0  0
  7  6  1  1  0  0  0
  8  7  1  0  0  0  0
  8  9  1  1  0  0  0
 10 11  1  1  0  0  0
 10  8  1  0  0  0  0
 12 10  1  0  0  0  0
 13 12  1  0  0  0  0
 13 15  1  0  0  0  0
 13 14  1  6  0  0  0
 15  7  1  0  0  0  0
 15 16  1  6  0  0  0
 17 16  1  6  0  0  0
 18 17  1  0  0  0  0
 19 20  1  1  0  0  0
 19 18  1  0  0  0  0
 20 21  1  0  0  0  0
 22 24  1  0  0  0  0
 22 19  1  0  0  0  0
 22 23  1  6  0  0  0
 24 25  1  1  0  0  0
 24 26  1  0  0  0  0
 26 17  1  0  0  0  0
 26 27  1  6  0  0  0
 28 29  1  1  0  0  0
 28 30  1  0  0  0  0
 30 31  1  1  0  0  0
M  END
>  <CHROM.1>
-166.02010901,153.11513775,-106.72567948,-66.30261404,-172.68232673,-161.27958799
-167.32426180,61.92456723,61.63542458,69.67607577,167.35254405,68.61292915
69.87453514,-170.77145600,-52.58958756,-75.92313897,-1.96290165,2.66989413
4.34920443,-2.55247504,1.29162189,-0.68395430

>  <Name>
lig.pdb

>  <RI>
3.32461e+07

>  <Rbt.Current_Directory>
/home/itssahil/PROJECTS/Mol_Feturizer/New_Systems/rnas/2n0j

>  <Rbt.Executable>
rbdock ($Id: //depot/dev/client3/rdock/2013.1/src/exe/rbdock.cxx#4 $)

>  <Rbt.Library>
libRbt.so (2013.1, Build901 2013/11/27)

>  <Rbt.Parameter_File>
/export/apps/rDock/src/rDock_2013.1_src/data/scripts/dock_solv.prm

>  <Rbt.Receptor>
prm/pocket_docking_7.prm

>  <SCORE>
-43.3861

>  <SCORE.INTER>
-42.8306

>  <SCORE.INTER.CONST>
1

>  <SCORE.INTER.POLAR>
-5.90192

>  <SCORE.INTER.ROT>
6

>  <SCORE.INTER.SOLV>
18.2086

>  <SCORE.INTER.VDW>
-22.5502

>  <SCORE.INTER.norm>
-1.38163

>  <SCORE.INTRA>
-0.555552

>  <SCORE.INTRA.DIHEDRAL>
-13.3656

>  <SCORE.INTRA.DIHEDRAL.0>
28.0161

>  <SCORE.INTRA.POLAR>
0.977322

>  <SCORE.INTRA.POLAR.0>
-1.05798

>  <SCORE.INTRA.REPUL>
0

>  <SCORE.INTRA.REPUL.0>
0

>  <SCORE.INTRA.SOLV>
-0.272077

>  <SCORE.INTRA.SOLV.lig_0>
-42.5945

>  <SCORE.INTRA.VDW>
2.94039

>  <SCORE.INTRA.VDW.0>
-5.13869

>  <SCORE.INTRA.norm>
-0.017921

>  <SCORE.RESTR>
0

>  <SCORE.RESTR.CAVITY>
0

>  <SCORE.RESTR.norm>
0

>  <SCORE.SYSTEM>
0

>  <SCORE.SYSTEM.CONST>
0

>  <SCORE.SYSTEM.DIHEDRAL>
0

>  <SCORE.SYSTEM.SOLV>
0

>  <SCORE.SYSTEM.norm>
0

>  <SCORE.heavy>
31

>  <SCORE.norm>
-1.39955

>  <RMSD>
5.667

$$$$
lig.pdb
 OpenBabel11021811453D
libRbt.so/2013.1/901 2013/11/27
 31 33  0  0  0  0  0  0  0  0999 V2000
    2.4558    5.4669    2.5357 O   0  0  0  0  0  0  0  0  0  0  0  0
    1.1478    6.0030    2.5808 C   0  0  0  0  0  0  0  0  0  0  0  0
    0.0871    4.9119    2.3816 C   0  0  1  0  0  0  0  0  0  0  0  0
    0.3524    4.1216    1.2335 O   0  0  0  0  0  0  0  0  0  0  0  0
   -0.2264    2.8305    1.3971 C   0  0  1  0  0  0  0  0  0  0  0  0
    0.7243    1.8287    1.0560 O   0  0  0  0  0  0  0  0  0  0  0  0
    0.2206    0.5440    0.7262 C   0  0  2  0  0  0  0  0  0  0  0  0
   -1.0935    0.7411   -0.0460 C   0  0  1  0  0  0  0  0  0  0  0  0
   -0.8191    1.2944   -1.3234 O   0  0  0  0  0  0  0  0  0  0  0  0
   -1.8886   -0.5542   -0.2702 C   0  0  2  0  0  0  0  0  0  0  0  0
   -3.1754   -0.2771   -0.9270 N   0  0  0  0  0  0  0  0  0  0  0  0
   -2.1390   -1.2417    1.0668 C   0  0  0  0  0  0  0  0  0  0  0  0
   -0.8114   -1.4934    1.7710 C   0  0  2  0  0  0  0  0  0  0  0  0
   -1.0782   -2.2034    3.0265 N   0  0  0  0  0  0  0  0  0  0  0  0
   -0.0700   -0.1608    2.0123 C   0  0  1  0  0  0  0  0  0  0  0  0
    1.1458   -0.5154    2.6889 O   0  0  0  0  0  0  0  0  0  0  0  0
    1.6265    0.3894    3.6773 C   0  0  1  0  0  0  0  0  0  0  0  0
    0.8155    0.3336    4.8476 O   0  0  0  0  0  0  0  0  0  0  0  0
    0.8903   -0.8694    5.6097 C   0  0  2  0  0  0  0  0  0  0  0  0
   -0.0409   -0.7478    6.8232 C   0  0  0  0  0  0  0  0  0  0  0  0
    0.5742    0.0157    7.8995 N   0  0  0  0  0  0  0  0  0  0  0  0
    2.3326   -1.1297    6.0826 C   0  0  1  0  0  0  0  0  0  0  0  0
    2.3919   -2.3578    6.7860 O   0  0  0  0  0  0  0  0  0  0  0  0
    3.2513   -1.1860    4.8557 C   0  0  2  0  0  0  0  0  0  0  0  0
    4.5984   -1.3369    5.2629 O   0  0  0  0  0  0  0  0  0  0  0  0
    3.0922    0.0785    4.0009 C   0  0  1  0  0  0  0  0  0  0  0  0
    3.8800   -0.0442    2.7661 N   0  0  0  0  0  0  0  0  0  0  0  0
   -0.6036    2.6969    2.8797 C   0  0  2  0  0  0  0  0  0  0  0  0
   -2.0114    2.7338    3.0222 O   0  0  0  0  0  0  0  0  0  0  0  0
    0.0978    3.8947    3.5182 C   0  0  2  0  0  0  0  0  0  0  0  0
   -0.5263    4.3554    4.7003 O   0  0  0  0  0  0  0  0  0  0  0  0
  2  1  1  0  0  0  0
  3  2  1  1  0  0  0
  3 30  1  0  0  0  0
  4  5  1  0  0  0  0
  4  3  1  0  0  0  0
  5 28  1  0  0  0  0
  5  6  1  1  0  0  0
  7  6  1  1  0  0  0
  8  7  1  0  0  0  0
  8  9  1  6  0  0  0
 10 11  1  1  0  0  0
 10  8  1  0  0  0  0
 12 10  1  0  0  0  0
 13 12  1  0  0  0  0
 13 15  1  0  0  0  0
 13 14  1  1  0  0  0
 15  7  1  0  0  0  0
 15 16  1  6  0  0  0
 17 16  1  6  0  0  0
 18 17  1  0  0  0  0
 19 20  1  1  0  0  0
 19 18  1  0  0  0  0
 20 21  1  0  0  0  0
 22 24  1  0  0  0  0
 22 19  1  0  0  0  0
 22 23  1  6  0  0  0
 24 25  1  1  0  0  0
 24 26  1  0  0  0  0
 26 17  1  0  0  0  0
 26 27  1  6  0  0  0
 28 29  1  6  0  0  0
 28 30  1  0  0  0  0
 30 31  1  1  0  0  0
M  END
>  <CHROM.1>
71.01887898,-50.82290706,-159.40090702,36.65764852,-170.31624777,69.38087413
-75.83019390,94.76832987,72.79138228,-80.51105941,14.50875527,-55.15121647
178.19069640,46.72657121,-57.12622603,-175.00295627,0.50151033,0.91182748
3.00989754,-2.45606114,0.95888553,2.95150560

>  <Name>
lig.pdb

>  <RI>
9.20816e+06

>  <Rbt.Current_Directory>
/home/itssahil/PROJECTS/Mol_Feturizer/New_Systems/rnas/2n0j

>  <Rbt.Executable>
rbdock ($Id: //depot/dev/client3/rdock/2013.1/src/exe/rbdock.cxx#4 $)

>  <Rbt.Library>
libRbt.so (2013.1, Build901 2013/11/27)

>  <Rbt.Parameter_File>
/export/apps/rDock/src/rDock_2013.1_src/data/scripts/dock_solv.prm

>  <Rbt.Receptor>
prm/blind_docking_100.prm

>  <SCORE>
-29.444

>  <SCORE.INTER>
-34.9269

>  <SCORE.INTER.CONST>
1

>  <SCORE.INTER.POLAR>
-4.33877

>  <SCORE.INTER.ROT>
6

>  <SCORE.INTER.SOLV>
23.8619

>  <SCORE.INTER.VDW>
-24.376

>  <SCORE.INTER.norm>
-1.12667

>  <SCORE.INTRA>
2.66129

>  <SCORE.INTRA.DIHEDRAL>
-10.7601

>  <SCORE.INTRA.DIHEDRAL.0>
28.0161

>  <SCORE.INTRA.POLAR>
1.05798

>  <SCORE.INTRA.POLAR.0>
-1.05798

>  <SCORE.INTRA.REPUL>
0

>  <SCORE.INTRA.REPUL.0>
0

>  <SCORE.INTRA.SOLV>
0.872111

>  <SCORE.INTRA.SOLV.lig_0>
-42.5945

>  <SCORE.INTRA.VDW>
4.00814

>  <SCORE.INTRA.VDW.0>
-5.13869

>  <SCORE.INTRA.norm>
0.0858482

>  <SCORE.RESTR>
2.82153

>  <SCORE.RESTR.CAVITY>
2.82153

>  <SCORE.RESTR.norm>
0.0910172

>  <SCORE.SYSTEM>
0

>  <SCORE.SYSTEM.CONST>
0

>  <SCORE.SYSTEM.DIHEDRAL>
0

>  <SCORE.SYSTEM.SOLV>
0

>  <SCORE.SYSTEM.norm>
0

>  <SCORE.heavy>
31

>  <SCORE.norm>
-0.949807

>  <RMSD>
5.671

$$$$
lig.pdb
 OpenBabel11021811453D
libRbt.so/2013.1/901 2013/11/27
 31 33  0  0  0  0  0  0  0  0999 V2000
   -1.8032   -1.6985    6.1083 O   0  0  0  0  0  0  0  0  0  0  0  0
   -1.3926   -1.3172    7.4068 C   0  0  0  0  0  0  0  0  0  0  0  0
   -1.5859    0.1877    7.6371 C   0  0  1  0  0  0  0  0  0  0  0  0
   -0.9299    0.9617    6.6453 O   0  0  0  0  0  0  0  0  0  0  0  0
   -1.5824    2.2207    6.5116 C   0  0  1  0  0  0  0  0  0  0  0  0
   -1.8080    2.5037    5.1358 O   0  0  0  0  0  0  0  0  0  0  0  0
   -1.3297    3.7454    4.6436 C   0  0  2  0  0  0  0  0  0  0  0  0
   -2.1893    4.8573    5.2657 C   0  0  1  0  0  0  0  0  0  0  0  0
   -1.9118    4.9561    6.6537 O   0  0  0  0  0  0  0  0  0  0  0  0
   -1.9556    6.2466    4.6529 C   0  0  2  0  0  0  0  0  0  0  0  0
   -2.8774    7.2389    5.2269 N   0  0  0  0  0  0  0  0  0  0  0  0
   -2.1550    6.1827    3.1432 C   0  0  0  0  0  0  0  0  0  0  0  0
   -1.2322    5.1262    2.5480 C   0  0  2  0  0  0  0  0  0  0  0  0
   -1.4053    5.1248    1.0914 N   0  0  0  0  0  0  0  0  0  0  0  0
   -1.5332    3.7421    3.1624 C   0  0  1  0  0  0  0  0  0  0  0  0
   -0.6253    2.8326    2.5221 O   0  0  0  0  0  0  0  0  0  0  0  0
   -0.7666    1.4499    2.8299 C   0  0  1  0  0  0  0  0  0  0  0  0
   -2.1221    1.0368    2.6794 O   0  0  0  0  0  0  0  0  0  0  0  0
   -2.6282    1.0083    1.3466 C   0  0  2  0  0  0  0  0  0  0  0  0
   -4.0897    0.5418    1.3798 C   0  0  0  0  0  0  0  0  0  0  0  0
   -4.6917    0.5626    0.0543 N   0  0  0  0  0  0  0  0  0  0  0  0
   -1.7969    0.0580    0.4649 C   0  0  1  0  0  0  0  0  0  0  0  0
   -2.2820    0.0917   -0.8656 O   0  0  0  0  0  0  0  0  0  0  0  0
   -0.3317    0.5100    0.4978 C   0  0  2  0  0  0  0  0  0  0  0  0
    0.4736   -0.3956   -0.2332 O   0  0  0  0  0  0  0  0  0  0  0  0
    0.1693    0.6196    1.9442 C   0  0  1  0  0  0  0  0  0  0  0  0
    1.5302    1.1746    1.9666 N   0  0  0  0  0  0  0  0  0  0  0  0
   -2.9296    2.1027    7.2392 C   0  0  2  0  0  0  0  0  0  0  0  0
   -2.9024    2.8709    8.4277 O   0  0  0  0  0  0  0  0  0  0  0  0
   -3.0473    0.6011    7.4954 C   0  0  2  0  0  0  0  0  0  0  0  0
   -3.8422    0.2765    8.6188 O   0  0  0  0  0  0  0  0  0  0  0  0
  2  1  1  0  0  0  0
  3  2  1  6  0  0  0
  3 30  1  0  0  0  0
  4  5  1  0  0  0  0
  4  3  1  0  0  0  0
  5 28  1  0  0  0  0
  5  6  1  6  0  0  0
  7  6  1  1  0  0  0
  8  7  1  0  0  0  0
  8  9  1  1  0  0  0
 10 11  1  1  0  0  0
 10  8  1  0  0  0  0
 12 10  1  0  0  0  0
 13 12  1  0  0  0  0
 13 15  1  0  0  0  0
 13 14  1  6  0  0  0
 15  7  1  0  0  0  0
 15 16  1  6  0  0  0
 17 16  1  6  0  0  0
 18 17  1  0  0  0  0
 19 20  1  1  0  0  0
 19 18  1  0  0  0  0
 20 21  1  0  0  0  0
 22 24  1  0  0  0  0
 22 19  1  0  0  0  0
 22 23  1  6  0  0  0
 24 25  1  6  0  0  0
 24 26  1  0  0  0  0
 26 17  1  0  0  0  0
 26 27  1  6  0  0  0
 28 29  1  1  0  0  0
 28 30  1  0  0  0  0
 30 31  1  1  0  0  0
M  END
>  <CHROM.1>
-178.61507902,-54.93342383,-126.41663536,-69.44702135,44.51770444,-41.96155700
-179.67617240,64.22621063,50.29802671,176.76887802,38.43412684,-171.56336500
73.46863672,67.15717398,179.34583972,-178.32167348,-1.80371223,2.09295487
3.92321258,-3.10976737,1.42440078,-0.25281561

>  <Name>
lig.pdb

>  <RI>
3.33129e+07

>  <Rbt.Current_Directory>
/home/itssahil/PROJECTS/Mol_Feturizer/New_Systems/rnas/2n0j

>  <Rbt.Executable>
rbdock ($Id: //depot/dev/client3/rdock/2013.1/src/exe/rbdock.cxx#4 $)

>  <Rbt.Library>
libRbt.so (2013.1, Build901 2013/11/27)

>  <Rbt.Parameter_File>
/export/apps/rDock/src/rDock_2013.1_src/data/scripts/dock_solv.prm

>  <Rbt.Receptor>
prm/pocket_docking_4.prm

>  <SCORE>
-43.7438

>  <SCORE.INTER>
-40.3779

>  <SCORE.INTER.CONST>
1

>  <SCORE.INTER.POLAR>
-5.15483

>  <SCORE.INTER.ROT>
6

>  <SCORE.INTER.SOLV>
16.5287

>  <SCORE.INTER.VDW>
-22.8454

>  <SCORE.INTER.norm>
-1.30251

>  <SCORE.INTRA>
-3.36595

>  <SCORE.INTRA.DIHEDRAL>
-15.292

>  <SCORE.INTRA.DIHEDRAL.0>
28.0161

>  <SCORE.INTRA.POLAR>
0.197932

>  <SCORE.INTRA.POLAR.0>
-1.05798

>  <SCORE.INTRA.REPUL>
0.00144386

>  <SCORE.INTRA.REPUL.0>
0

>  <SCORE.INTRA.SOLV>
1.35959

>  <SCORE.INTRA.SOLV.lig_0>
-42.5945

>  <SCORE.INTRA.VDW>
2.92009

>  <SCORE.INTRA.VDW.0>
-5.13869

>  <SCORE.INTRA.norm>
-0.108579

>  <SCORE.RESTR>
0

>  <SCORE.RESTR.CAVITY>
0

>  <SCORE.RESTR.norm>
0

>  <SCORE.SYSTEM>
0

>  <SCORE.SYSTEM.CONST>
0

>  <SCORE.SYSTEM.DIHEDRAL>
0

>  <SCORE.SYSTEM.SOLV>
0

>  <SCORE.SYSTEM.norm>
0

>  <SCORE.heavy>
31

>  <SCORE.norm>
-1.41109

>  <RMSD>
5.672

$$$$
lig.pdb
 OpenBabel11021811453D
libRbt.so/2013.1/901 2013/11/27
 31 33  0  0  0  0  0  0  0  0999 V2000
   -0.4604   -1.4377    1.0536 O   0  0  0  0  0  0  0  0  0  0  0  0
   -0.8074   -1.2084    2.4053 C   0  0  0  0  0  0  0  0  0  0  0  0
   -1.9867   -0.2335    2.5242 C   0  0  1  0  0  0  0  0  0  0  0  0
   -2.2714    0.0878    3.8765 O   0  0  0  0  0  0  0  0  0  0  0  0
   -2.8949    1.3666    3.9435 C   0  0  1  0  0  0  0  0  0  0  0  0
   -2.2706    2.1559    4.9490 O   0  0  0  0  0  0  0  0  0  0  0  0
   -3.0702    2.5479    6.0535 C   0  0  2  0  0  0  0  0  0  0  0  0
   -3.5894    1.2702    6.7317 C   0  0  1  0  0  0  0  0  0  0  0  0
   -2.5140    0.5933    7.3632 O   0  0  0  0  0  0  0  0  0  0  0  0
   -4.6629    1.5210    7.8017 C   0  0  2  0  0  0  0  0  0  0  0  0
   -5.1814    0.2527    8.3372 N   0  0  0  0  0  0  0  0  0  0  0  0
   -5.8100    2.3246    7.2006 C   0  0  0  0  0  0  0  0  0  0  0  0
   -5.2725    3.6209    6.6067 C   0  0  2  0  0  0  0  0  0  0  0  0
   -6.4026    4.3974    6.0855 N   0  0  0  0  0  0  0  0  0  0  0  0
   -4.2305    3.3174    5.5086 C   0  0  1  0  0  0  0  0  0  0  0  0
   -3.8099    4.5981    5.0144 O   0  0  0  0  0  0  0  0  0  0  0  0
   -2.5670    5.1020    5.4917 C   0  0  1  0  0  0  0  0  0  0  0  0
   -1.4978    4.6882    4.6455 O   0  0  0  0  0  0  0  0  0  0  0  0
   -1.4694    5.2609    3.3398 C   0  0  2  0  0  0  0  0  0  0  0  0
   -0.2583    4.7045    2.5793 C   0  0  0  0  0  0  0  0  0  0  0  0
   -0.1512    5.2769    1.2449 N   0  0  0  0  0  0  0  0  0  0  0  0
   -1.3770    6.7963    3.4168 C   0  0  1  0  0  0  0  0  0  0  0  0
   -1.4094    7.3442    2.1109 O   0  0  0  0  0  0  0  0  0  0  0  0
   -2.5647    7.3215    4.2328 C   0  0  2  0  0  0  0  0  0  0  0  0
   -2.4610    8.7235    4.3962 O   0  0  0  0  0  0  0  0  0  0  0  0
   -2.6305    6.6297    5.6011 C   0  0  1  0  0  0  0  0  0  0  0  0
   -3.8425    7.0471    6.3202 N   0  0  0  0  0  0  0  0  0  0  0  0
   -2.6968    2.0303    2.5730 C   0  0  2  0  0  0  0  0  0  0  0  0
   -3.9310    2.0829    1.8819 O   0  0  0  0  0  0  0  0  0  0  0  0
   -1.6686    1.1218    1.9007 C   0  0  2  0  0  0  0  0  0  0  0  0
   -1.7398    1.1297    0.4887 O   0  0  0  0  0  0  0  0  0  0  0  0
  2  1  1  0  0  0  0
  3  2  1  1  0  0  0
  3 30  1  0  0  0  0
  4  5  1  0  0  0  0
  4  3  1  0  0  0  0
  5 28  1  0  0  0  0
  5  6  1  1  0  0  0
  7  6  1  6  0  0  0
  8  7  1  0  0  0  0
  8  9  1  1  0  0  0
 10 11  1  6  0  0  0
 10  8  1  0  0  0  0
 12 10  1  0  0  0  0
 13 12  1  0  0  0  0
 13 15  1  0  0  0  0
 13 14  1  6  0  0  0
 15  7  1  0  0  0  0
 15 16  1  1  0  0  0
 17 16  1  6  0  0  0
 18 17  1  0  0  0  0
 19 20  1  6  0  0  0
 19 18  1  0  0  0  0
 20 21  1  0  0  0  0
 22 24  1  0  0  0  0
 22 19  1  0  0  0  0
 22 23  1  6  0  0  0
 24 25  1  1  0  0  0
 24 26  1  0  0  0  0
 26 17  1  0  0  0  0
 26 27  1  6  0  0  0
 28 29  1  6  0  0  0
 28 30  1  0  0  0  0
 30 31  1  6  0  0  0
M  END
>  <CHROM.1>
177.23321478,-175.18533844,-116.74089174,59.01514926,64.31879426,98.03153668
-40.37632095,-20.11362150,90.28059642,-178.55930901,137.68949448,75.06165871
-162.40180944,-69.23255270,179.58003587,-169.96769755,-2.75590177,3.25227818
4.34107802,-1.41444124,0.97723547,0.05911373

>  <Name>
lig.pdb

>  <RI>
3.32461e+07

>  <Rbt.Current_Directory>
/home/itssahil/PROJECTS/Mol_Feturizer/New_Systems/rnas/2n0j

>  <Rbt.Executable>
rbdock ($Id: //depot/dev/client3/rdock/2013.1/src/exe/rbdock.cxx#4 $)

>  <Rbt.Library>
libRbt.so (2013.1, Build901 2013/11/27)

>  <Rbt.Parameter_File>
/export/apps/rDock/src/rDock_2013.1_src/data/scripts/dock_solv.prm

>  <Rbt.Receptor>
prm/pocket_docking_7.prm

>  <SCORE>
-38.9941

>  <SCORE.INTER>
-47.176

>  <SCORE.INTER.CONST>
1

>  <SCORE.INTER.POLAR>
-7.44923

>  <SCORE.INTER.ROT>
6

>  <SCORE.INTER.SOLV>
19.9931

>  <SCORE.INTER.VDW>
-20.8842

>  <SCORE.INTER.norm>
-1.52181

>  <SCORE.INTRA>
8.18182

>  <SCORE.INTRA.DIHEDRAL>
-1.80938

>  <SCORE.INTRA.DIHEDRAL.0>
28.0161

>  <SCORE.INTRA.POLAR>
0.365825

>  <SCORE.INTRA.POLAR.0>
-1.05798

>  <SCORE.INTRA.REPUL>
0.0788245

>  <SCORE.INTRA.REPUL.0>
0

>  <SCORE.INTRA.SOLV>
1.37584

>  <SCORE.INTRA.SOLV.lig_0>
-42.5945

>  <SCORE.INTRA.VDW>
6.76067

>  <SCORE.INTRA.VDW.0>
-5.13869

>  <SCORE.INTRA.norm>
0.26393

>  <SCORE.RESTR>
0

>  <SCORE.RESTR.CAVITY>
0

>  <SCORE.RESTR.norm>
0

>  <SCORE.SYSTEM>
0

>  <SCORE.SYSTEM.CONST>
0

>  <SCORE.SYSTEM.DIHEDRAL>
0

>  <SCORE.SYSTEM.SOLV>
0

>  <SCORE.SYSTEM.norm>
0

>  <SCORE.heavy>
31

>  <SCORE.norm>
-1.25788

>  <RMSD>
5.672

$$$$
lig.pdb
 OpenBabel11021811453D
libRbt.so/2013.1/901 2013/11/27
 31 33  0  0  0  0  0  0  0  0999 V2000
   -1.0434   -0.9777    9.1814 O   0  0  0  0  0  0  0  0  0  0  0  0
   -0.5677    0.1049    8.4058 C   0  0  0  0  0  0  0  0  0  0  0  0
   -1.5852    1.2530    8.3612 C   0  0  1  0  0  0  0  0  0  0  0  0
   -1.2170    2.2479    7.4191 O   0  0  0  0  0  0  0  0  0  0  0  0
   -2.3812    2.9319    6.9657 C   0  0  1  0  0  0  0  0  0  0  0  0
   -2.3645    3.0245    5.5462 O   0  0  0  0  0  0  0  0  0  0  0  0
   -1.7490    4.1704    4.9796 C   0  0  2  0  0  0  0  0  0  0  0  0
   -2.5818    5.3970    5.3846 C   0  0  1  0  0  0  0  0  0  0  0  0
   -2.4378    5.6343    6.7762 O   0  0  0  0  0  0  0  0  0  0  0  0
   -2.1860    6.6908    4.6570 C   0  0  2  0  0  0  0  0  0  0  0  0
   -3.0847    7.7973    5.0205 N   0  0  0  0  0  0  0  0  0  0  0  0
   -2.2379    6.4694    3.1499 C   0  0  0  0  0  0  0  0  0  0  0  0
   -1.3409    5.2969    2.7724 C   0  0  2  0  0  0  0  0  0  0  0  0
   -1.3674    5.1419    1.3139 N   0  0  0  0  0  0  0  0  0  0  0  0
   -1.8032    4.0126    3.4938 C   0  0  1  0  0  0  0  0  0  0  0  0
   -0.9057    2.9816    3.0545 O   0  0  0  0  0  0  0  0  0  0  0  0
   -1.2343    1.6417    3.4057 C   0  0  1  0  0  0  0  0  0  0  0  0
   -2.4295    1.2280    2.7492 O   0  0  0  0  0  0  0  0  0  0  0  0
   -2.3467    1.0606    1.3355 C   0  0  2  0  0  0  0  0  0  0  0  0
   -3.7165    0.6147    0.8067 C   0  0  0  0  0  0  0  0  0  0  0  0
   -4.7605    1.5726    1.1414 N   0  0  0  0  0  0  0  0  0  0  0  0
   -1.2795    0.0124    0.9694 C   0  0  1  0  0  0  0  0  0  0  0  0
   -1.1751   -0.0932   -0.4393 O   0  0  0  0  0  0  0  0  0  0  0  0
    0.0659    0.4511    1.5610 C   0  0  2  0  0  0  0  0  0  0  0  0
    1.0501   -0.5361    1.3165 O   0  0  0  0  0  0  0  0  0  0  0  0
   -0.0637    0.7114    3.0678 C   0  0  1  0  0  0  0  0  0  0  0  0
    1.1964    1.2523    3.5971 N   0  0  0  0  0  0  0  0  0  0  0  0
   -3.5899    2.0961    7.4115 C   0  0  2  0  0  0  0  0  0  0  0  0
   -4.2800    2.7657    8.4502 O   0  0  0  0  0  0  0  0  0  0  0  0
   -2.9486    0.7847    7.8626 C   0  0  2  0  0  0  0  0  0  0  0  0
   -3.7021    0.0883    8.8355 O   0  0  0  0  0  0  0  0  0  0  0  0
  2  1  1  0  0  0  0
  3  2  1  6  0  0  0
  3 30  1  0  0  0  0
  4  5  1  0  0  0  0
  4  3  1  0  0  0  0
  5 28  1  0  0  0  0
  5  6  1  6  0  0  0
  7  6  1  1  0  0  0
  8  7  1  0  0  0  0
  8  9  1  1  0  0  0
 10 11  1  6  0  0  0
 10  8  1  0  0  0  0
 12 10  1  0  0  0  0
 13 12  1  0  0  0  0
 13 15  1  0  0  0  0
 13 14  1  6  0  0  0
 15  7  1  0  0  0  0
 15 16  1  1  0  0  0
 17 16  1  6  0  0  0
 18 17  1  0  0  0  0
 19 20  1  1  0  0  0
 19 18  1  0  0  0  0
 20 21  1  0  0  0  0
 22 24  1  0  0  0  0
 22 19  1  0  0  0  0
 22 23  1  6  0  0  0
 24 25  1  1  0  0  0
 24 26  1  0  0  0  0
 26 17  1  0  0  0  0
 26 27  1  6  0  0  0
 28 29  1  1  0  0  0
 28 30  1  0  0  0  0
 30 31  1  1  0  0  0
M  END
>  <CHROM.1>
-178.69624538,-170.57349358,-90.38025354,-65.15758734,58.45950137,77.02237216
174.56226555,68.81882821,66.19968464,57.94209537,173.86591080,-174.08902990
81.85941243,-163.29026345,-179.61101704,-52.27579538,-1.87498323,2.42670798
4.47599132,-2.28634165,1.30291739,-0.99086884

>  <Name>
lig.pdb

>  <RI>
0

>  <Rbt.Current_Directory>
/home/itssahil/PROJECTS/Mol_Feturizer/New_Systems/rnas/2n0j

>  <Rbt.Executable>
rbdock ($Id: //depot/dev/client3/rdock/2013.1/src/exe/rbdock.cxx#4 $)

>  <Rbt.Library>
libRbt.so (2013.1, Build901 2013/11/27)

>  <Rbt.Parameter_File>
/export/apps/rDock/src/rDock_2013.1_src/data/scripts/dock_solv.prm

>  <Rbt.Receptor>
prm/pocket_docking_5.prm

>  <SCORE>
-48.1059

>  <SCORE.INTER>
-42.3392

>  <SCORE.INTER.CONST>
1

>  <SCORE.INTER.POLAR>
-5.68712

>  <SCORE.INTER.ROT>
6

>  <SCORE.INTER.SOLV>
17.721

>  <SCORE.INTER.VDW>
-22.776

>  <SCORE.INTER.norm>
-1.36578

>  <SCORE.INTRA>
-5.76676

>  <SCORE.INTRA.DIHEDRAL>
-18.8459

>  <SCORE.INTRA.DIHEDRAL.0>
28.0161

>  <SCORE.INTRA.POLAR>
0.316739

>  <SCORE.INTRA.POLAR.0>
-1.05798

>  <SCORE.INTRA.REPUL>
0

>  <SCORE.INTRA.REPUL.0>
0

>  <SCORE.INTRA.SOLV>
-0.0778379

>  <SCORE.INTRA.SOLV.lig_0>
-42.5945

>  <SCORE.INTRA.VDW>
2.61819

>  <SCORE.INTRA.VDW.0>
-5.13869

>  <SCORE.INTRA.norm>
-0.186024

>  <SCORE.RESTR>
0

>  <SCORE.RESTR.CAVITY>
0

>  <SCORE.RESTR.norm>
0

>  <SCORE.SYSTEM>
0

>  <SCORE.SYSTEM.CONST>
0

>  <SCORE.SYSTEM.DIHEDRAL>
0

>  <SCORE.SYSTEM.SOLV>
0

>  <SCORE.SYSTEM.norm>
0

>  <SCORE.heavy>
31

>  <SCORE.norm>
-1.5518

>  <RMSD>
5.674

$$$$
lig.pdb
 OpenBabel11021811453D
libRbt.so/2013.1/901 2013/11/27
 31 33  0  0  0  0  0  0  0  0999 V2000
    0.9838    6.8859    1.1816 O   0  0  0  0  0  0  0  0  0  0  0  0
    0.9358    6.1641    2.3968 C   0  0  0  0  0  0  0  0  0  0  0  0
   -0.0678    5.0054    2.3218 C   0  0  1  0  0  0  0  0  0  0  0  0
    0.2477    4.1011    1.2750 O   0  0  0  0  0  0  0  0  0  0  0  0
   -0.2683    2.8104    1.5858 C   0  0  1  0  0  0  0  0  0  0  0  0
    0.7340    1.8247    1.3680 O   0  0  0  0  0  0  0  0  0  0  0  0
    0.3019    0.5511    0.9161 C   0  0  2  0  0  0  0  0  0  0  0  0
   -0.9482    0.7626    0.0473 C   0  0  1  0  0  0  0  0  0  0  0  0
   -0.5850    1.4052   -1.1645 O   0  0  0  0  0  0  0  0  0  0  0  0
   -1.6790   -0.5363   -0.3253 C   0  0  2  0  0  0  0  0  0  0  0  0
   -2.9142   -0.2518   -1.0720 N   0  0  0  0  0  0  0  0  0  0  0  0
   -2.0190   -1.3159    0.9394 C   0  0  0  0  0  0  0  0  0  0  0  0
   -0.7480   -1.5771    1.7384 C   0  0  2  0  0  0  0  0  0  0  0  0
   -1.0966   -2.3744    2.9193 N   0  0  0  0  0  0  0  0  0  0  0  0
   -0.0732   -0.2436    2.1258 C   0  0  1  0  0  0  0  0  0  0  0  0
    1.0921   -0.6086    2.8811 O   0  0  0  0  0  0  0  0  0  0  0  0
    1.6339    0.3759    3.7551 C   0  0  1  0  0  0  0  0  0  0  0  0
    0.8803    0.4466    4.9624 O   0  0  0  0  0  0  0  0  0  0  0  0
    0.9743   -0.6804    5.8311 C   0  0  2  0  0  0  0  0  0  0  0  0
    0.1053   -0.4266    7.0702 C   0  0  0  0  0  0  0  0  0  0  0  0
   -0.7563   -1.5625    7.3652 N   0  0  0  0  0  0  0  0  0  0  0  0
    2.4339   -0.9230    6.2581 C   0  0  1  0  0  0  0  0  0  0  0  0
    2.5091   -2.0802    7.0716 O   0  0  0  0  0  0  0  0  0  0  0  0
    3.2906   -1.1128    5.0001 C   0  0  2  0  0  0  0  0  0  0  0  0
    4.6535   -1.2508    5.3557 O   0  0  0  0  0  0  0  0  0  0  0  0
    3.1089    0.0684    4.0373 C   0  0  1  0  0  0  0  0  0  0  0  0
    3.8334   -0.1856    2.7839 N   0  0  0  0  0  0  0  0  0  0  0  0
   -0.6533    2.8316    3.0722 C   0  0  2  0  0  0  0  0  0  0  0  0
   -2.0626    2.8141    3.2035 O   0  0  0  0  0  0  0  0  0  0  0  0
   -0.0183    4.1292    3.5695 C   0  0  2  0  0  0  0  0  0  0  0  0
   -0.6762    4.6925    4.6870 O   0  0  0  0  0  0  0  0  0  0  0  0
  2  1  1  0  0  0  0
  3  2  1  1  0  0  0
  3 30  1  0  0  0  0
  4  5  1  0  0  0  0
  4  3  1  0  0  0  0
  5 28  1  0  0  0  0
  5  6  1  1  0  0  0
  7  6  1  1  0  0  0
  8  7  1  0  0  0  0
  8  9  1  6  0  0  0
 10 11  1  1  0  0  0
 10  8  1  0  0  0  0
 12 10  1  0  0  0  0
 13 12  1  0  0  0  0
 13 15  1  0  0  0  0
 13 14  1  1  0  0  0
 15  7  1  0  0  0  0
 15 16  1  6  0  0  0
 17 16  1  6  0  0  0
 18 17  1  0  0  0  0
 19 20  1  1  0  0  0
 19 18  1  0  0  0  0
 20 21  1  0  0  0  0
 22 24  1  0  0  0  0
 22 19  1  0  0  0  0
 22 23  1  1  0  0  0
 24 25  1  1  0  0  0
 24 26  1  0  0  0  0
 26 17  1  0  0  0  0
 26 27  1  6  0  0  0
 28 29  1  6  0  0  0
 28 30  1  0  0  0  0
 30 31  1  1  0  0  0
M  END
>  <CHROM.1>
50.27960827,58.44593708,-146.68264141,31.77688705,52.18819322,34.40745143
-74.85424511,81.05397077,79.12134769,131.39197991,-158.94324358,148.99736704
127.59179898,-80.59810412,-174.97953157,-163.40759435,0.42403669,0.95479558
3.01834501,-2.27694260,1.00321934,2.99092362

>  <Name>
lig.pdb

>  <RI>
0

>  <Rbt.Current_Directory>
/home/itssahil/PROJECTS/Mol_Feturizer/New_Systems/rnas/2n0j

>  <Rbt.Executable>
rbdock ($Id: //depot/dev/client3/rdock/2013.1/src/exe/rbdock.cxx#4 $)

>  <Rbt.Library>
libRbt.so (2013.1, Build901 2013/11/27)

>  <Rbt.Parameter_File>
/export/apps/rDock/src/rDock_2013.1_src/data/scripts/dock_solv.prm

>  <Rbt.Receptor>
prm/blind_docking_40.prm

>  <SCORE>
-38.6725

>  <SCORE.INTER>
-51.4722

>  <SCORE.INTER.CONST>
1

>  <SCORE.INTER.POLAR>
-6.93972

>  <SCORE.INTER.ROT>
6

>  <SCORE.INTER.SOLV>
23.3895

>  <SCORE.INTER.VDW>
-26.5789

>  <SCORE.INTER.norm>
-1.66039

>  <SCORE.INTRA>
9.9544

>  <SCORE.INTRA.DIHEDRAL>
4.88053

>  <SCORE.INTRA.DIHEDRAL.0>
28.0161

>  <SCORE.INTRA.POLAR>
1.04504

>  <SCORE.INTRA.POLAR.0>
-1.05798

>  <SCORE.INTRA.REPUL>
0

>  <SCORE.INTRA.REPUL.0>
0

>  <SCORE.INTRA.SOLV>
-0.0704232

>  <SCORE.INTRA.SOLV.lig_0>
-42.5945

>  <SCORE.INTRA.VDW>
3.99621

>  <SCORE.INTRA.VDW.0>
-5.13869

>  <SCORE.INTRA.norm>
0.32111

>  <SCORE.RESTR>
2.84534

>  <SCORE.RESTR.CAVITY>
2.84534

>  <SCORE.RESTR.norm>
0.0917852

>  <SCORE.SYSTEM>
0

>  <SCORE.SYSTEM.CONST>
0

>  <SCORE.SYSTEM.DIHEDRAL>
0

>  <SCORE.SYSTEM.SOLV>
0

>  <SCORE.SYSTEM.norm>
0

>  <SCORE.heavy>
31

>  <SCORE.norm>
-1.2475

>  <RMSD>
5.678

$$$$
lig.pdb
 OpenBabel11021811453D
libRbt.so/2013.1/901 2013/11/27
 31 33  0  0  0  0  0  0  0  0999 V2000
    1.3108    6.7877    1.8279 O   0  0  0  0  0  0  0  0  0  0  0  0
    1.1070    5.8783    2.8917 C   0  0  0  0  0  0  0  0  0  0  0  0
    0.0578    4.8181    2.5303 C   0  0  1  0  0  0  0  0  0  0  0  0
    0.4095    4.1075    1.3537 O   0  0  0  0  0  0  0  0  0  0  0  0
   -0.1903    2.8158    1.3776 C   0  0  1  0  0  0  0  0  0  0  0  0
    0.7775    1.8281    1.0432 O   0  0  0  0  0  0  0  0  0  0  0  0
    0.2925    0.5564    0.6424 C   0  0  2  0  0  0  0  0  0  0  0  0
   -0.9823    0.7819   -0.1859 C   0  0  1  0  0  0  0  0  0  0  0  0
   -0.6460    1.3814   -1.4273 O   0  0  0  0  0  0  0  0  0  0  0  0
   -1.7634   -0.5040   -0.4961 C   0  0  2  0  0  0  0  0  0  0  0  0
   -3.0167   -0.2028   -1.2050 N   0  0  0  0  0  0  0  0  0  0  0  0
   -2.0785   -1.2397    0.8011 C   0  0  0  0  0  0  0  0  0  0  0  0
   -0.7868   -1.5173    1.5602 C   0  0  2  0  0  0  0  0  0  0  0  0
   -1.1141   -2.2725    2.7744 N   0  0  0  0  0  0  0  0  0  0  0  0
   -0.0601   -0.1947    1.8862 C   0  0  1  0  0  0  0  0  0  0  0  0
    1.1214   -0.5740    2.6085 O   0  0  0  0  0  0  0  0  0  0  0  0
    1.6261    0.3551    3.5617 C   0  0  1  0  0  0  0  0  0  0  0  0
    0.7983    0.3863    4.7212 O   0  0  0  0  0  0  0  0  0  0  0  0
    0.8136   -0.7823    5.5383 C   0  0  2  0  0  0  0  0  0  0  0  0
   -0.1276   -0.5671    6.7310 C   0  0  0  0  0  0  0  0  0  0  0  0
   -0.6685   -1.8258    7.2238 N   0  0  0  0  0  0  0  0  0  0  0  0
    2.2377   -1.0788    6.0440 C   0  0  1  0  0  0  0  0  0  0  0  0
    2.2371   -2.2746    6.8034 O   0  0  0  0  0  0  0  0  0  0  0  0
    3.1691   -1.2289    4.8347 C   0  0  2  0  0  0  0  0  0  0  0  0
    4.5034   -1.4154    5.2683 O   0  0  0  0  0  0  0  0  0  0  0  0
    3.0734    0.0003    3.9209 C   0  0  1  0  0  0  0  0  0  0  0  0
    3.8714   -0.2111    2.7048 N   0  0  0  0  0  0  0  0  0  0  0  0
   -0.6875    2.5828    2.8117 C   0  0  2  0  0  0  0  0  0  0  0  0
   -2.1019    2.6281    2.8429 O   0  0  0  0  0  0  0  0  0  0  0  0
   -0.0313    3.7231    3.5885 C   0  0  2  0  0  0  0  0  0  0  0  0
   -0.7458    4.1073    4.7465 O   0  0  0  0  0  0  0  0  0  0  0  0
  2  1  1  0  0  0  0
  3  2  1  1  0  0  0
  3 30  1  0  0  0  0
  4  5  1  0  0  0  0
  4  3  1  0  0  0  0
  5 28  1  0  0  0  0
  5  6  1  1  0  0  0
  7  6  1  1  0  0  0
  8  7  1  0  0  0  0
  8  9  1  6  0  0  0
 10 11  1  1  0  0  0
 10  8  1  0  0  0  0
 12 10  1  0  0  0  0
 13 12  1  0  0  0  0
 13 15  1  0  0  0  0
 13 14  1  1  0  0  0
 15  7  1  0  0  0  0
 15 16  1  6  0  0  0
 17 16  1  6  0  0  0
 18 17  1  0  0  0  0
 19 20  1  1  0  0  0
 19 18  1  0  0  0  0
 20 21  1  0  0  0  0
 22 24  1  0  0  0  0
 22 19  1  0  0  0  0
 22 23  1  6  0  0  0
 24 25  1  1  0  0  0
 24 26  1  0  0  0  0
 26 17  1  0  0  0  0
 26 27  1  6  0  0  0
 28 29  1  6  0  0  0
 28 30  1  0  0  0  0
 30 31  1  1  0  0  0
M  END
>  <CHROM.1>
-65.52224581,56.78461606,-162.25122205,36.86163166,-28.96107641,27.38132803
-72.35818707,88.79948490,73.56922270,152.35425711,72.24318699,173.99892755
-69.30046801,37.78117773,-172.55608528,-61.87351969,0.40516985,0.86679813
2.90014653,-2.27153903,0.99191193,2.94226886

>  <Name>
lig.pdb

>  <RI>
1.79691e+07

>  <Rbt.Current_Directory>
/home/itssahil/PROJECTS/Mol_Feturizer/New_Systems/rnas/2n0j

>  <Rbt.Executable>
rbdock ($Id: //depot/dev/client3/rdock/2013.1/src/exe/rbdock.cxx#4 $)

>  <Rbt.Library>
libRbt.so (2013.1, Build901 2013/11/27)

>  <Rbt.Parameter_File>
/export/apps/rDock/src/rDock_2013.1_src/data/scripts/dock_solv.prm

>  <Rbt.Receptor>
prm/blind_docking_20.prm

>  <SCORE>
-33.5807

>  <SCORE.INTER>
-39.3546

>  <SCORE.INTER.CONST>
1

>  <SCORE.INTER.POLAR>
-4.32387

>  <SCORE.INTER.ROT>
6

>  <SCORE.INTER.SOLV>
22.7882

>  <SCORE.INTER.VDW>
-27.0195

>  <SCORE.INTER.norm>
-1.2695

>  <SCORE.INTRA>
2.49693

>  <SCORE.INTRA.DIHEDRAL>
-8.69139

>  <SCORE.INTRA.DIHEDRAL.0>
28.0161

>  <SCORE.INTRA.POLAR>
0.878924

>  <SCORE.INTRA.POLAR.0>
-1.05798

>  <SCORE.INTRA.REPUL>
0

>  <SCORE.INTRA.REPUL.0>
0

>  <SCORE.INTRA.SOLV>
0.421003

>  <SCORE.INTRA.SOLV.lig_0>
-42.5945

>  <SCORE.INTRA.VDW>
3.64378

>  <SCORE.INTRA.VDW.0>
-5.13869

>  <SCORE.INTRA.norm>
0.0805461

>  <SCORE.RESTR>
3.2769

>  <SCORE.RESTR.CAVITY>
3.2769

>  <SCORE.RESTR.norm>
0.105706

>  <SCORE.SYSTEM>
0

>  <SCORE.SYSTEM.CONST>
0

>  <SCORE.SYSTEM.DIHEDRAL>
0

>  <SCORE.SYSTEM.SOLV>
0

>  <SCORE.SYSTEM.norm>
0

>  <SCORE.heavy>
31

>  <SCORE.norm>
-1.08325

>  <RMSD>
5.679

$$$$
lig.pdb
 OpenBabel11021811453D
libRbt.so/2013.1/901 2013/11/27
 31 33  0  0  0  0  0  0  0  0999 V2000
   -6.6632    1.2862   -0.5728 O   0  0  0  0  0  0  0  0  0  0  0  0
   -6.8622    0.1975    0.3076 C   0  0  0  0  0  0  0  0  0  0  0  0
   -6.1146    0.4029    1.6321 C   0  0  1  0  0  0  0  0  0  0  0  0
   -4.7540    0.7459    1.4221 O   0  0  0  0  0  0  0  0  0  0  0  0
   -4.2706    1.4899    2.5364 C   0  0  1  0  0  0  0  0  0  0  0  0
   -3.5771    2.6455    2.0809 O   0  0  0  0  0  0  0  0  0  0  0  0
   -2.8441    3.3829    3.0462 C   0  0  2  0  0  0  0  0  0  0  0  0
   -3.4745    4.7812    3.1440 C   0  0  1  0  0  0  0  0  0  0  0  0
   -4.7560    4.6868    3.7459 O   0  0  0  0  0  0  0  0  0  0  0  0
   -2.6536    5.7819    3.9714 C   0  0  2  0  0  0  0  0  0  0  0  0
   -3.2650    7.1195    3.9410 N   0  0  0  0  0  0  0  0  0  0  0  0
   -1.2339    5.8605    3.4223 C   0  0  0  0  0  0  0  0  0  0  0  0
   -0.6100    4.4703    3.4122 C   0  0  2  0  0  0  0  0  0  0  0  0
    0.7713    4.5840    2.9317 N   0  0  0  0  0  0  0  0  0  0  0  0
   -1.4452    3.5129    2.5349 C   0  0  1  0  0  0  0  0  0  0  0  0
   -0.7614    2.2514    2.5857 O   0  0  0  0  0  0  0  0  0  0  0  0
    0.2114    1.9991    1.5774 C   0  0  1  0  0  0  0  0  0  0  0  0
    1.4706    1.6778    2.1620 O   0  0  0  0  0  0  0  0  0  0  0  0
    1.5479    0.4289    2.8459 C   0  0  2  0  0  0  0  0  0  0  0  0
    2.9667    0.2546    3.4036 C   0  0  0  0  0  0  0  0  0  0  0  0
    3.9761    0.7151    2.4608 N   0  0  0  0  0  0  0  0  0  0  0  0
    1.2131   -0.7370    1.8971 C   0  0  1  0  0  0  0  0  0  0  0  0
    1.2392   -1.9594    2.6124 O   0  0  0  0  0  0  0  0  0  0  0  0
   -0.1838   -0.5072    1.3071 C   0  0  2  0  0  0  0  0  0  0  0  0
   -0.4856   -1.5173    0.3629 O   0  0  0  0  0  0  0  0  0  0  0  0
   -0.2745    0.8777    0.6522 C   0  0  1  0  0  0  0  0  0  0  0  0
   -1.6507    1.1357    0.2050 N   0  0  0  0  0  0  0  0  0  0  0  0
   -5.4992    1.9169    3.3527 C   0  0  2  0  0  0  0  0  0  0  0  0
   -5.5450    1.1908    4.5669 O   0  0  0  0  0  0  0  0  0  0  0  0
   -6.6604    1.5937    2.4137 C   0  0  2  0  0  0  0  0  0  0  0  0
   -7.8761    1.3258    3.0840 O   0  0  0  0  0  0  0  0  0  0  0  0
  2  1  1  0  0  0  0
  3  2  1  6  0  0  0
  3 30  1  0  0  0  0
  4  5  1  0  0  0  0
  4  3  1  0  0  0  0
  5 28  1  0  0  0  0
  5  6  1  6  0  0  0
  7  6  1  6  0  0  0
  8  7  1  0  0  0  0
  8  9  1  1  0  0  0
 10 11  1  6  0  0  0
 10  8  1  0  0  0  0
 12 10  1  0  0  0  0
 13 12  1  0  0  0  0
 13 15  1  0  0  0  0
 13 14  1  6  0  0  0
 15  7  1  0  0  0  0
 15 16  1  1  0  0  0
 17 16  1  1  0  0  0
 18 17  1  0  0  0  0
 19 20  1  6  0  0  0
 19 18  1  0  0  0  0
 20 21  1  0  0  0  0
 22 24  1  0  0  0  0
 22 19  1  0  0  0  0
 22 23  1  1  0  0  0
 24 25  1  6  0  0  0
 24 26  1  0  0  0  0
 26 17  1  0  0  0  0
 26 27  1  1  0  0  0
 28 29  1  1  0  0  0
 28 30  1  0  0  0  0
 30 31  1  1  0  0  0
M  END
>  <CHROM.1>
-79.48599420,-50.53900364,-169.97875444,-116.62508443,179.54914594,-51.94351141
179.32238234,147.78517807,124.56371862,-40.36963893,-59.32932698,-82.13472732
167.40918386,-44.14893136,-50.42662824,63.57762799,-2.20539690,1.97533269
2.34536392,2.93801355,-0.05905996,0.37790401

>  <Name>
lig.pdb

>  <RI>
2.74555e+07

>  <Rbt.Current_Directory>
/home/itssahil/PROJECTS/Mol_Feturizer/New_Systems/rnas/2n0j

>  <Rbt.Executable>
rbdock ($Id: //depot/dev/client3/rdock/2013.1/src/exe/rbdock.cxx#4 $)

>  <Rbt.Library>
libRbt.so (2013.1, Build901 2013/11/27)

>  <Rbt.Parameter_File>
/export/apps/rDock/src/rDock_2013.1_src/data/scripts/dock_solv.prm

>  <Rbt.Receptor>
prm/pocket_docking_6.prm

>  <SCORE>
-51.6458

>  <SCORE.INTER>
-51.44

>  <SCORE.INTER.CONST>
1

>  <SCORE.INTER.POLAR>
-6.55562

>  <SCORE.INTER.ROT>
6

>  <SCORE.INTER.SOLV>
20.92

>  <SCORE.INTER.VDW>
-27.0146

>  <SCORE.INTER.norm>
-1.65936

>  <SCORE.INTRA>
-0.205801

>  <SCORE.INTRA.DIHEDRAL>
-1.51244

>  <SCORE.INTRA.DIHEDRAL.0>
28.0161

>  <SCORE.INTRA.POLAR>
-0.564514

>  <SCORE.INTRA.POLAR.0>
-1.05798

>  <SCORE.INTRA.REPUL>
0

>  <SCORE.INTRA.REPUL.0>
0

>  <SCORE.INTRA.SOLV>
0.901537

>  <SCORE.INTRA.SOLV.lig_0>
-42.5945

>  <SCORE.INTRA.VDW>
2.019

>  <SCORE.INTRA.VDW.0>
-5.13869

>  <SCORE.INTRA.norm>
-0.00663874

>  <SCORE.RESTR>
0

>  <SCORE.RESTR.CAVITY>
0

>  <SCORE.RESTR.norm>
0

>  <SCORE.SYSTEM>
0

>  <SCORE.SYSTEM.CONST>
0

>  <SCORE.SYSTEM.DIHEDRAL>
0

>  <SCORE.SYSTEM.SOLV>
0

>  <SCORE.SYSTEM.norm>
0

>  <SCORE.heavy>
31

>  <SCORE.norm>
-1.66599

>  <RMSD>
5.681

$$$$
lig.pdb
 OpenBabel11021811453D
libRbt.so/2013.1/901 2013/11/27
 31 33  0  0  0  0  0  0  0  0999 V2000
    2.7294    4.8251    2.7695 O   0  0  0  0  0  0  0  0  0  0  0  0
    1.9412    5.8362    2.1725 C   0  0  0  0  0  0  0  0  0  0  0  0
    0.5306    5.3280    1.8448 C   0  0  1  0  0  0  0  0  0  0  0  0
    0.5525    4.0057    1.3308 O   0  0  0  0  0  0  0  0  0  0  0  0
   -0.6910    3.3662    1.6022 C   0  0  1  0  0  0  0  0  0  0  0  0
   -0.4596    2.0725    2.1470 O   0  0  0  0  0  0  0  0  0  0  0  0
   -0.4963    0.9757    1.2479 C   0  0  2  0  0  0  0  0  0  0  0  0
   -1.9268    0.8714    0.6956 C   0  0  1  0  0  0  0  0  0  0  0  0
   -2.1902    1.9720   -0.1604 O   0  0  0  0  0  0  0  0  0  0  0  0
   -2.1955   -0.4088   -0.1100 C   0  0  2  0  0  0  0  0  0  0  0  0
   -3.6052   -0.4867   -0.5232 N   0  0  0  0  0  0  0  0  0  0  0  0
   -1.8456   -1.6295    0.7328 C   0  0  0  0  0  0  0  0  0  0  0  0
   -0.3980   -1.5334    1.1988 C   0  0  2  0  0  0  0  0  0  0  0  0
   -0.0731   -2.7447    1.9598 N   0  0  0  0  0  0  0  0  0  0  0  0
   -0.1875   -0.2551    2.0386 C   0  0  1  0  0  0  0  0  0  0  0  0
    1.1928   -0.2782    2.4331 O   0  0  0  0  0  0  0  0  0  0  0  0
    1.5915    0.6299    3.4543 C   0  0  1  0  0  0  0  0  0  0  0  0
    0.6856    0.5809    4.5532 O   0  0  0  0  0  0  0  0  0  0  0  0
    0.6937   -0.6188    5.3239 C   0  0  2  0  0  0  0  0  0  0  0  0
   -0.3353   -0.4899    6.4550 C   0  0  0  0  0  0  0  0  0  0  0  0
   -0.6201   -1.7770    7.0730 N   0  0  0  0  0  0  0  0  0  0  0  0
    2.0909   -0.8800    5.9166 C   0  0  1  0  0  0  0  0  0  0  0  0
    2.0882   -2.1051    6.6277 O   0  0  0  0  0  0  0  0  0  0  0  0
    3.1086   -0.9437    4.7709 C   0  0  2  0  0  0  0  0  0  0  0  0
    4.4166   -1.0955    5.2896 O   0  0  0  0  0  0  0  0  0  0  0  0
    3.0244    0.3174    3.9005 C   0  0  1  0  0  0  0  0  0  0  0  0
    3.9121    0.1876    2.7362 N   0  0  0  0  0  0  0  0  0  0  0  0
   -1.4218    4.2354    2.6359 C   0  0  2  0  0  0  0  0  0  0  0  0
   -2.5233    4.8824    2.0265 O   0  0  0  0  0  0  0  0  0  0  0  0
   -0.3335    5.2042    3.0958 C   0  0  2  0  0  0  0  0  0  0  0  0
   -0.8341    6.4400    3.5664 O   0  0  0  0  0  0  0  0  0  0  0  0
  2  1  1  0  0  0  0
  3  2  1  1  0  0  0
  3 30  1  0  0  0  0
  4  5  1  0  0  0  0
  4  3  1  0  0  0  0
  5 28  1  0  0  0  0
  5  6  1  1  0  0  0
  7  6  1  1  0  0  0
  8  7  1  0  0  0  0
  8  9  1  6  0  0  0
 10 11  1  1  0  0  0
 10  8  1  0  0  0  0
 12 10  1  0  0  0  0
 13 12  1  0  0  0  0
 13 15  1  0  0  0  0
 13 14  1  1  0  0  0
 15  7  1  0  0  0  0
 15 16  1  6  0  0  0
 17 16  1  6  0  0  0
 18 17  1  0  0  0  0
 19 20  1  1  0  0  0
 19 18  1  0  0  0  0
 20 21  1  0  0  0  0
 22 24  1  0  0  0  0
 22 19  1  0  0  0  0
 22 23  1  6  0  0  0
 24 25  1  1  0  0  0
 24 26  1  0  0  0  0
 26 17  1  0  0  0  0
 26 27  1  6  0  0  0
 28 29  1  6  0  0  0
 28 30  1  0  0  0  0
 30 31  1  6  0  0  0
M  END
>  <CHROM.1>
-48.42216389,-40.41220739,-96.46228768,-64.41470837,-96.43289693,-169.53169584
12.67900037,72.44005008,47.74739682,165.84271358,-56.05623005,169.92353655
-179.10849889,152.72163404,-3.27924603,60.53828511,0.27938911,1.16950546
2.88122006,-2.12050902,0.76419084,2.99312409

>  <Name>
lig.pdb

>  <RI>
0

>  <Rbt.Current_Directory>
/home/itssahil/PROJECTS/Mol_Feturizer/New_Systems/rnas/2n0j

>  <Rbt.Executable>
rbdock ($Id: //depot/dev/client3/rdock/2013.1/src/exe/rbdock.cxx#4 $)

>  <Rbt.Library>
libRbt.so (2013.1, Build901 2013/11/27)

>  <Rbt.Parameter_File>
/export/apps/rDock/src/rDock_2013.1_src/data/scripts/dock_solv.prm

>  <Rbt.Receptor>
prm/blind_docking_60.prm

>  <SCORE>
-30.0775

>  <SCORE.INTER>
-38.044

>  <SCORE.INTER.CONST>
1

>  <SCORE.INTER.POLAR>
-4.99804

>  <SCORE.INTER.ROT>
6

>  <SCORE.INTER.SOLV>
24.1187

>  <SCORE.INTER.VDW>
-24.3421

>  <SCORE.INTER.norm>
-1.22723

>  <SCORE.INTRA>
6.45984

>  <SCORE.INTRA.DIHEDRAL>
-1.5171

>  <SCORE.INTRA.DIHEDRAL.0>
28.0161

>  <SCORE.INTRA.POLAR>
0.561246

>  <SCORE.INTRA.POLAR.0>
-1.05798

>  <SCORE.INTRA.REPUL>
0.0562143

>  <SCORE.INTRA.REPUL.0>
0

>  <SCORE.INTRA.SOLV>
0.640807

>  <SCORE.INTRA.SOLV.lig_0>
-42.5945

>  <SCORE.INTRA.VDW>
4.70867

>  <SCORE.INTRA.VDW.0>
-5.13869

>  <SCORE.INTRA.norm>
0.208382

>  <SCORE.RESTR>
1.50661

>  <SCORE.RESTR.CAVITY>
1.50661

>  <SCORE.RESTR.norm>
0.0486004

>  <SCORE.SYSTEM>
0

>  <SCORE.SYSTEM.CONST>
0

>  <SCORE.SYSTEM.DIHEDRAL>
0

>  <SCORE.SYSTEM.SOLV>
0

>  <SCORE.SYSTEM.norm>
0

>  <SCORE.heavy>
31

>  <SCORE.norm>
-0.970243

>  <RMSD>
5.683

$$$$
lig.pdb
 OpenBabel11021811453D
libRbt.so/2013.1/901 2013/11/27
 31 33  0  0  0  0  0  0  0  0999 V2000
    4.3163    0.1477    4.4739 O   0  0  0  0  0  0  0  0  0  0  0  0
    3.5562   -0.2502    3.3496 C   0  0  0  0  0  0  0  0  0  0  0  0
    2.0502   -0.1314    3.6199 C   0  0  1  0  0  0  0  0  0  0  0  0
    1.6478    1.2198    3.7791 O   0  0  0  0  0  0  0  0  0  0  0  0
    0.2741    1.3546    3.4278 C   0  0  1  0  0  0  0  0  0  0  0  0
    0.1049    2.4690    2.5598 O   0  0  0  0  0  0  0  0  0  0  0  0
   -0.2629    3.7031    3.1551 C   0  0  2  0  0  0  0  0  0  0  0  0
   -1.7959    3.8042    3.1129 C   0  0  1  0  0  0  0  0  0  0  0  0
   -2.3622    2.8580    4.0059 O   0  0  0  0  0  0  0  0  0  0  0  0
   -2.3435    5.1855    3.5030 C   0  0  2  0  0  0  0  0  0  0  0  0
   -3.8054    5.2375    3.3467 N   0  0  0  0  0  0  0  0  0  0  0  0
   -1.7017    6.2580    2.6308 C   0  0  0  0  0  0  0  0  0  0  0  0
   -0.1850    6.1815    2.7563 C   0  0  2  0  0  0  0  0  0  0  0  0
    0.4031    7.2575    1.9513 N   0  0  0  0  0  0  0  0  0  0  0  0
    0.3214    4.7919    2.3134 C   0  0  1  0  0  0  0  0  0  0  0  0
    1.7493    4.8404    2.4565 O   0  0  0  0  0  0  0  0  0  0  0  0
    2.5198    4.9040    1.2612 C   0  0  1  0  0  0  0  0  0  0  0  0
    2.8423    6.2547    0.9415 O   0  0  0  0  0  0  0  0  0  0  0  0
    3.7585    6.9083    1.8172 C   0  0  2  0  0  0  0  0  0  0  0  0
    3.9857    8.3417    1.3189 C   0  0  0  0  0  0  0  0  0  0  0  0
    4.5082    8.3628   -0.0399 N   0  0  0  0  0  0  0  0  0  0  0  0
    5.1004    6.1546    1.8682 C   0  0  1  0  0  0  0  0  0  0  0  0
    5.9715    6.7889    2.7876 O   0  0  0  0  0  0  0  0  0  0  0  0
    4.8379    4.7094    2.3099 C   0  0  2  0  0  0  0  0  0  0  0  0
    6.0417    3.9657    2.2822 O   0  0  0  0  0  0  0  0  0  0  0  0
    3.7844    4.0504    1.4093 C   0  0  1  0  0  0  0  0  0  0  0  0
    3.4492    2.7132    1.9193 N   0  0  0  0  0  0  0  0  0  0  0  0
   -0.1256    0.0665    2.6936 C   0  0  2  0  0  0  0  0  0  0  0  0
   -0.9858   -0.7051    3.5111 O   0  0  0  0  0  0  0  0  0  0  0  0
    1.2205   -0.6072    2.4316 C   0  0  2  0  0  0  0  0  0  0  0  0
    1.1400   -2.0144    2.3205 O   0  0  0  0  0  0  0  0  0  0  0  0
  2  1  1  0  0  0  0
  3  2  1  6  0  0  0
  3 30  1  0  0  0  0
  4  5  1  0  0  0  0
  4  3  1  0  0  0  0
  5 28  1  0  0  0  0
  5  6  1  6  0  0  0
  7  6  1  6  0  0  0
  8  7  1  0  0  0  0
  8  9  1  1  0  0  0
 10 11  1  6  0  0  0
 10  8  1  0  0  0  0
 12 10  1  0  0  0  0
 13 12  1  0  0  0  0
 13 15  1  0  0  0  0
 13 14  1  6  0  0  0
 15  7  1  0  0  0  0
 15 16  1  1  0  0  0
 17 16  1  1  0  0  0
 18 17  1  0  0  0  0
 19 20  1  6  0  0  0
 19 18  1  0  0  0  0
 20 21  1  0  0  0  0
 22 24  1  0  0  0  0
 22 19  1  0  0  0  0
 22 23  1  1  0  0  0
 24 25  1  6  0  0  0
 24 26  1  0  0  0  0
 26 17  1  0  0  0  0
 26 27  1  1  0  0  0
 28 29  1  1  0  0  0
 28 30  1  0  0  0  0
 30 31  1  1  0  0  0
M  END
>  <CHROM.1>
65.79347258,66.77496355,-95.07843214,-93.25328359,61.93042615,149.57876294
81.77962662,131.78354676,95.07581202,-58.77660715,-64.66311618,-174.20136748
175.13636957,-172.32361597,-179.45900325,58.61268182,1.63630500,3.68352500
2.56376289,-2.11260147,0.13505296,-0.18964284

>  <Name>
lig.pdb

>  <RI>
0

>  <Rbt.Current_Directory>
/home/itssahil/PROJECTS/Mol_Feturizer/New_Systems/rnas/2n0j

>  <Rbt.Executable>
rbdock ($Id: //depot/dev/client3/rdock/2013.1/src/exe/rbdock.cxx#4 $)

>  <Rbt.Library>
libRbt.so (2013.1, Build901 2013/11/27)

>  <Rbt.Parameter_File>
/export/apps/rDock/src/rDock_2013.1_src/data/scripts/dock_solv.prm

>  <Rbt.Receptor>
prm/pocket_docking_8.prm

>  <SCORE>
-42.5456

>  <SCORE.INTER>
-42.5938

>  <SCORE.INTER.CONST>
1

>  <SCORE.INTER.POLAR>
-5.04396

>  <SCORE.INTER.ROT>
6

>  <SCORE.INTER.SOLV>
17.1448

>  <SCORE.INTER.VDW>
-24.8976

>  <SCORE.INTER.norm>
-1.37399

>  <SCORE.INTRA>
0.0481941

>  <SCORE.INTRA.DIHEDRAL>
-4.13999

>  <SCORE.INTRA.DIHEDRAL.0>
28.0161

>  <SCORE.INTRA.POLAR>
0.127302

>  <SCORE.INTRA.POLAR.0>
-1.05798

>  <SCORE.INTRA.REPUL>
0

>  <SCORE.INTRA.REPUL.0>
0

>  <SCORE.INTRA.SOLV>
0.999359

>  <SCORE.INTRA.SOLV.lig_0>
-42.5945

>  <SCORE.INTRA.VDW>
1.18568

>  <SCORE.INTRA.VDW.0>
-5.13869

>  <SCORE.INTRA.norm>
0.00155465

>  <SCORE.RESTR>
0

>  <SCORE.RESTR.CAVITY>
0

>  <SCORE.RESTR.norm>
0

>  <SCORE.SYSTEM>
0

>  <SCORE.SYSTEM.CONST>
0

>  <SCORE.SYSTEM.DIHEDRAL>
0

>  <SCORE.SYSTEM.SOLV>
0

>  <SCORE.SYSTEM.norm>
0

>  <SCORE.heavy>
31

>  <SCORE.norm>
-1.37244

>  <RMSD>
5.686

$$$$
lig.pdb
 OpenBabel11021811453D
libRbt.so/2013.1/901 2013/11/27
 31 33  0  0  0  0  0  0  0  0999 V2000
   -6.1117   -2.0621    1.5341 O   0  0  0  0  0  0  0  0  0  0  0  0
   -4.9374   -1.3129    1.2892 C   0  0  0  0  0  0  0  0  0  0  0  0
   -3.6855   -2.0584    1.7712 C   0  0  1  0  0  0  0  0  0  0  0  0
   -2.5152   -1.2683    1.6333 O   0  0  0  0  0  0  0  0  0  0  0  0
   -1.5407   -1.6865    2.5842 C   0  0  1  0  0  0  0  0  0  0  0  0
   -1.0008   -0.5526    3.2525 O   0  0  0  0  0  0  0  0  0  0  0  0
   -0.0529    0.2274    2.5411 C   0  0  2  0  0  0  0  0  0  0  0  0
    1.3481   -0.2747    2.9248 C   0  0  1  0  0  0  0  0  0  0  0  0
    1.5566   -1.5698    2.3840 O   0  0  0  0  0  0  0  0  0  0  0  0
    2.4928    0.6193    2.4241 C   0  0  2  0  0  0  0  0  0  0  0  0
    3.7937    0.1328    2.9089 N   0  0  0  0  0  0  0  0  0  0  0  0
    2.2753    2.0497    2.9036 C   0  0  0  0  0  0  0  0  0  0  0  0
    0.9107    2.5444    2.4398 C   0  0  2  0  0  0  0  0  0  0  0  0
    0.7516    3.9386    2.8673 N   0  0  0  0  0  0  0  0  0  0  0  0
   -0.2080    1.6411    3.0022 C   0  0  1  0  0  0  0  0  0  0  0  0
   -1.4364    2.2062    2.5192 O   0  0  0  0  0  0  0  0  0  0  0  0
   -2.6215    1.9017    3.2468 C   0  0  1  0  0  0  0  0  0  0  0  0
   -2.6879    2.6702    4.4450 O   0  0  0  0  0  0  0  0  0  0  0  0
   -2.8942    4.0720    4.2841 C   0  0  2  0  0  0  0  0  0  0  0  0
   -2.9398    4.7299    5.6697 C   0  0  0  0  0  0  0  0  0  0  0  0
   -1.6702    5.3557    6.0105 N   0  0  0  0  0  0  0  0  0  0  0  0
   -4.2086    4.3496    3.5311 C   0  0  1  0  0  0  0  0  0  0  0  0
   -4.3618    5.7438    3.3326 O   0  0  0  0  0  0  0  0  0  0  0  0
   -4.1620    3.6315    2.1766 C   0  0  2  0  0  0  0  0  0  0  0  0
   -5.3924    3.7951    1.4965 O   0  0  0  0  0  0  0  0  0  0  0  0
   -3.8518    2.1403    2.3642 C   0  0  1  0  0  0  0  0  0  0  0  0
   -3.6840    1.4910    1.0562 N   0  0  0  0  0  0  0  0  0  0  0  0
   -2.2653   -2.5834    3.5984 C   0  0  2  0  0  0  0  0  0  0  0  0
   -1.8614   -3.9288    3.4242 O   0  0  0  0  0  0  0  0  0  0  0  0
   -3.7384   -2.3494    3.2676 C   0  0  2  0  0  0  0  0  0  0  0  0
   -4.5770   -3.4360    3.6069 O   0  0  0  0  0  0  0  0  0  0  0  0
  2  1  1  0  0  0  0
  3  2  1  1  0  0  0
  3 30  1  0  0  0  0
  4  5  1  0  0  0  0
  4  3  1  0  0  0  0
  5 28  1  0  0  0  0
  5  6  1  1  0  0  0
  7  6  1  1  0  0  0
  8  7  1  0  0  0  0
  8  9  1  6  0  0  0
 10 11  1  1  0  0  0
 10  8  1  0  0  0  0
 12 10  1  0  0  0  0
 13 12  1  0  0  0  0
 13 15  1  0  0  0  0
 13 14  1  1  0  0  0
 15  7  1  0  0  0  0
 15 16  1  6  0  0  0
 17 16  1  6  0  0  0
 18 17  1  0  0  0  0
 19 20  1  1  0  0  0
 19 18  1  0  0  0  0
 20 21  1  0  0  0  0
 22 24  1  0  0  0  0
 22 19  1  0  0  0  0
 22 23  1  6  0  0  0
 24 25  1  1  0  0  0
 24 26  1  0  0  0  0
 26 17  1  0  0  0  0
 26 27  1  6  0  0  0
 28 29  1  6  0  0  0
 28 30  1  0  0  0  0
 30 31  1  6  0  0  0
M  END
>  <CHROM.1>
-62.37778428,-175.03239934,-76.61224852,-94.33482338,47.11950477,64.01517131
-173.01272948,81.61642107,76.68149583,99.83857900,177.69160583,68.97573632
61.28779937,-94.27855140,70.24057523,-55.28226958,-1.92793098,0.97347819
2.91266048,1.50119617,0.06886846,-2.97179058

>  <Name>
lig.pdb

>  <RI>
0

>  <Rbt.Current_Directory>
/home/itssahil/PROJECTS/Mol_Feturizer/New_Systems/rnas/2n0j

>  <Rbt.Executable>
rbdock ($Id: //depot/dev/client3/rdock/2013.1/src/exe/rbdock.cxx#4 $)

>  <Rbt.Library>
libRbt.so (2013.1, Build901 2013/11/27)

>  <Rbt.Parameter_File>
/export/apps/rDock/src/rDock_2013.1_src/data/scripts/dock_solv.prm

>  <Rbt.Receptor>
prm/pocket_docking_8.prm

>  <SCORE>
-39.7164

>  <SCORE.INTER>
-34.5135

>  <SCORE.INTER.CONST>
1

>  <SCORE.INTER.POLAR>
-5.60276

>  <SCORE.INTER.ROT>
6

>  <SCORE.INTER.SOLV>
17.8361

>  <SCORE.INTER.VDW>
-17.8785

>  <SCORE.INTER.norm>
-1.11334

>  <SCORE.INTRA>
-5.20456

>  <SCORE.INTRA.DIHEDRAL>
-10.4509

>  <SCORE.INTRA.DIHEDRAL.0>
28.0161

>  <SCORE.INTRA.POLAR>
-0.183393

>  <SCORE.INTRA.POLAR.0>
-1.05798

>  <SCORE.INTRA.REPUL>
0

>  <SCORE.INTRA.REPUL.0>
0

>  <SCORE.INTRA.SOLV>
0.351366

>  <SCORE.INTRA.SOLV.lig_0>
-42.5945

>  <SCORE.INTRA.VDW>
0.468764

>  <SCORE.INTRA.VDW.0>
-5.13869

>  <SCORE.INTRA.norm>
-0.167889

>  <SCORE.RESTR>
0.00163818

>  <SCORE.RESTR.CAVITY>
0.00163818

>  <SCORE.RESTR.norm>
5.28446e-05

>  <SCORE.SYSTEM>
0

>  <SCORE.SYSTEM.CONST>
0

>  <SCORE.SYSTEM.DIHEDRAL>
0

>  <SCORE.SYSTEM.SOLV>
0

>  <SCORE.SYSTEM.norm>
0

>  <SCORE.heavy>
31

>  <SCORE.norm>
-1.28118

>  <RMSD>
5.692

$$$$
lig.pdb
 OpenBabel11021811453D
libRbt.so/2013.1/901 2013/11/27
 31 33  0  0  0  0  0  0  0  0999 V2000
   -3.8372    5.9674    6.2050 O   0  0  0  0  0  0  0  0  0  0  0  0
   -2.9666    4.8793    5.9639 C   0  0  0  0  0  0  0  0  0  0  0  0
   -1.8206    5.2755    5.0231 C   0  0  1  0  0  0  0  0  0  0  0  0
   -0.7676    4.3248    5.0449 O   0  0  0  0  0  0  0  0  0  0  0  0
   -0.0595    4.3666    3.8098 C   0  0  1  0  0  0  0  0  0  0  0  0
    0.1220    3.0461    3.3126 O   0  0  0  0  0  0  0  0  0  0  0  0
    1.3624    2.4153    3.5889 C   0  0  2  0  0  0  0  0  0  0  0  0
    2.3764    2.8975    2.5394 C   0  0  1  0  0  0  0  0  0  0  0  0
    2.6784    4.2663    2.7600 O   0  0  0  0  0  0  0  0  0  0  0  0
    3.7060    2.1281    2.5532 C   0  0  2  0  0  0  0  0  0  0  0  0
    4.5869    2.5763    1.4636 N   0  0  0  0  0  0  0  0  0  0  0  0
    3.4375    0.6350    2.4069 C   0  0  0  0  0  0  0  0  0  0  0  0
    2.4915    0.1734    3.5087 C   0  0  2  0  0  0  0  0  0  0  0  0
    2.2947   -1.2742    3.3764 N   0  0  0  0  0  0  0  0  0  0  0  0
    1.1558    0.9434    3.4277 C   0  0  1  0  0  0  0  0  0  0  0  0
    0.3460    0.4196    4.4915 O   0  0  0  0  0  0  0  0  0  0  0  0
   -1.0402    0.2382    4.2233 C   0  0  1  0  0  0  0  0  0  0  0  0
   -1.3948    0.8366    2.9795 O   0  0  0  0  0  0  0  0  0  0  0  0
   -0.8708    0.2142    1.8084 C   0  0  2  0  0  0  0  0  0  0  0  0
   -1.3552    0.9882    0.5752 C   0  0  0  0  0  0  0  0  0  0  0  0
   -1.4805    2.4127    0.8486 N   0  0  0  0  0  0  0  0  0  0  0  0
   -1.3283   -1.2534    1.7165 C   0  0  1  0  0  0  0  0  0  0  0  0
   -0.7485   -1.8656    0.5782 O   0  0  0  0  0  0  0  0  0  0  0  0
   -0.8849   -1.9888    2.9873 C   0  0  2  0  0  0  0  0  0  0  0  0
   -1.3669   -3.3194    2.9730 O   0  0  0  0  0  0  0  0  0  0  0  0
   -1.3840   -1.2556    4.2397 C   0  0  1  0  0  0  0  0  0  0  0  0
   -0.8465   -1.8969    5.4482 N   0  0  0  0  0  0  0  0  0  0  0  0
   -0.9246    5.1705    2.8282 C   0  0  2  0  0  0  0  0  0  0  0  0
   -0.3231    6.4267    2.5756 O   0  0  0  0  0  0  0  0  0  0  0  0
   -2.2601    5.2792    3.5624 C   0  0  2  0  0  0  0  0  0  0  0  0
   -3.0180    6.4162    3.1989 O   0  0  0  0  0  0  0  0  0  0  0  0
  2  1  1  0  0  0  0
  3  2  1  1  0  0  0
  3 30  1  0  0  0  0
  4  5  1  0  0  0  0
  4  3  1  0  0  0  0
  5 28  1  0  0  0  0
  5  6  1  6  0  0  0
  7  6  1  6  0  0  0
  8  7  1  0  0  0  0
  8  9  1  1  0  0  0
 10 11  1  6  0  0  0
 10  8  1  0  0  0  0
 12 10  1  0  0  0  0
 13 12  1  0  0  0  0
 13 15  1  0  0  0  0
 13 14  1  6  0  0  0
 15  7  1  0  0  0  0
 15 16  1  1  0  0  0
 17 16  1  6  0  0  0
 18 17  1  0  0  0  0
 19 20  1  6  0  0  0
 19 18  1  0  0  0  0
 20 21  1  0  0  0  0
 22 24  1  0  0  0  0
 22 19  1  0  0  0  0
 22 23  1  6  0  0  0
 24 25  1  6  0  0  0
 24 26  1  0  0  0  0
 26 17  1  0  0  0  0
 26 27  1  1  0  0  0
 28 29  1  1  0  0  0
 28 30  1  0  0  0  0
 30 31  1  6  0  0  0
M  END
>  <CHROM.1>
-48.71163966,164.80579065,-96.71689249,-82.73664025,-172.02698013,57.73839952
33.51961652,98.12702382,-9.74391347,33.53858174,-9.41796932,179.75523450
157.84937937,106.87934521,-60.36472302,175.96792596,-0.14335447,1.92959324
3.21931077,1.87841236,0.32101926,0.09956204

>  <Name>
lig.pdb

>  <RI>
1.79691e+07

>  <Rbt.Current_Directory>
/home/itssahil/PROJECTS/Mol_Feturizer/New_Systems/rnas/2n0j

>  <Rbt.Executable>
rbdock ($Id: //depot/dev/client3/rdock/2013.1/src/exe/rbdock.cxx#4 $)

>  <Rbt.Library>
libRbt.so (2013.1, Build901 2013/11/27)

>  <Rbt.Parameter_File>
/export/apps/rDock/src/rDock_2013.1_src/data/scripts/dock_solv.prm

>  <Rbt.Receptor>
prm/blind_docking_20.prm

>  <SCORE>
-30.2968

>  <SCORE.INTER>
-43.5013

>  <SCORE.INTER.CONST>
1

>  <SCORE.INTER.POLAR>
-7.21309

>  <SCORE.INTER.ROT>
6

>  <SCORE.INTER.SOLV>
20.0915

>  <SCORE.INTER.VDW>
-19.2544

>  <SCORE.INTER.norm>
-1.40327

>  <SCORE.INTRA>
6.35586

>  <SCORE.INTRA.DIHEDRAL>
5.26442

>  <SCORE.INTRA.DIHEDRAL.0>
28.0161

>  <SCORE.INTRA.POLAR>
-0.176155

>  <SCORE.INTRA.POLAR.0>
-1.05798

>  <SCORE.INTRA.REPUL>
0

>  <SCORE.INTRA.REPUL.0>
0

>  <SCORE.INTRA.SOLV>
1.48351

>  <SCORE.INTRA.SOLV.lig_0>
-42.5945

>  <SCORE.INTRA.VDW>
3.58083

>  <SCORE.INTRA.VDW.0>
-5.13869

>  <SCORE.INTRA.norm>
0.205028

>  <SCORE.RESTR>
6.84861

>  <SCORE.RESTR.CAVITY>
6.84861

>  <SCORE.RESTR.norm>
0.220923

>  <SCORE.SYSTEM>
0

>  <SCORE.SYSTEM.CONST>
0

>  <SCORE.SYSTEM.DIHEDRAL>
0

>  <SCORE.SYSTEM.SOLV>
0

>  <SCORE.SYSTEM.norm>
0

>  <SCORE.heavy>
31

>  <SCORE.norm>
-0.977317

>  <RMSD>
5.695

$$$$
lig.pdb
 OpenBabel11021811453D
libRbt.so/2013.1/901 2013/11/27
 31 33  0  0  0  0  0  0  0  0999 V2000
    1.0705    7.1577    3.0046 O   0  0  0  0  0  0  0  0  0  0  0  0
    1.3295    6.1690    2.0271 C   0  0  0  0  0  0  0  0  0  0  0  0
    0.2700    5.0591    2.0572 C   0  0  1  0  0  0  0  0  0  0  0  0
    0.4858    4.0961    1.0379 O   0  0  0  0  0  0  0  0  0  0  0  0
   -0.0728    2.8470    1.4337 C   0  0  1  0  0  0  0  0  0  0  0  0
    0.8689    1.8045    1.2096 O   0  0  0  0  0  0  0  0  0  0  0  0
    0.3528    0.5316    0.8541 C   0  0  2  0  0  0  0  0  0  0  0  0
   -0.9030    0.7587   -0.0023 C   0  0  1  0  0  0  0  0  0  0  0  0
   -0.5318    1.2961   -1.2620 O   0  0  0  0  0  0  0  0  0  0  0  0
   -1.7167   -0.5163   -0.2713 C   0  0  2  0  0  0  0  0  0  0  0  0
   -2.9505   -0.2091   -1.0112 N   0  0  0  0  0  0  0  0  0  0  0  0
   -2.0715   -1.1880    1.0501 C   0  0  0  0  0  0  0  0  0  0  0  0
   -0.7993   -1.4705    1.8398 C   0  0  2  0  0  0  0  0  0  0  0  0
   -1.1657   -2.1648    3.0789 N   0  0  0  0  0  0  0  0  0  0  0  0
   -0.0391   -0.1567    2.1222 C   0  0  1  0  0  0  0  0  0  0  0  0
    1.1204   -0.5392    2.8776 O   0  0  0  0  0  0  0  0  0  0  0  0
    1.7004    0.4494    3.7220 C   0  0  1  0  0  0  0  0  0  0  0  0
    0.9598    0.5742    4.9330 O   0  0  0  0  0  0  0  0  0  0  0  0
    1.0258   -0.5329    5.8293 C   0  0  2  0  0  0  0  0  0  0  0  0
    0.1759   -0.2207    7.0682 C   0  0  0  0  0  0  0  0  0  0  0  0
   -0.6147   -1.3710    7.4825 N   0  0  0  0  0  0  0  0  0  0  0  0
    2.4807   -0.8107    6.2509 C   0  0  1  0  0  0  0  0  0  0  0  0
    2.5265   -1.9488    7.0930 O   0  0  0  0  0  0  0  0  0  0  0  0
    3.3202   -1.0591    4.9916 C   0  0  2  0  0  0  0  0  0  0  0  0
    4.6811   -1.2311    5.3400 O   0  0  0  0  0  0  0  0  0  0  0  0
    3.1673    0.1026    4.0005 C   0  0  1  0  0  0  0  0  0  0  0  0
    3.8728   -0.2057    2.7484 N   0  0  0  0  0  0  0  0  0  0  0  0
   -0.3757    2.9513    2.9356 C   0  0  2  0  0  0  0  0  0  0  0  0
   -1.7751    3.0091    3.1403 O   0  0  0  0  0  0  0  0  0  0  0  0
    0.3455    4.2363    3.3394 C   0  0  2  0  0  0  0  0  0  0  0  0
   -0.2241    4.8790    4.4626 O   0  0  0  0  0  0  0  0  0  0  0  0
  2  1  1  0  0  0  0
  3  2  1  1  0  0  0
  3 30  1  0  0  0  0
  4  5  1  0  0  0  0
  4  3  1  0  0  0  0
  5 28  1  0  0  0  0
  5  6  1  1  0  0  0
  7  6  1  1  0  0  0
  8  7  1  0  0  0  0
  8  9  1  6  0  0  0
 10 11  1  1  0  0  0
 10  8  1  0  0  0  0
 12 10  1  0  0  0  0
 13 12  1  0  0  0  0
 13 15  1  0  0  0  0
 13 14  1  1  0  0  0
 15  7  1  0  0  0  0
 15 16  1  6  0  0  0
 17 16  1  6  0  0  0
 18 17  1  0  0  0  0
 19 20  1  1  0  0  0
 19 18  1  0  0  0  0
 20 21  1  0  0  0  0
 22 24  1  0  0  0  0
 22 19  1  0  0  0  0
 22 23  1  1  0  0  0
 24 25  1  1  0  0  0
 24 26  1  0  0  0  0
 26 17  1  0  0  0  0
 26 27  1  6  0  0  0
 28 29  1  6  0  0  0
 28 30  1  0  0  0  0
 30 31  1  1  0  0  0
M  END
>  <CHROM.1>
-75.70228545,177.19152723,-147.37217455,34.31577124,-41.19254962,36.46242075
-76.61199959,84.03893282,79.12826215,137.42761612,76.95226409,52.88931287
-74.45831147,37.31183535,67.24182687,-43.34508262,0.52937986,1.04632590,3.03439263
-2.25124311,0.99742136,2.95921787

>  <Name>
lig.pdb

>  <RI>
0

>  <Rbt.Current_Directory>
/home/itssahil/PROJECTS/Mol_Feturizer/New_Systems/rnas/2n0j

>  <Rbt.Executable>
rbdock ($Id: //depot/dev/client3/rdock/2013.1/src/exe/rbdock.cxx#4 $)

>  <Rbt.Library>
libRbt.so (2013.1, Build901 2013/11/27)

>  <Rbt.Parameter_File>
/export/apps/rDock/src/rDock_2013.1_src/data/scripts/dock_solv.prm

>  <Rbt.Receptor>
prm/blind_docking_60.prm

>  <SCORE>
-29.6984

>  <SCORE.INTER>
-36.2241

>  <SCORE.INTER.CONST>
1

>  <SCORE.INTER.POLAR>
-5.2037

>  <SCORE.INTER.ROT>
6

>  <SCORE.INTER.SOLV>
24.2316

>  <SCORE.INTER.VDW>
-22.481

>  <SCORE.INTER.norm>
-1.16852

>  <SCORE.INTRA>
4.4513

>  <SCORE.INTRA.DIHEDRAL>
-3.28302

>  <SCORE.INTRA.DIHEDRAL.0>
28.0161

>  <SCORE.INTRA.POLAR>
0.709833

>  <SCORE.INTRA.POLAR.0>
-1.05798

>  <SCORE.INTRA.REPUL>
0

>  <SCORE.INTRA.REPUL.0>
0

>  <SCORE.INTRA.SOLV>
0.382971

>  <SCORE.INTRA.SOLV.lig_0>
-42.5945

>  <SCORE.INTRA.VDW>
3.4879

>  <SCORE.INTRA.VDW.0>
-5.13869

>  <SCORE.INTRA.norm>
0.14359

>  <SCORE.RESTR>
2.07441

>  <SCORE.RESTR.CAVITY>
2.07441

>  <SCORE.RESTR.norm>
0.0669164

>  <SCORE.SYSTEM>
0

>  <SCORE.SYSTEM.CONST>
0

>  <SCORE.SYSTEM.DIHEDRAL>
0

>  <SCORE.SYSTEM.SOLV>
0

>  <SCORE.SYSTEM.norm>
0

>  <SCORE.heavy>
31

>  <SCORE.norm>
-0.958014

>  <RMSD>
5.695

$$$$
lig.pdb
 OpenBabel11021811453D
libRbt.so/2013.1/901 2013/11/27
 31 33  0  0  0  0  0  0  0  0999 V2000
    1.2339    7.0651    1.4395 O   0  0  0  0  0  0  0  0  0  0  0  0
    1.3465    6.0845    2.4524 C   0  0  0  0  0  0  0  0  0  0  0  0
    0.2868    4.9863    2.2906 C   0  0  1  0  0  0  0  0  0  0  0  0
    0.5633    4.1457    1.1816 O   0  0  0  0  0  0  0  0  0  0  0  0
   -0.0185    2.8634    1.3962 C   0  0  1  0  0  0  0  0  0  0  0  0
    0.9347    1.8469    1.1100 O   0  0  0  0  0  0  0  0  0  0  0  0
    0.4310    0.5693    0.7538 C   0  0  2  0  0  0  0  0  0  0  0  0
   -0.8545    0.7838   -0.0608 C   0  0  1  0  0  0  0  0  0  0  0  0
   -0.5321    1.3438   -1.3241 O   0  0  0  0  0  0  0  0  0  0  0  0
   -1.6529   -0.5025   -0.3215 C   0  0  2  0  0  0  0  0  0  0  0  0
   -2.9143   -0.2090   -1.0192 N   0  0  0  0  0  0  0  0  0  0  0  0
   -1.9546   -1.1972    1.0012 C   0  0  0  0  0  0  0  0  0  0  0  0
   -0.6538   -1.4660    1.7479 C   0  0  2  0  0  0  0  0  0  0  0  0
   -0.9692   -2.1826    2.9884 N   0  0  0  0  0  0  0  0  0  0  0  0
    0.0909   -0.1421    2.0241 C   0  0  1  0  0  0  0  0  0  0  0  0
    1.2799   -0.5125    2.7386 O   0  0  0  0  0  0  0  0  0  0  0  0
    1.7483    0.3922    3.7330 C   0  0  1  0  0  0  0  0  0  0  0  0
    1.0114    0.2360    4.9427 O   0  0  0  0  0  0  0  0  0  0  0  0
    1.2176   -0.9828    5.6535 C   0  0  2  0  0  0  0  0  0  0  0  0
    0.3504   -0.9726    6.9195 C   0  0  0  0  0  0  0  0  0  0  0  0
    0.7709    0.0637    7.8517 N   0  0  0  0  0  0  0  0  0  0  0  0
    2.6997   -1.1494    6.0374 C   0  0  1  0  0  0  0  0  0  0  0  0
    2.8888   -2.3925    6.6896 O   0  0  0  0  0  0  0  0  0  0  0  0
    3.5487   -1.0950    4.7612 C   0  0  2  0  0  0  0  0  0  0  0  0
    4.9242   -1.1575    5.0887 O   0  0  0  0  0  0  0  0  0  0  0  0
    3.2488    0.1820    3.9647 C   0  0  1  0  0  0  0  0  0  0  0  0
    3.9720    0.1606    2.6852 N   0  0  0  0  0  0  0  0  0  0  0  0
   -0.4114    2.7960    2.8792 C   0  0  2  0  0  0  0  0  0  0  0  0
   -1.8205    2.8400    3.0052 O   0  0  0  0  0  0  0  0  0  0  0  0
    0.2845    4.0206    3.4713 C   0  0  2  0  0  0  0  0  0  0  0  0
   -0.3515    4.5337    4.6251 O   0  0  0  0  0  0  0  0  0  0  0  0
  2  1  1  0  0  0  0
  3  2  1  1  0  0  0
  3 30  1  0  0  0  0
  4  5  1  0  0  0  0
  4  3  1  0  0  0  0
  5 28  1  0  0  0  0
  5  6  1  1  0  0  0
  7  6  1  1  0  0  0
  8  7  1  0  0  0  0
  8  9  1  6  0  0  0
 10 11  1  1  0  0  0
 10  8  1  0  0  0  0
 12 10  1  0  0  0  0
 13 12  1  0  0  0  0
 13 15  1  0  0  0  0
 13 14  1  1  0  0  0
 15  7  1  0  0  0  0
 15 16  1  6  0  0  0
 17 16  1  6  0  0  0
 18 17  1  0  0  0  0
 19 20  1  1  0  0  0
 19 18  1  0  0  0  0
 20 21  1  0  0  0  0
 22 24  1  0  0  0  0
 22 19  1  0  0  0  0
 22 23  1  6  0  0  0
 24 25  1  1  0  0  0
 24 26  1  0  0  0  0
 26 17  1  0  0  0  0
 26 27  1  6  0  0  0
 28 29  1  6  0  0  0
 28 30  1  0  0  0  0
 30 31  1  1  0  0  0
M  END
>  <CHROM.1>
-53.35787382,71.82825296,-155.72433691,35.24648015,47.20215843,-82.88320136
47.49824734,93.67884469,80.42154796,-65.30809161,103.21322587,-56.44169968
67.41043132,46.85820576,-166.76858356,-39.77474031,0.67460227,1.01130253
2.94472417,-2.35332949,0.97800671,3.00334125

>  <Name>
lig.pdb

>  <RI>
0

>  <Rbt.Current_Directory>
/home/itssahil/PROJECTS/Mol_Feturizer/New_Systems/rnas/2n0j

>  <Rbt.Executable>
rbdock ($Id: //depot/dev/client3/rdock/2013.1/src/exe/rbdock.cxx#4 $)

>  <Rbt.Library>
libRbt.so (2013.1, Build901 2013/11/27)

>  <Rbt.Parameter_File>
/export/apps/rDock/src/rDock_2013.1_src/data/scripts/dock_solv.prm

>  <Rbt.Receptor>
prm/blind_docking_60.prm

>  <SCORE>
-35.9985

>  <SCORE.INTER>
-42.7082

>  <SCORE.INTER.CONST>
1

>  <SCORE.INTER.POLAR>
-5.26034

>  <SCORE.INTER.ROT>
6

>  <SCORE.INTER.SOLV>
24.9314

>  <SCORE.INTER.VDW>
-26.8481

>  <SCORE.INTER.norm>
-1.37768

>  <SCORE.INTRA>
4.46511

>  <SCORE.INTRA.DIHEDRAL>
-6.9523

>  <SCORE.INTRA.DIHEDRAL.0>
28.0161

>  <SCORE.INTRA.POLAR>
1.02361

>  <SCORE.INTRA.POLAR.0>
-1.05798

>  <SCORE.INTRA.REPUL>
0

>  <SCORE.INTRA.REPUL.0>
0

>  <SCORE.INTRA.SOLV>
0.102489

>  <SCORE.INTRA.SOLV.lig_0>
-42.5945

>  <SCORE.INTRA.VDW>
4.40973

>  <SCORE.INTRA.VDW.0>
-5.13869

>  <SCORE.INTRA.norm>
0.144036

>  <SCORE.RESTR>
2.2445

>  <SCORE.RESTR.CAVITY>
2.2445

>  <SCORE.RESTR.norm>
0.0724031

>  <SCORE.SYSTEM>
0

>  <SCORE.SYSTEM.CONST>
0

>  <SCORE.SYSTEM.DIHEDRAL>
0

>  <SCORE.SYSTEM.SOLV>
0

>  <SCORE.SYSTEM.norm>
0

>  <SCORE.heavy>
31

>  <SCORE.norm>
-1.16124

>  <RMSD>
5.704

$$$$
lig.pdb
 OpenBabel11021811453D
libRbt.so/2013.1/901 2013/11/27
 31 33  0  0  0  0  0  0  0  0999 V2000
    2.5609    5.4745    2.7554 O   0  0  0  0  0  0  0  0  0  0  0  0
    1.2729    6.0366    2.5966 C   0  0  0  0  0  0  0  0  0  0  0  0
    0.2110    4.9517    2.3721 C   0  0  1  0  0  0  0  0  0  0  0  0
    0.5266    4.1262    1.2622 O   0  0  0  0  0  0  0  0  0  0  0  0
   -0.0755    2.8465    1.4310 C   0  0  1  0  0  0  0  0  0  0  0  0
    0.8795    1.8252    1.1687 O   0  0  0  0  0  0  0  0  0  0  0  0
    0.3798    0.5589    0.7693 C   0  0  2  0  0  0  0  0  0  0  0  0
   -0.8509    0.8008   -0.1189 C   0  0  1  0  0  0  0  0  0  0  0  0
   -0.4447    1.3680   -1.3545 O   0  0  0  0  0  0  0  0  0  0  0  0
   -1.6508   -0.4707   -0.4408 C   0  0  2  0  0  0  0  0  0  0  0  0
   -2.8633   -0.1514   -1.2101 N   0  0  0  0  0  0  0  0  0  0  0  0
   -2.0418   -1.1736    0.8539 C   0  0  0  0  0  0  0  0  0  0  0  0
   -0.7925   -1.4693    1.6747 C   0  0  2  0  0  0  0  0  0  0  0  0
   -1.1926   -2.1930    2.8863 N   0  0  0  0  0  0  0  0  0  0  0  0
   -0.0468   -0.1595    2.0092 C   0  0  1  0  0  0  0  0  0  0  0  0
    1.0914   -0.5548    2.7901 O   0  0  0  0  0  0  0  0  0  0  0  0
    1.5462    0.3581    3.7833 C   0  0  1  0  0  0  0  0  0  0  0  0
    0.7804    0.2250    4.9776 O   0  0  0  0  0  0  0  0  0  0  0  0
    0.9579   -0.9865    5.7086 C   0  0  2  0  0  0  0  0  0  0  0  0
    0.0622   -0.9512    6.9540 C   0  0  0  0  0  0  0  0  0  0  0  0
    0.4073    0.1560    7.8342 N   0  0  0  0  0  0  0  0  0  0  0  0
    2.4290   -1.1627    6.1285 C   0  0  1  0  0  0  0  0  0  0  0  0
    2.5906   -2.3990    6.8007 O   0  0  0  0  0  0  0  0  0  0  0  0
    3.3075   -1.1333    4.8715 C   0  0  2  0  0  0  0  0  0  0  0  0
    4.6744   -1.2051    5.2313 O   0  0  0  0  0  0  0  0  0  0  0  0
    3.0389    0.1361    4.0521 C   0  0  1  0  0  0  0  0  0  0  0  0
    3.7908    0.0909    2.7899 N   0  0  0  0  0  0  0  0  0  0  0  0
   -0.5317    2.7593    2.8947 C   0  0  2  0  0  0  0  0  0  0  0  0
   -1.9445    2.8152    2.9616 O   0  0  0  0  0  0  0  0  0  0  0  0
    0.1497    3.9673    3.5357 C   0  0  2  0  0  0  0  0  0  0  0  0
   -0.5301    4.4681    4.6698 O   0  0  0  0  0  0  0  0  0  0  0  0
  2  1  1  0  0  0  0
  3  2  1  1  0  0  0
  3 30  1  0  0  0  0
  4  5  1  0  0  0  0
  4  3  1  0  0  0  0
  5 28  1  0  0  0  0
  5  6  1  1  0  0  0
  7  6  1  1  0  0  0
  8  7  1  0  0  0  0
  8  9  1  6  0  0  0
 10 11  1  1  0  0  0
 10  8  1  0  0  0  0
 12 10  1  0  0  0  0
 13 12  1  0  0  0  0
 13 15  1  0  0  0  0
 13 14  1  1  0  0  0
 15  7  1  0  0  0  0
 15 16  1  1  0  0  0
 17 16  1  6  0  0  0
 18 17  1  0  0  0  0
 19 20  1  1  0  0  0
 19 18  1  0  0  0  0
 20 21  1  0  0  0  0
 22 24  1  0  0  0  0
 22 19  1  0  0  0  0
 22 23  1  6  0  0  0
 24 25  1  1  0  0  0
 24 26  1  0  0  0  0
 26 17  1  0  0  0  0
 26 27  1  6  0  0  0
 28 29  1  6  0  0  0
 28 30  1  0  0  0  0
 30 31  1  1  0  0  0
M  END
>  <CHROM.1>
177.84920287,-56.09491655,-155.66139048,36.34120149,48.57155123,25.96519648
166.54412541,91.13096516,82.71838799,-60.97615814,-156.42953289,171.54360474
77.57277944,-72.07363248,68.52453897,-172.39081109,0.58758122,0.93639731
3.01152249,-2.46284327,0.99803176,2.96100938

>  <Name>
lig.pdb

>  <RI>
0

>  <Rbt.Current_Directory>
/home/itssahil/PROJECTS/Mol_Feturizer/New_Systems/rnas/2n0j

>  <Rbt.Executable>
rbdock ($Id: //depot/dev/client3/rdock/2013.1/src/exe/rbdock.cxx#4 $)

>  <Rbt.Library>
libRbt.so (2013.1, Build901 2013/11/27)

>  <Rbt.Parameter_File>
/export/apps/rDock/src/rDock_2013.1_src/data/scripts/dock_solv.prm

>  <Rbt.Receptor>
prm/blind_docking_40.prm

>  <SCORE>
-32.2972

>  <SCORE.INTER>
-37.453

>  <SCORE.INTER.CONST>
1

>  <SCORE.INTER.POLAR>
-4.85661

>  <SCORE.INTER.ROT>
6

>  <SCORE.INTER.SOLV>
24.2553

>  <SCORE.INTER.VDW>
-24.4651

>  <SCORE.INTER.norm>
-1.20816

>  <SCORE.INTRA>
2.55355

>  <SCORE.INTRA.DIHEDRAL>
-9.38984

>  <SCORE.INTRA.DIHEDRAL.0>
28.0161

>  <SCORE.INTRA.POLAR>
1.04302

>  <SCORE.INTRA.POLAR.0>
-1.05798

>  <SCORE.INTRA.REPUL>
0.00158202

>  <SCORE.INTRA.REPUL.0>
0

>  <SCORE.INTRA.SOLV>
0.744744

>  <SCORE.INTRA.SOLV.lig_0>
-42.5945

>  <SCORE.INTRA.VDW>
3.32191

>  <SCORE.INTRA.VDW.0>
-5.13869

>  <SCORE.INTRA.norm>
0.0823727

>  <SCORE.RESTR>
2.60227

>  <SCORE.RESTR.CAVITY>
2.60227

>  <SCORE.RESTR.norm>
0.0839442

>  <SCORE.SYSTEM>
0

>  <SCORE.SYSTEM.CONST>
0

>  <SCORE.SYSTEM.DIHEDRAL>
0

>  <SCORE.SYSTEM.SOLV>
0

>  <SCORE.SYSTEM.norm>
0

>  <SCORE.heavy>
31

>  <SCORE.norm>
-1.04185

>  <RMSD>
5.706

$$$$
lig.pdb
 OpenBabel11021811453D
libRbt.so/2013.1/901 2013/11/27
 31 33  0  0  0  0  0  0  0  0999 V2000
   -0.9042   -0.3560    9.1375 O   0  0  0  0  0  0  0  0  0  0  0  0
   -2.1691    0.1286    8.7309 C   0  0  0  0  0  0  0  0  0  0  0  0
   -2.1788    1.6602    8.6349 C   0  0  1  0  0  0  0  0  0  0  0  0
   -1.3666    2.1272    7.5694 O   0  0  0  0  0  0  0  0  0  0  0  0
   -1.8399    3.3957    7.1273 C   0  0  1  0  0  0  0  0  0  0  0  0
   -1.9398    3.4058    5.7082 O   0  0  0  0  0  0  0  0  0  0  0  0
   -1.4633    4.5596    5.0340 C   0  0  2  0  0  0  0  0  0  0  0  0
   -2.3819    5.7333    5.4095 C   0  0  1  0  0  0  0  0  0  0  0  0
   -2.1853    6.0774    6.7720 O   0  0  0  0  0  0  0  0  0  0  0  0
   -2.1462    7.0038    4.5786 C   0  0  2  0  0  0  0  0  0  0  0  0
   -3.1215    8.0494    4.9243 N   0  0  0  0  0  0  0  0  0  0  0  0
   -2.2588    6.6758    3.0945 C   0  0  0  0  0  0  0  0  0  0  0  0
   -1.2799    5.5634    2.7392 C   0  0  2  0  0  0  0  0  0  0  0  0
   -1.3708    5.3068    1.2978 N   0  0  0  0  0  0  0  0  0  0  0  0
   -1.5830    4.2960    3.5672 C   0  0  1  0  0  0  0  0  0  0  0  0
   -0.6198    3.3201    3.1413 O   0  0  0  0  0  0  0  0  0  0  0  0
   -0.7736    1.9956    3.6398 C   0  0  1  0  0  0  0  0  0  0  0  0
   -2.0960    1.5197    3.4048 O   0  0  0  0  0  0  0  0  0  0  0  0
   -2.4451    1.2741    2.0441 C   0  0  2  0  0  0  0  0  0  0  0  0
   -3.8931    0.7696    1.9858 C   0  0  0  0  0  0  0  0  0  0  0  0
   -4.5718    1.2197    0.7790 N   0  0  0  0  0  0  0  0  0  0  0  0
   -1.5030    0.2301    1.4165 C   0  0  1  0  0  0  0  0  0  0  0  0
   -1.8324    0.0469    0.0511 O   0  0  0  0  0  0  0  0  0  0  0  0
   -0.0586    0.7304    1.5424 C   0  0  2  0  0  0  0  0  0  0  0  0
    0.8397   -0.2476    1.0530 O   0  0  0  0  0  0  0  0  0  0  0  0
    0.2711    1.0730    3.0015 C   0  0  1  0  0  0  0  0  0  0  0  0
    1.6114    1.6700    3.0897 N   0  0  0  0  0  0  0  0  0  0  0  0
   -3.2341    3.5889    7.7415 C   0  0  2  0  0  0  0  0  0  0  0  0
   -3.1819    4.5825    8.7482 O   0  0  0  0  0  0  0  0  0  0  0  0
   -3.5622    2.1987    8.2839 C   0  0  2  0  0  0  0  0  0  0  0  0
   -4.4616    2.2117    9.3748 O   0  0  0  0  0  0  0  0  0  0  0  0
  2  1  1  0  0  0  0
  3  2  1  6  0  0  0
  3 30  1  0  0  0  0
  4  5  1  0  0  0  0
  4  3  1  0  0  0  0
  5 28  1  0  0  0  0
  5  6  1  6  0  0  0
  7  6  1  1  0  0  0
  8  7  1  0  0  0  0
  8  9  1  1  0  0  0
 10 11  1  1  0  0  0
 10  8  1  0  0  0  0
 12 10  1  0  0  0  0
 13 12  1  0  0  0  0
 13 15  1  0  0  0  0
 13 14  1  6  0  0  0
 15  7  1  0  0  0  0
 15 16  1  6  0  0  0
 17 16  1  6  0  0  0
 18 17  1  0  0  0  0
 19 20  1  1  0  0  0
 19 18  1  0  0  0  0
 20 21  1  0  0  0  0
 22 24  1  0  0  0  0
 22 19  1  0  0  0  0
 22 23  1  6  0  0  0
 24 25  1  1  0  0  0
 24 26  1  0  0  0  0
 26 17  1  0  0  0  0
 26 27  1  6  0  0  0
 28 29  1  1  0  0  0
 28 30  1  0  0  0  0
 30 31  1  1  0  0  0
M  END
>  <CHROM.1>
60.60423457,68.31035921,-136.32548250,-66.71311154,149.25360581,-154.71834504
-178.32194435,66.32803191,52.42081603,146.38437773,86.90711052,-176.33338924
142.09643455,77.57099840,-54.43726931,62.53526157,-1.85847836,2.88930558
4.63101070,-2.67624278,1.33339191,-0.78014902

>  <Name>
lig.pdb

>  <RI>
0

>  <Rbt.Current_Directory>
/home/itssahil/PROJECTS/Mol_Feturizer/New_Systems/rnas/2n0j

>  <Rbt.Executable>
rbdock ($Id: //depot/dev/client3/rdock/2013.1/src/exe/rbdock.cxx#4 $)

>  <Rbt.Library>
libRbt.so (2013.1, Build901 2013/11/27)

>  <Rbt.Parameter_File>
/export/apps/rDock/src/rDock_2013.1_src/data/scripts/dock_solv.prm

>  <Rbt.Receptor>
prm/pocket_docking_5.prm

>  <SCORE>
-40.4562

>  <SCORE.INTER>
-45.9362

>  <SCORE.INTER.CONST>
1

>  <SCORE.INTER.POLAR>
-6.49431

>  <SCORE.INTER.ROT>
6

>  <SCORE.INTER.SOLV>
15.4256

>  <SCORE.INTER.VDW>
-21.7183

>  <SCORE.INTER.norm>
-1.48181

>  <SCORE.INTRA>
5.48008

>  <SCORE.INTRA.DIHEDRAL>
-5.05436

>  <SCORE.INTRA.DIHEDRAL.0>
28.0161

>  <SCORE.INTRA.POLAR>
0.957893

>  <SCORE.INTRA.POLAR.0>
-1.05798

>  <SCORE.INTRA.REPUL>
0

>  <SCORE.INTRA.REPUL.0>
0

>  <SCORE.INTRA.SOLV>
0.490069

>  <SCORE.INTRA.SOLV.lig_0>
-42.5945

>  <SCORE.INTRA.VDW>
4.50539

>  <SCORE.INTRA.VDW.0>
-5.13869

>  <SCORE.INTRA.norm>
0.176777

>  <SCORE.RESTR>
0

>  <SCORE.RESTR.CAVITY>
0

>  <SCORE.RESTR.norm>
0

>  <SCORE.SYSTEM>
0

>  <SCORE.SYSTEM.CONST>
0

>  <SCORE.SYSTEM.DIHEDRAL>
0

>  <SCORE.SYSTEM.SOLV>
0

>  <SCORE.SYSTEM.norm>
0

>  <SCORE.heavy>
31

>  <SCORE.norm>
-1.30504

>  <RMSD>
5.707

$$$$
lig.pdb
 OpenBabel11021811453D
libRbt.so/2013.1/901 2013/11/27
 31 33  0  0  0  0  0  0  0  0999 V2000
   -2.9764    8.2811    3.1357 O   0  0  0  0  0  0  0  0  0  0  0  0
   -2.2988    7.4567    4.0638 C   0  0  0  0  0  0  0  0  0  0  0  0
   -2.3448    5.9818    3.6423 C   0  0  1  0  0  0  0  0  0  0  0  0
   -1.9544    5.8073    2.2895 O   0  0  0  0  0  0  0  0  0  0  0  0
   -1.4341    4.4940    2.1071 C   0  0  1  0  0  0  0  0  0  0  0  0
   -0.2056    4.5564    1.3923 O   0  0  0  0  0  0  0  0  0  0  0  0
    0.9897    4.5256    2.1559 C   0  0  2  0  0  0  0  0  0  0  0  0
    1.7941    5.7905    1.8166 C   0  0  1  0  0  0  0  0  0  0  0  0
    1.1324    6.9322    2.3382 O   0  0  0  0  0  0  0  0  0  0  0  0
    3.2235    5.7936    2.3796 C   0  0  2  0  0  0  0  0  0  0  0  0
    3.9634    6.9851    1.9357 N   0  0  0  0  0  0  0  0  0  0  0  0
    3.9592    4.5398    1.9217 C   0  0  0  0  0  0  0  0  0  0  0  0
    3.1753    3.3026    2.3423 C   0  0  2  0  0  0  0  0  0  0  0  0
    3.9321    2.1129    1.9378 N   0  0  0  0  0  0  0  0  0  0  0  0
    1.7632    3.3233    1.7184 C   0  0  1  0  0  0  0  0  0  0  0  0
    1.1289    2.1150    2.1650 O   0  0  0  0  0  0  0  0  0  0  0  0
    1.5408    0.8995    1.5489 C   0  0  1  0  0  0  0  0  0  0  0  0
    2.1935    0.0534    2.4916 O   0  0  0  0  0  0  0  0  0  0  0  0
    1.3716   -0.4989    3.5178 C   0  0  2  0  0  0  0  0  0  0  0  0
    2.2385   -1.3766    4.4303 C   0  0  0  0  0  0  0  0  0  0  0  0
    3.6564   -1.0906    4.2638 N   0  0  0  0  0  0  0  0  0  0  0  0
    0.2318   -1.3401    2.9137 C   0  0  1  0  0  0  0  0  0  0  0  0
   -0.6032   -1.8287    3.9484 O   0  0  0  0  0  0  0  0  0  0  0  0
   -0.5815   -0.4561    1.9601 C   0  0  2  0  0  0  0  0  0  0  0  0
   -1.5845   -1.2235    1.3213 O   0  0  0  0  0  0  0  0  0  0  0  0
    0.3327    0.1994    0.9163 C   0  0  1  0  0  0  0  0  0  0  0  0
   -0.4371    1.1409    0.0908 N   0  0  0  0  0  0  0  0  0  0  0  0
   -1.1844    3.9162    3.5078 C   0  0  2  0  0  0  0  0  0  0  0  0
   -2.1311    2.9008    3.7842 O   0  0  0  0  0  0  0  0  0  0  0  0
   -1.3321    5.1393    4.4114 C   0  0  2  0  0  0  0  0  0  0  0  0
   -1.7361    4.8267    5.7299 O   0  0  0  0  0  0  0  0  0  0  0  0
  2  1  1  0  0  0  0
  3  2  1  1  0  0  0
  3 30  1  0  0  0  0
  4  5  1  0  0  0  0
  4  3  1  0  0  0  0
  5 28  1  0  0  0  0
  5  6  1  6  0  0  0
  7  6  1  6  0  0  0
  8  7  1  0  0  0  0
  8  9  1  1  0  0  0
 10 11  1  6  0  0  0
 10  8  1  0  0  0  0
 12 10  1  0  0  0  0
 13 12  1  0  0  0  0
 13 15  1  0  0  0  0
 13 14  1  6  0  0  0
 15  7  1  0  0  0  0
 15 16  1  1  0  0  0
 17 16  1  1  0  0  0
 18 17  1  0  0  0  0
 19 20  1  1  0  0  0
 19 18  1  0  0  0  0
 20 21  1  0  0  0  0
 22 24  1  0  0  0  0
 22 19  1  0  0  0  0
 22 23  1  1  0  0  0
 24 25  1  6  0  0  0
 24 26  1  0  0  0  0
 26 17  1  0  0  0  0
 26 27  1  1  0  0  0
 28 29  1  1  0  0  0
 28 30  1  0  0  0  0
 30 31  1  1  0  0  0
M  END
>  <CHROM.1>
89.75416586,49.75795540,97.14618083,-122.88281607,-164.19817755,71.79530562
47.35604321,164.25446110,114.24901982,17.27571293,174.72011297,-79.78436870
-54.37183052,-62.32978596,-172.12719116,-170.59799644,0.49970127,3.00479038
2.65848995,1.82955446,0.20452804,-0.01491286

>  <Name>
lig.pdb

>  <RI>
0

>  <Rbt.Current_Directory>
/home/itssahil/PROJECTS/Mol_Feturizer/New_Systems/rnas/2n0j

>  <Rbt.Executable>
rbdock ($Id: //depot/dev/client3/rdock/2013.1/src/exe/rbdock.cxx#4 $)

>  <Rbt.Library>
libRbt.so (2013.1, Build901 2013/11/27)

>  <Rbt.Parameter_File>
/export/apps/rDock/src/rDock_2013.1_src/data/scripts/dock_solv.prm

>  <Rbt.Receptor>
prm/blind_docking_60.prm

>  <SCORE>
-23

>  <SCORE.INTER>
-38.6994

>  <SCORE.INTER.CONST>
1

>  <SCORE.INTER.POLAR>
-3.58704

>  <SCORE.INTER.ROT>
6

>  <SCORE.INTER.SOLV>
18.4644

>  <SCORE.INTER.VDW>
-27.5976

>  <SCORE.INTER.norm>
-1.24837

>  <SCORE.INTRA>
8.57088

>  <SCORE.INTRA.DIHEDRAL>
5.27837

>  <SCORE.INTRA.DIHEDRAL.0>
28.0161

>  <SCORE.INTRA.POLAR>
0.0718093

>  <SCORE.INTRA.POLAR.0>
-1.05798

>  <SCORE.INTRA.REPUL>
0

>  <SCORE.INTRA.REPUL.0>
0

>  <SCORE.INTRA.SOLV>
0.737315

>  <SCORE.INTRA.SOLV.lig_0>
-42.5945

>  <SCORE.INTRA.VDW>
5.31889

>  <SCORE.INTRA.VDW.0>
-5.13869

>  <SCORE.INTRA.norm>
0.27648

>  <SCORE.RESTR>
7.12843

>  <SCORE.RESTR.CAVITY>
7.12843

>  <SCORE.RESTR.norm>
0.229949

>  <SCORE.SYSTEM>
0

>  <SCORE.SYSTEM.CONST>
0

>  <SCORE.SYSTEM.DIHEDRAL>
0

>  <SCORE.SYSTEM.SOLV>
0

>  <SCORE.SYSTEM.norm>
0

>  <SCORE.heavy>
31

>  <SCORE.norm>
-0.741937

>  <RMSD>
5.711

$$$$
lig.pdb
 OpenBabel11021811453D
libRbt.so/2013.1/901 2013/11/27
 31 33  0  0  0  0  0  0  0  0999 V2000
    0.7634    7.2820    2.0569 O   0  0  0  0  0  0  0  0  0  0  0  0
    0.6134    6.2294    1.1243 C   0  0  0  0  0  0  0  0  0  0  0  0
   -0.0556    5.0048    1.7632 C   0  0  1  0  0  0  0  0  0  0  0  0
   -0.2008    3.9398    0.8371 O   0  0  0  0  0  0  0  0  0  0  0  0
   -0.2372    2.6993    1.5362 C   0  0  1  0  0  0  0  0  0  0  0  0
    0.6440    1.7701    0.9166 O   0  0  0  0  0  0  0  0  0  0  0  0
    0.1382    0.4691    0.6627 C   0  0  2  0  0  0  0  0  0  0  0  0
   -1.2185    0.6241   -0.0426 C   0  0  1  0  0  0  0  0  0  0  0  0
   -1.0209    1.1319   -1.3528 O   0  0  0  0  0  0  0  0  0  0  0  0
   -2.0092   -0.6864   -0.1747 C   0  0  2  0  0  0  0  0  0  0  0  0
   -3.3332   -0.4467   -0.7693 N   0  0  0  0  0  0  0  0  0  0  0  0
   -2.1779   -1.3256    1.1986 C   0  0  0  0  0  0  0  0  0  0  0  0
   -0.8108   -1.5377    1.8373 C   0  0  2  0  0  0  0  0  0  0  0  0
   -1.0001   -2.2027    3.1310 N   0  0  0  0  0  0  0  0  0  0  0  0
   -0.0732   -0.1898    1.9881 C   0  0  1  0  0  0  0  0  0  0  0  0
    1.1819   -0.5068    2.6092 O   0  0  0  0  0  0  0  0  0  0  0  0
    1.7248    0.4572    3.5051 C   0  0  1  0  0  0  0  0  0  0  0  0
    0.9977    0.4710    4.7306 O   0  0  0  0  0  0  0  0  0  0  0  0
    1.1329   -0.6834    5.5567 C   0  0  2  0  0  0  0  0  0  0  0  0
    0.2877   -0.4902    6.8228 C   0  0  0  0  0  0  0  0  0  0  0  0
   -0.4694   -1.6891    7.1529 N   0  0  0  0  0  0  0  0  0  0  0  0
    2.6062   -0.9119    5.9425 C   0  0  1  0  0  0  0  0  0  0  0  0
    2.7218   -2.0949    6.7129 O   0  0  0  0  0  0  0  0  0  0  0  0
    3.4374   -1.0408    4.6599 C   0  0  2  0  0  0  0  0  0  0  0  0
    4.8105   -1.1642    4.9802 O   0  0  0  0  0  0  0  0  0  0  0  0
    3.2114    0.1692    3.7436 C   0  0  1  0  0  0  0  0  0  0  0  0
    3.9119   -0.0267    2.4663 N   0  0  0  0  0  0  0  0  0  0  0  0
    0.2391    2.9820    2.9685 C   0  0  2  0  0  0  0  0  0  0  0  0
   -0.8512    2.8823    3.8656 O   0  0  0  0  0  0  0  0  0  0  0  0
    0.8063    4.3969    2.8652 C   0  0  2  0  0  0  0  0  0  0  0  0
    0.7656    5.1161    4.0819 O   0  0  0  0  0  0  0  0  0  0  0  0
  2  1  1  0  0  0  0
  3  2  1  6  0  0  0
  3 30  1  0  0  0  0
  4  5  1  0  0  0  0
  4  3  1  0  0  0  0
  5 28  1  0  0  0  0
  5  6  1  6  0  0  0
  7  6  1  1  0  0  0
  8  7  1  0  0  0  0
  8  9  1  6  0  0  0
 10 11  1  1  0  0  0
 10  8  1  0  0  0  0
 12 10  1  0  0  0  0
 13 12  1  0  0  0  0
 13 15  1  0  0  0  0
 13 14  1  1  0  0  0
 15  7  1  0  0  0  0
 15 16  1  6  0  0  0
 17 16  1  6  0  0  0
 18 17  1  0  0  0  0
 19 20  1  1  0  0  0
 19 18  1  0  0  0  0
 20 21  1  0  0  0  0
 22 24  1  0  0  0  0
 22 19  1  0  0  0  0
 22 23  1  6  0  0  0
 24 25  1  1  0  0  0
 24 26  1  0  0  0  0
 26 17  1  0  0  0  0
 26 27  1  6  0  0  0
 28 29  1  1  0  0  0
 28 30  1  0  0  0  0
 30 31  1  1  0  0  0
M  END
>  <CHROM.1>
-61.97073467,-179.54647903,-132.46206812,49.40959974,-166.62814265,-175.24664452
-79.96193346,92.93911485,73.44731067,135.68461331,90.70698094,-62.96743733
73.88947131,162.38411172,-61.00654396,59.49495767,0.52813967,0.99074205,2.84421247
-2.14849807,0.90034811,2.89435453

>  <Name>
lig.pdb

>  <RI>
0

>  <Rbt.Current_Directory>
/home/itssahil/PROJECTS/Mol_Feturizer/New_Systems/rnas/2n0j

>  <Rbt.Executable>
rbdock ($Id: //depot/dev/client3/rdock/2013.1/src/exe/rbdock.cxx#4 $)

>  <Rbt.Library>
libRbt.so (2013.1, Build901 2013/11/27)

>  <Rbt.Parameter_File>
/export/apps/rDock/src/rDock_2013.1_src/data/scripts/dock_solv.prm

>  <Rbt.Receptor>
prm/blind_docking_60.prm

>  <SCORE>
-25.7646

>  <SCORE.INTER>
-29.9088

>  <SCORE.INTER.CONST>
1

>  <SCORE.INTER.POLAR>
-5.63908

>  <SCORE.INTER.ROT>
6

>  <SCORE.INTER.SOLV>
24.9083

>  <SCORE.INTER.VDW>
-17.0451

>  <SCORE.INTER.norm>
-0.9648

>  <SCORE.INTRA>
3.34478

>  <SCORE.INTRA.DIHEDRAL>
-5.88873

>  <SCORE.INTRA.DIHEDRAL.0>
28.0161

>  <SCORE.INTRA.POLAR>
1.05798

>  <SCORE.INTRA.POLAR.0>
-1.05798

>  <SCORE.INTRA.REPUL>
0

>  <SCORE.INTRA.REPUL.0>
0

>  <SCORE.INTRA.SOLV>
1.0683

>  <SCORE.INTRA.SOLV.lig_0>
-42.5945

>  <SCORE.INTRA.VDW>
2.15785

>  <SCORE.INTRA.VDW.0>
-5.13869

>  <SCORE.INTRA.norm>
0.107896

>  <SCORE.RESTR>
0.799441

>  <SCORE.RESTR.CAVITY>
0.799441

>  <SCORE.RESTR.norm>
0.0257884

>  <SCORE.SYSTEM>
0

>  <SCORE.SYSTEM.CONST>
0

>  <SCORE.SYSTEM.DIHEDRAL>
0

>  <SCORE.SYSTEM.SOLV>
0

>  <SCORE.SYSTEM.norm>
0

>  <SCORE.heavy>
31

>  <SCORE.norm>
-0.831116

>  <RMSD>
5.712

$$$$
lig.pdb
 OpenBabel11021811453D
libRbt.so/2013.1/901 2013/11/27
 31 33  0  0  0  0  0  0  0  0999 V2000
    2.0662    7.1713    2.2174 O   0  0  0  0  0  0  0  0  0  0  0  0
    2.1233    6.3273    3.3508 C   0  0  0  0  0  0  0  0  0  0  0  0
    2.8819    5.0286    3.0456 C   0  0  1  0  0  0  0  0  0  0  0  0
    2.1828    3.8866    3.5149 O   0  0  0  0  0  0  0  0  0  0  0  0
    2.5473    2.7497    2.7381 C   0  0  1  0  0  0  0  0  0  0  0  0
    1.3788    2.0436    2.3383 O   0  0  0  0  0  0  0  0  0  0  0  0
    0.8920    1.0455    3.2212 C   0  0  2  0  0  0  0  0  0  0  0  0
    1.2060   -0.3238    2.5979 C   0  0  1  0  0  0  0  0  0  0  0  0
    2.6061   -0.5525    2.6268 O   0  0  0  0  0  0  0  0  0  0  0  0
    0.5349   -1.5064    3.3130 C   0  0  2  0  0  0  0  0  0  0  0  0
    0.7996   -2.7696    2.6072 N   0  0  0  0  0  0  0  0  0  0  0  0
   -0.9695   -1.2739    3.3900 C   0  0  0  0  0  0  0  0  0  0  0  0
   -1.2486    0.0541    4.0831 C   0  0  2  0  0  0  0  0  0  0  0  0
   -2.7014    0.2255    4.1920 N   0  0  0  0  0  0  0  0  0  0  0  0
   -0.5912    1.2147    3.3056 C   0  0  1  0  0  0  0  0  0  0  0  0
   -0.9309    2.4049    4.0333 O   0  0  0  0  0  0  0  0  0  0  0  0
   -0.8549    3.6401    3.3297 C   0  0  1  0  0  0  0  0  0  0  0  0
   -1.8640    3.7105    2.3260 O   0  0  0  0  0  0  0  0  0  0  0  0
   -3.2083    3.8152    2.7900 C   0  0  2  0  0  0  0  0  0  0  0  0
   -4.1484    3.8809    1.5790 C   0  0  0  0  0  0  0  0  0  0  0  0
   -4.0643    2.6759    0.7662 N   0  0  0  0  0  0  0  0  0  0  0  0
   -3.3910    5.0719    3.6613 C   0  0  1  0  0  0  0  0  0  0  0  0
   -4.7169    5.1223    4.1573 O   0  0  0  0  0  0  0  0  0  0  0  0
   -2.3988    5.0106    4.8293 C   0  0  2  0  0  0  0  0  0  0  0  0
   -2.4812    6.1945    5.6005 O   0  0  0  0  0  0  0  0  0  0  0  0
   -0.9672    4.8096    4.3143 C   0  0  1  0  0  0  0  0  0  0  0  0
   -0.0453    4.6250    5.4441 N   0  0  0  0  0  0  0  0  0  0  0  0
    3.2793    3.2765    1.4952 C   0  0  2  0  0  0  0  0  0  0  0  0
    4.6572    2.9643    1.5810 O   0  0  0  0  0  0  0  0  0  0  0  0
    2.9978    4.7774    1.5455 C   0  0  2  0  0  0  0  0  0  0  0  0
    3.9877    5.5632    0.9116 O   0  0  0  0  0  0  0  0  0  0  0  0
  2  1  1  0  0  0  0
  3  2  1  6  0  0  0
  3 30  1  0  0  0  0
  4  5  1  0  0  0  0
  4  3  1  0  0  0  0
  5 28  1  0  0  0  0
  5  6  1  6  0  0  0
  7  6  1  6  0  0  0
  8  7  1  0  0  0  0
  8  9  1  1  0  0  0
 10 11  1  6  0  0  0
 10  8  1  0  0  0  0
 12 10  1  0  0  0  0
 13 12  1  0  0  0  0
 13 15  1  0  0  0  0
 13 14  1  6  0  0  0
 15  7  1  0  0  0  0
 15 16  1  1  0  0  0
 17 16  1  1  0  0  0
 18 17  1  0  0  0  0
 19 20  1  6  0  0  0
 19 18  1  0  0  0  0
 20 21  1  0  0  0  0
 22 24  1  0  0  0  0
 22 19  1  0  0  0  0
 22 23  1  1  0  0  0
 24 25  1  6  0  0  0
 24 26  1  0  0  0  0
 26 17  1  0  0  0  0
 26 27  1  1  0  0  0
 28 29  1  1  0  0  0
 28 30  1  0  0  0  0
 30 31  1  1  0  0  0
M  END
>  <CHROM.1>
-58.29462642,-133.02880302,-88.59847293,-107.12217850,-169.04706107,74.76137170
64.43366847,79.91552268,68.17522011,61.70927266,69.95576255,-63.92379842
-57.88330305,40.16588507,-51.87979539,-178.97170095,-0.01157822,2.94677706
3.04959691,-0.32879234,0.21353822,0.03555605

>  <Name>
lig.pdb

>  <RI>
2.74555e+07

>  <Rbt.Current_Directory>
/home/itssahil/PROJECTS/Mol_Feturizer/New_Systems/rnas/2n0j

>  <Rbt.Executable>
rbdock ($Id: //depot/dev/client3/rdock/2013.1/src/exe/rbdock.cxx#4 $)

>  <Rbt.Library>
libRbt.so (2013.1, Build901 2013/11/27)

>  <Rbt.Parameter_File>
/export/apps/rDock/src/rDock_2013.1_src/data/scripts/dock_solv.prm

>  <Rbt.Receptor>
prm/pocket_docking_6.prm

>  <SCORE>
287.943

>  <SCORE.INTER>
290.849

>  <SCORE.INTER.CONST>
1

>  <SCORE.INTER.POLAR>
-2.28587

>  <SCORE.INTER.ROT>
6

>  <SCORE.INTER.SOLV>
21.084

>  <SCORE.INTER.VDW>
186.891

>  <SCORE.INTER.norm>
9.38222

>  <SCORE.INTRA>
-3.31738

>  <SCORE.INTRA.DIHEDRAL>
-8.50997

>  <SCORE.INTRA.DIHEDRAL.0>
28.0161

>  <SCORE.INTRA.POLAR>
-0.056298

>  <SCORE.INTRA.POLAR.0>
-1.05798

>  <SCORE.INTRA.REPUL>
0

>  <SCORE.INTRA.REPUL.0>
0

>  <SCORE.INTRA.SOLV>
0.392909

>  <SCORE.INTRA.SOLV.lig_0>
-42.5945

>  <SCORE.INTRA.VDW>
0.932562

>  <SCORE.INTRA.VDW.0>
-5.13869

>  <SCORE.INTRA.norm>
-0.107012

>  <SCORE.RESTR>
0.411871

>  <SCORE.RESTR.CAVITY>
0.411871

>  <SCORE.RESTR.norm>
0.0132862

>  <SCORE.SYSTEM>
0

>  <SCORE.SYSTEM.CONST>
0

>  <SCORE.SYSTEM.DIHEDRAL>
0

>  <SCORE.SYSTEM.SOLV>
0

>  <SCORE.SYSTEM.norm>
0

>  <SCORE.heavy>
31

>  <SCORE.norm>
9.28849

>  <RMSD>
5.713

$$$$
lig.pdb
 OpenBabel11021811453D
libRbt.so/2013.1/901 2013/11/27
 31 33  0  0  0  0  0  0  0  0999 V2000
    1.0446    7.3397    2.8307 O   0  0  0  0  0  0  0  0  0  0  0  0
    1.5640    6.1283    2.3180 C   0  0  0  0  0  0  0  0  0  0  0  0
    0.4762    5.0507    2.2143 C   0  0  1  0  0  0  0  0  0  0  0  0
    0.7239    4.1524    1.1445 O   0  0  0  0  0  0  0  0  0  0  0  0
    0.1119    2.8966    1.4226 C   0  0  1  0  0  0  0  0  0  0  0  0
    1.0375    1.8441    1.1788 O   0  0  0  0  0  0  0  0  0  0  0  0
    0.5038    0.5947    0.7703 C   0  0  2  0  0  0  0  0  0  0  0  0
   -0.7397    0.8755   -0.0881 C   0  0  1  0  0  0  0  0  0  0  0  0
   -0.3475    1.4540   -1.3230 O   0  0  0  0  0  0  0  0  0  0  0  0
   -1.5719   -0.3743   -0.4129 C   0  0  2  0  0  0  0  0  0  0  0  0
   -2.7933   -0.0184   -1.1516 N   0  0  0  0  0  0  0  0  0  0  0  0
   -1.9506   -1.0897    0.8786 C   0  0  0  0  0  0  0  0  0  0  0  0
   -0.6910   -1.4236    1.6684 C   0  0  2  0  0  0  0  0  0  0  0  0
   -1.0808   -2.1583    2.8767 N   0  0  0  0  0  0  0  0  0  0  0  0
    0.0882   -0.1346    2.0076 C   0  0  1  0  0  0  0  0  0  0  0  0
    1.2339   -0.5652    2.7583 O   0  0  0  0  0  0  0  0  0  0  0  0
    1.8095    0.3738    3.6602 C   0  0  1  0  0  0  0  0  0  0  0  0
    1.1554    0.3226    4.9252 O   0  0  0  0  0  0  0  0  0  0  0  0
    1.3612   -0.8607    5.6939 C   0  0  2  0  0  0  0  0  0  0  0  0
    0.5881   -0.7367    7.0137 C   0  0  0  0  0  0  0  0  0  0  0  0
   -0.8515   -0.7749    6.7999 N   0  0  0  0  0  0  0  0  0  0  0  0
    2.8587   -1.0722    5.9841 C   0  0  1  0  0  0  0  0  0  0  0  0
    3.0423   -2.2823    6.6972 O   0  0  0  0  0  0  0  0  0  0  0  0
    3.6157   -1.1316    4.6515 C   0  0  2  0  0  0  0  0  0  0  0  0
    5.0073   -1.2377    4.8865 O   0  0  0  0  0  0  0  0  0  0  0  0
    3.3128    0.1090    3.8004 C   0  0  1  0  0  0  0  0  0  0  0  0
    3.9409   -0.0204    2.4778 N   0  0  0  0  0  0  0  0  0  0  0  0
   -0.2719    2.9087    2.9095 C   0  0  2  0  0  0  0  0  0  0  0  0
   -1.6786    2.9939    3.0416 O   0  0  0  0  0  0  0  0  0  0  0  0
    0.4584    4.1417    3.4392 C   0  0  2  0  0  0  0  0  0  0  0  0
   -0.1564    4.7241    4.5714 O   0  0  0  0  0  0  0  0  0  0  0  0
  2  1  1  0  0  0  0
  3  2  1  1  0  0  0
  3 30  1  0  0  0  0
  4  5  1  0  0  0  0
  4  3  1  0  0  0  0
  5 28  1  0  0  0  0
  5  6  1  1  0  0  0
  7  6  1  1  0  0  0
  8  7  1  0  0  0  0
  8  9  1  6  0  0  0
 10 11  1  1  0  0  0
 10  8  1  0  0  0  0
 12 10  1  0  0  0  0
 13 12  1  0  0  0  0
 13 15  1  0  0  0  0
 13 14  1  1  0  0  0
 15  7  1  0  0  0  0
 15 16  1  6  0  0  0
 17 16  1  6  0  0  0
 18 17  1  0  0  0  0
 19 20  1  1  0  0  0
 19 18  1  0  0  0  0
 20 21  1  0  0  0  0
 22 24  1  0  0  0  0
 22 19  1  0  0  0  0
 22 23  1  6  0  0  0
 24 25  1  1  0  0  0
 24 26  1  0  0  0  0
 26 17  1  0  0  0  0
 26 27  1  6  0  0  0
 28 29  1  6  0  0  0
 28 30  1  0  0  0  0
 30 31  1  1  0  0  0
M  END
>  <CHROM.1>
69.09305170,149.42064211,-150.28872569,33.77696466,51.14372102,-88.42005960
166.51492733,84.98092206,86.38842321,68.66757643,-54.71471257,-51.92234365
69.10482254,44.17589627,-53.26772366,67.83469750,0.69336091,1.04096267,2.90980645
-2.28510678,0.96096402,3.04476693

>  <Name>
lig.pdb

>  <RI>
1.55206e+07

>  <Rbt.Current_Directory>
/home/itssahil/PROJECTS/Mol_Feturizer/New_Systems/rnas/2n0j

>  <Rbt.Executable>
rbdock ($Id: //depot/dev/client3/rdock/2013.1/src/exe/rbdock.cxx#4 $)

>  <Rbt.Library>
libRbt.so (2013.1, Build901 2013/11/27)

>  <Rbt.Parameter_File>
/export/apps/rDock/src/rDock_2013.1_src/data/scripts/dock_solv.prm

>  <Rbt.Receptor>
prm/blind_docking_80.prm

>  <SCORE>
-39.1606

>  <SCORE.INTER>
-44.8353

>  <SCORE.INTER.CONST>
1

>  <SCORE.INTER.POLAR>
-6.13785

>  <SCORE.INTER.ROT>
6

>  <SCORE.INTER.SOLV>
24.8512

>  <SCORE.INTER.VDW>
-25.3144

>  <SCORE.INTER.norm>
-1.4463

>  <SCORE.INTRA>
3.55383

>  <SCORE.INTRA.DIHEDRAL>
-8.04008

>  <SCORE.INTRA.DIHEDRAL.0>
28.0161

>  <SCORE.INTRA.POLAR>
1.04388

>  <SCORE.INTRA.POLAR.0>
-1.05798

>  <SCORE.INTRA.REPUL>
0

>  <SCORE.INTRA.REPUL.0>
0

>  <SCORE.INTRA.SOLV>
-0.0437452

>  <SCORE.INTRA.SOLV.lig_0>
-42.5945

>  <SCORE.INTRA.VDW>
4.04656

>  <SCORE.INTRA.VDW.0>
-5.13869

>  <SCORE.INTRA.norm>
0.11464

>  <SCORE.RESTR>
2.12086

>  <SCORE.RESTR.CAVITY>
2.12086

>  <SCORE.RESTR.norm>
0.0684147

>  <SCORE.SYSTEM>
0

>  <SCORE.SYSTEM.CONST>
0

>  <SCORE.SYSTEM.DIHEDRAL>
0

>  <SCORE.SYSTEM.SOLV>
0

>  <SCORE.SYSTEM.norm>
0

>  <SCORE.heavy>
31

>  <SCORE.norm>
-1.26325

>  <RMSD>
5.717

$$$$
lig.pdb
 OpenBabel11021811453D
libRbt.so/2013.1/901 2013/11/27
 31 33  0  0  0  0  0  0  0  0999 V2000
    1.0915    7.2829    2.9120 O   0  0  0  0  0  0  0  0  0  0  0  0
    1.5665    6.1126    2.2757 C   0  0  0  0  0  0  0  0  0  0  0  0
    0.4640    5.0516    2.1569 C   0  0  1  0  0  0  0  0  0  0  0  0
    0.7445    4.1118    1.1317 O   0  0  0  0  0  0  0  0  0  0  0  0
    0.0956    2.8778    1.4232 C   0  0  1  0  0  0  0  0  0  0  0  0
    1.0110    1.8010    1.2605 O   0  0  0  0  0  0  0  0  0  0  0  0
    0.4732    0.5480    0.8684 C   0  0  2  0  0  0  0  0  0  0  0  0
   -0.7564    0.8218   -0.0121 C   0  0  1  0  0  0  0  0  0  0  0  0
   -0.3430    1.3738   -1.2522 O   0  0  0  0  0  0  0  0  0  0  0  0
   -1.5939   -0.4277   -0.3246 C   0  0  2  0  0  0  0  0  0  0  0  0
   -2.8023   -0.0766   -1.0865 N   0  0  0  0  0  0  0  0  0  0  0  0
   -1.9955   -1.1155    0.9749 C   0  0  0  0  0  0  0  0  0  0  0  0
   -0.7493   -1.4438    1.7881 C   0  0  2  0  0  0  0  0  0  0  0  0
   -1.1613   -2.1524    3.0046 N   0  0  0  0  0  0  0  0  0  0  0  0
    0.0352   -0.1545    2.1135 C   0  0  1  0  0  0  0  0  0  0  0  0
    1.1672   -0.5794    2.8878 O   0  0  0  0  0  0  0  0  0  0  0  0
    1.7541    0.3803    3.7602 C   0  0  1  0  0  0  0  0  0  0  0  0
    1.0605    0.4200    5.0044 O   0  0  0  0  0  0  0  0  0  0  0  0
    1.1931   -0.7300    5.8371 C   0  0  2  0  0  0  0  0  0  0  0  0
    0.3863   -0.5080    7.1233 C   0  0  0  0  0  0  0  0  0  0  0  0
   -0.9335    0.0391    6.8433 N   0  0  0  0  0  0  0  0  0  0  0  0
    2.6710   -0.9868    6.1856 C   0  0  1  0  0  0  0  0  0  0  0  0
    2.7820   -2.1655    6.9633 O   0  0  0  0  0  0  0  0  0  0  0  0
    3.4648   -1.1444    4.8828 C   0  0  2  0  0  0  0  0  0  0  0  0
    4.8429   -1.2945    5.1676 O   0  0  0  0  0  0  0  0  0  0  0  0
    3.2401    0.0625    3.9619 C   0  0  1  0  0  0  0  0  0  0  0  0
    3.9019   -0.1592    2.6683 N   0  0  0  0  0  0  0  0  0  0  0  0
   -0.3580    2.9491    2.8885 C   0  0  2  0  0  0  0  0  0  0  0  0
   -1.7675    3.0641    2.9498 O   0  0  0  0  0  0  0  0  0  0  0  0
    0.3703    4.1869    3.4100 C   0  0  2  0  0  0  0  0  0  0  0  0
   -0.2861    4.8198    4.4906 O   0  0  0  0  0  0  0  0  0  0  0  0
  2  1  1  0  0  0  0
  3  2  1  1  0  0  0
  3 30  1  0  0  0  0
  4  5  1  0  0  0  0
  4  3  1  0  0  0  0
  5 28  1  0  0  0  0
  5  6  1  1  0  0  0
  7  6  1  1  0  0  0
  8  7  1  0  0  0  0
  8  9  1  6  0  0  0
 10 11  1  1  0  0  0
 10  8  1  0  0  0  0
 12 10  1  0  0  0  0
 13 12  1  0  0  0  0
 13 15  1  0  0  0  0
 13 14  1  1  0  0  0
 15  7  1  0  0  0  0
 15 16  1  1  0  0  0
 17 16  1  6  0  0  0
 18 17  1  0  0  0  0
 19 20  1  1  0  0  0
 19 18  1  0  0  0  0
 20 21  1  0  0  0  0
 22 24  1  0  0  0  0
 22 19  1  0  0  0  0
 22 23  1  1  0  0  0
 24 25  1  1  0  0  0
 24 26  1  0  0  0  0
 26 17  1  0  0  0  0
 26 27  1  6  0  0  0
 28 29  1  6  0  0  0
 28 30  1  0  0  0  0
 30 31  1  1  0  0  0
M  END
>  <CHROM.1>
-176.18279363,158.46600150,-150.21382517,31.49095160,55.26235910,25.94475791
-74.87936476,83.77994439,84.33007653,45.19998589,-32.69184502,31.76530612
107.78145028,159.78649085,-53.93537359,-177.60291111,0.62560741,1.07359528
2.99088910,-2.30905917,0.98883335,3.04717375

>  <Name>
lig.pdb

>  <RI>
9.20816e+06

>  <Rbt.Current_Directory>
/home/itssahil/PROJECTS/Mol_Feturizer/New_Systems/rnas/2n0j

>  <Rbt.Executable>
rbdock ($Id: //depot/dev/client3/rdock/2013.1/src/exe/rbdock.cxx#4 $)

>  <Rbt.Library>
libRbt.so (2013.1, Build901 2013/11/27)

>  <Rbt.Parameter_File>
/export/apps/rDock/src/rDock_2013.1_src/data/scripts/dock_solv.prm

>  <Rbt.Receptor>
prm/blind_docking_100.prm

>  <SCORE>
-30.2985

>  <SCORE.INTER>
-40.2901

>  <SCORE.INTER.CONST>
1

>  <SCORE.INTER.POLAR>
-5.4916

>  <SCORE.INTER.ROT>
6

>  <SCORE.INTER.SOLV>
24.0674

>  <SCORE.INTER.VDW>
-24.1772

>  <SCORE.INTER.norm>
-1.29968

>  <SCORE.INTRA>
7.98213

>  <SCORE.INTRA.DIHEDRAL>
1.63981

>  <SCORE.INTRA.DIHEDRAL.0>
28.0161

>  <SCORE.INTRA.POLAR>
0.866363

>  <SCORE.INTRA.POLAR.0>
-1.05798

>  <SCORE.INTRA.REPUL>
0

>  <SCORE.INTRA.REPUL.0>
0

>  <SCORE.INTRA.SOLV>
-0.124444

>  <SCORE.INTRA.SOLV.lig_0>
-42.5945

>  <SCORE.INTRA.VDW>
4.27882

>  <SCORE.INTRA.VDW.0>
-5.13869

>  <SCORE.INTRA.norm>
0.257488

>  <SCORE.RESTR>
2.00946

>  <SCORE.RESTR.CAVITY>
2.00946

>  <SCORE.RESTR.norm>
0.0648213

>  <SCORE.SYSTEM>
0

>  <SCORE.SYSTEM.CONST>
0

>  <SCORE.SYSTEM.DIHEDRAL>
0

>  <SCORE.SYSTEM.SOLV>
0

>  <SCORE.SYSTEM.norm>
0

>  <SCORE.heavy>
31

>  <SCORE.norm>
-0.977371

>  <RMSD>
5.718

$$$$
lig.pdb
 OpenBabel11021811453D
libRbt.so/2013.1/901 2013/11/27
 31 33  0  0  0  0  0  0  0  0999 V2000
    3.3326    4.8445    0.9266 O   0  0  0  0  0  0  0  0  0  0  0  0
    2.5096    5.1319    2.0403 C   0  0  0  0  0  0  0  0  0  0  0  0
    1.0793    4.6174    1.8286 C   0  0  1  0  0  0  0  0  0  0  0  0
    0.9242    3.2848    2.2903 O   0  0  0  0  0  0  0  0  0  0  0  0
   -0.4368    3.0556    2.6424 C   0  0  1  0  0  0  0  0  0  0  0  0
   -0.5065    2.4282    3.9172 O   0  0  0  0  0  0  0  0  0  0  0  0
   -0.1483    1.0570    3.9841 C   0  0  2  0  0  0  0  0  0  0  0  0
   -0.0254    0.6777    5.4685 C   0  0  1  0  0  0  0  0  0  0  0  0
   -1.3099    0.6836    6.0713 O   0  0  0  0  0  0  0  0  0  0  0  0
    0.5873   -0.7099    5.7117 C   0  0  2  0  0  0  0  0  0  0  0  0
    0.7636   -0.9648    7.1498 N   0  0  0  0  0  0  0  0  0  0  0  0
    1.9370   -0.8061    5.0103 C   0  0  0  0  0  0  0  0  0  0  0  0
    1.7673   -0.5016    3.5269 C   0  0  2  0  0  0  0  0  0  0  0  0
    3.0692   -0.6548    2.8688 N   0  0  0  0  0  0  0  0  0  0  0  0
    1.1899    0.9170    3.3322 C   0  0  1  0  0  0  0  0  0  0  0  0
    1.0897    1.0987    1.9115 O   0  0  0  0  0  0  0  0  0  0  0  0
    0.8746   -0.0660    1.1216 C   0  0  1  0  0  0  0  0  0  0  0  0
    0.1056   -1.0266    1.8402 O   0  0  0  0  0  0  0  0  0  0  0  0
   -1.2568   -0.6859    2.0877 C   0  0  2  0  0  0  0  0  0  0  0  0
   -1.9220   -1.8299    2.8645 C   0  0  0  0  0  0  0  0  0  0  0  0
   -1.5447   -3.1319    2.3334 N   0  0  0  0  0  0  0  0  0  0  0  0
   -2.0102   -0.4450    0.7663 C   0  0  1  0  0  0  0  0  0  0  0  0
   -3.3432   -0.0515    1.0397 O   0  0  0  0  0  0  0  0  0  0  0  0
   -1.2903    0.6595   -0.0175 C   0  0  2  0  0  0  0  0  0  0  0  0
   -1.9080    0.8439   -1.2774 O   0  0  0  0  0  0  0  0  0  0  0  0
    0.1945    0.3164   -0.1979 C   0  0  1  0  0  0  0  0  0  0  0  0
    0.8980    1.4378   -0.8366 N   0  0  0  0  0  0  0  0  0  0  0  0
   -1.1165    4.4310    2.7091 C   0  0  2  0  0  0  0  0  0  0  0  0
   -2.0049    4.5811    1.6175 O   0  0  0  0  0  0  0  0  0  0  0  0
    0.0660    5.3973    2.6603 C   0  0  2  0  0  0  0  0  0  0  0  0
   -0.2570    6.6645    2.1226 O   0  0  0  0  0  0  0  0  0  0  0  0
  2  1  1  0  0  0  0
  3  2  1  1  0  0  0
  3 30  1  0  0  0  0
  4  5  1  0  0  0  0
  4  3  1  0  0  0  0
  5 28  1  0  0  0  0
  5  6  1  1  0  0  0
  7  6  1  1  0  0  0
  8  7  1  0  0  0  0
  8  9  1  6  0  0  0
 10 11  1  1  0  0  0
 10  8  1  0  0  0  0
 12 10  1  0  0  0  0
 13 12  1  0  0  0  0
 13 15  1  0  0  0  0
 13 14  1  6  0  0  0
 15  7  1  0  0  0  0
 15 16  1  6  0  0  0
 17 16  1  1  0  0  0
 18 17  1  0  0  0  0
 19 20  1  6  0  0  0
 19 18  1  0  0  0  0
 20 21  1  0  0  0  0
 22 24  1  0  0  0  0
 22 19  1  0  0  0  0
 22 23  1  1  0  0  0
 24 25  1  6  0  0  0
 24 26  1  0  0  0  0
 26 17  1  0  0  0  0
 26 27  1  1  0  0  0
 28 29  1  6  0  0  0
 28 30  1  0  0  0  0
 30 31  1  6  0  0  0
M  END
>  <CHROM.1>
88.61900378,89.54028120,-74.13481949,168.81276616,-59.74709266,170.51572817
-159.04586766,-91.40908251,31.78529916,-42.86444509,115.71126907,62.90739371
-176.06999907,32.41848583,-55.64185781,-178.41117161,0.03712544,1.34481152
2.47687422,-1.28408161,1.08732520,2.54873176

>  <Name>
lig.pdb

>  <RI>
0

>  <Rbt.Current_Directory>
/home/itssahil/PROJECTS/Mol_Feturizer/New_Systems/rnas/2n0j

>  <Rbt.Executable>
rbdock ($Id: //depot/dev/client3/rdock/2013.1/src/exe/rbdock.cxx#4 $)

>  <Rbt.Library>
libRbt.so (2013.1, Build901 2013/11/27)

>  <Rbt.Parameter_File>
/export/apps/rDock/src/rDock_2013.1_src/data/scripts/dock_solv.prm

>  <Rbt.Receptor>
prm/blind_docking_40.prm

>  <SCORE>
-11.6343

>  <SCORE.INTER>
-36.2987

>  <SCORE.INTER.CONST>
1

>  <SCORE.INTER.POLAR>
-4.44237

>  <SCORE.INTER.ROT>
6

>  <SCORE.INTER.SOLV>
18.6337

>  <SCORE.INTER.VDW>
-23.2025

>  <SCORE.INTER.norm>
-1.17093

>  <SCORE.INTRA>
18.82

>  <SCORE.INTRA.DIHEDRAL>
-5.58455

>  <SCORE.INTRA.DIHEDRAL.0>
28.0161

>  <SCORE.INTRA.POLAR>
0.99032

>  <SCORE.INTRA.POLAR.0>
-1.05798

>  <SCORE.INTRA.REPUL>
0.396279

>  <SCORE.INTRA.REPUL.0>
0

>  <SCORE.INTRA.SOLV>
0.315388

>  <SCORE.INTRA.SOLV.lig_0>
-42.5945

>  <SCORE.INTRA.VDW>
16.1061

>  <SCORE.INTRA.VDW.0>
-5.13869

>  <SCORE.INTRA.norm>
0.607097

>  <SCORE.RESTR>
5.84433

>  <SCORE.RESTR.CAVITY>
5.84433

>  <SCORE.RESTR.norm>
0.188527

>  <SCORE.SYSTEM>
0

>  <SCORE.SYSTEM.CONST>
0

>  <SCORE.SYSTEM.DIHEDRAL>
0

>  <SCORE.SYSTEM.SOLV>
0

>  <SCORE.SYSTEM.norm>
0

>  <SCORE.heavy>
31

>  <SCORE.norm>
-0.375301

>  <RMSD>
5.718

$$$$
lig.pdb
 OpenBabel11021811453D
libRbt.so/2013.1/901 2013/11/27
 31 33  0  0  0  0  0  0  0  0999 V2000
   -0.9162   -1.0157    8.2838 O   0  0  0  0  0  0  0  0  0  0  0  0
   -2.2137   -0.5626    7.9503 C   0  0  0  0  0  0  0  0  0  0  0  0
   -2.3290    0.9614    8.0898 C   0  0  1  0  0  0  0  0  0  0  0  0
   -1.5964    1.6403    7.0821 O   0  0  0  0  0  0  0  0  0  0  0  0
   -2.1714    2.9234    6.8547 C   0  0  1  0  0  0  0  0  0  0  0  0
   -2.3330    3.1392    5.4579 O   0  0  0  0  0  0  0  0  0  0  0  0
   -1.7530    4.3138    4.9131 C   0  0  2  0  0  0  0  0  0  0  0  0
   -2.5991    5.5107    5.3752 C   0  0  1  0  0  0  0  0  0  0  0  0
   -2.4267    5.7081    6.7697 O   0  0  0  0  0  0  0  0  0  0  0  0
   -2.2454    6.8338    4.6792 C   0  0  2  0  0  0  0  0  0  0  0  0
   -3.1561    7.9107    5.0976 N   0  0  0  0  0  0  0  0  0  0  0  0
   -2.3288    6.6577    3.1675 C   0  0  0  0  0  0  0  0  0  0  0  0
   -1.4190    5.5152    2.7331 C   0  0  2  0  0  0  0  0  0  0  0  0
   -1.4771    5.4045    1.2715 N   0  0  0  0  0  0  0  0  0  0  0  0
   -1.8395    4.2005    3.4248 C   0  0  1  0  0  0  0  0  0  0  0  0
   -0.9332    3.2014    2.9330 O   0  0  0  0  0  0  0  0  0  0  0  0
   -1.2458    1.8428    3.2215 C   0  0  1  0  0  0  0  0  0  0  0  0
   -2.5742    1.5335    2.8089 O   0  0  0  0  0  0  0  0  0  0  0  0
   -2.8079    1.5088    1.4024 C   0  0  2  0  0  0  0  0  0  0  0  0
   -4.2805    1.1595    1.1492 C   0  0  0  0  0  0  0  0  0  0  0  0
   -4.6816   -0.0384    1.8729 N   0  0  0  0  0  0  0  0  0  0  0  0
   -1.8999    0.4728    0.7141 C   0  0  1  0  0  0  0  0  0  0  0  0
   -2.1083    0.5085   -0.6866 O   0  0  0  0  0  0  0  0  0  0  0  0
   -0.4378    0.8092    1.0329 C   0  0  2  0  0  0  0  0  0  0  0  0
    0.4186   -0.1762    0.4866 O   0  0  0  0  0  0  0  0  0  0  0  0
   -0.2249    0.9181    2.5488 C   0  0  1  0  0  0  0  0  0  0  0  0
    1.1457    1.3651    2.8355 N   0  0  0  0  0  0  0  0  0  0  0  0
   -3.5474    2.9212    7.5365 C   0  0  2  0  0  0  0  0  0  0  0  0
   -3.5175    3.7535    8.6810 O   0  0  0  0  0  0  0  0  0  0  0  0
   -3.7589    1.4454    7.8707 C   0  0  2  0  0  0  0  0  0  0  0  0
   -4.6091    1.2296    8.9796 O   0  0  0  0  0  0  0  0  0  0  0  0
  2  1  1  0  0  0  0
  3  2  1  6  0  0  0
  3 30  1  0  0  0  0
  4  5  1  0  0  0  0
  4  3  1  0  0  0  0
  5 28  1  0  0  0  0
  5  6  1  6  0  0  0
  7  6  1  1  0  0  0
  8  7  1  0  0  0  0
  8  9  1  1  0  0  0
 10 11  1  1  0  0  0
 10  8  1  0  0  0  0
 12 10  1  0  0  0  0
 13 12  1  0  0  0  0
 13 15  1  0  0  0  0
 13 14  1  6  0  0  0
 15  7  1  0  0  0  0
 15 16  1  6  0  0  0
 17 16  1  6  0  0  0
 18 17  1  0  0  0  0
 19 20  1  1  0  0  0
 19 18  1  0  0  0  0
 20 21  1  0  0  0  0
 22 24  1  0  0  0  0
 22 19  1  0  0  0  0
 22 23  1  6  0  0  0
 24 25  1  1  0  0  0
 24 26  1  0  0  0  0
 26 17  1  0  0  0  0
 26 27  1  6  0  0  0
 28 29  1  1  0  0  0
 28 30  1  0  0  0  0
 30 31  1  1  0  0  0
M  END
>  <CHROM.1>
-61.89199940,70.46429738,-125.60121789,-72.61037206,58.88741813,-40.64192776
-175.61625725,70.33968632,53.15587095,-51.21183317,50.80727050,-179.16796385
167.83401450,55.33931999,52.46820582,178.96086650,-2.11844170,2.61323992
4.34275594,-2.99907373,1.35909671,-0.38141404

>  <Name>
lig.pdb

>  <RI>
0

>  <Rbt.Current_Directory>
/home/itssahil/PROJECTS/Mol_Feturizer/New_Systems/rnas/2n0j

>  <Rbt.Executable>
rbdock ($Id: //depot/dev/client3/rdock/2013.1/src/exe/rbdock.cxx#4 $)

>  <Rbt.Library>
libRbt.so (2013.1, Build901 2013/11/27)

>  <Rbt.Parameter_File>
/export/apps/rDock/src/rDock_2013.1_src/data/scripts/dock_solv.prm

>  <Rbt.Receptor>
prm/pocket_docking_5.prm

>  <SCORE>
-40.5708

>  <SCORE.INTER>
-34.8822

>  <SCORE.INTER.CONST>
1

>  <SCORE.INTER.POLAR>
-4.40764

>  <SCORE.INTER.ROT>
6

>  <SCORE.INTER.SOLV>
15.47

>  <SCORE.INTER.VDW>
-21.3193

>  <SCORE.INTER.norm>
-1.12523

>  <SCORE.INTRA>
-5.68864

>  <SCORE.INTRA.DIHEDRAL>
-16.2649

>  <SCORE.INTRA.DIHEDRAL.0>
28.0161

>  <SCORE.INTRA.POLAR>
0.153142

>  <SCORE.INTRA.POLAR.0>
-1.05798

>  <SCORE.INTRA.REPUL>
0

>  <SCORE.INTRA.REPUL.0>
0

>  <SCORE.INTRA.SOLV>
0.0233934

>  <SCORE.INTRA.SOLV.lig_0>
-42.5945

>  <SCORE.INTRA.VDW>
1.91143

>  <SCORE.INTRA.VDW.0>
-5.13869

>  <SCORE.INTRA.norm>
-0.183504

>  <SCORE.RESTR>
0

>  <SCORE.RESTR.CAVITY>
0

>  <SCORE.RESTR.norm>
0

>  <SCORE.SYSTEM>
0

>  <SCORE.SYSTEM.CONST>
0

>  <SCORE.SYSTEM.DIHEDRAL>
0

>  <SCORE.SYSTEM.SOLV>
0

>  <SCORE.SYSTEM.norm>
0

>  <SCORE.heavy>
31

>  <SCORE.norm>
-1.30874

>  <RMSD>
5.719

$$$$
lig.pdb
 OpenBabel11021811453D
libRbt.so/2013.1/901 2013/11/27
 31 33  0  0  0  0  0  0  0  0999 V2000
   -6.3842   -1.0944    5.9035 O   0  0  0  0  0  0  0  0  0  0  0  0
   -5.2593   -0.2393    5.9638 C   0  0  0  0  0  0  0  0  0  0  0  0
   -5.5733    1.1432    5.3763 C   0  0  1  0  0  0  0  0  0  0  0  0
   -4.4104    1.9497    5.2746 O   0  0  0  0  0  0  0  0  0  0  0  0
   -4.5823    2.9084    4.2353 C   0  0  1  0  0  0  0  0  0  0  0  0
   -3.4321    2.9243    3.3983 O   0  0  0  0  0  0  0  0  0  0  0  0
   -2.4919    3.9655    3.6102 C   0  0  2  0  0  0  0  0  0  0  0  0
   -3.2764    5.2759    3.7828 C   0  0  1  0  0  0  0  0  0  0  0  0
   -3.9823    5.2519    5.0135 O   0  0  0  0  0  0  0  0  0  0  0  0
   -2.3980    6.5363    3.7842 C   0  0  2  0  0  0  0  0  0  0  0  0
   -3.2210    7.7535    3.8552 N   0  0  0  0  0  0  0  0  0  0  0  0
   -1.5478    6.5717    2.5198 C   0  0  0  0  0  0  0  0  0  0  0  0
   -0.7241    5.2937    2.4193 C   0  0  2  0  0  0  0  0  0  0  0  0
    0.1231    5.3792    1.2249 N   0  0  0  0  0  0  0  0  0  0  0  0
   -1.6504    4.0592    2.3780 C   0  0  1  0  0  0  0  0  0  0  0  0
   -0.7751    2.9264    2.2674 O   0  0  0  0  0  0  0  0  0  0  0  0
   -1.3355    1.6447    2.5313 C   0  0  1  0  0  0  0  0  0  0  0  0
   -2.1593    1.2228    1.4478 O   0  0  0  0  0  0  0  0  0  0  0  0
   -1.4875    0.9116    0.2291 C   0  0  2  0  0  0  0  0  0  0  0  0
   -2.5259    0.4784   -0.8143 C   0  0  0  0  0  0  0  0  0  0  0  0
   -3.8818    0.7925   -0.3869 N   0  0  0  0  0  0  0  0  0  0  0  0
   -0.4600   -0.2156    0.4421 C   0  0  1  0  0  0  0  0  0  0  0  0
    0.2342   -0.4658   -0.7670 O   0  0  0  0  0  0  0  0  0  0  0  0
    0.5287    0.2178    1.5316 C   0  0  2  0  0  0  0  0  0  0  0  0
    1.4343   -0.8328    1.8129 O   0  0  0  0  0  0  0  0  0  0  0  0
   -0.2175    0.6328    2.8068 C   0  0  1  0  0  0  0  0  0  0  0  0
    0.7303    1.1655    3.7959 N   0  0  0  0  0  0  0  0  0  0  0  0
   -5.8051    2.4649    3.4190 C   0  0  2  0  0  0  0  0  0  0  0  0
   -6.8851    3.3494    3.6529 O   0  0  0  0  0  0  0  0  0  0  0  0
   -6.0632    1.0500    3.9347 C   0  0  2  0  0  0  0  0  0  0  0  0
   -7.4108    0.6388    3.8169 O   0  0  0  0  0  0  0  0  0  0  0  0
  2  1  1  0  0  0  0
  3  2  1  6  0  0  0
  3 30  1  0  0  0  0
  4  5  1  0  0  0  0
  4  3  1  0  0  0  0
  5 28  1  0  0  0  0
  5  6  1  6  0  0  0
  7  6  1  6  0  0  0
  8  7  1  0  0  0  0
  8  9  1  1  0  0  0
 10 11  1  6  0  0  0
 10  8  1  0  0  0  0
 12 10  1  0  0  0  0
 13 12  1  0  0  0  0
 13 15  1  0  0  0  0
 13 14  1  6  0  0  0
 15  7  1  0  0  0  0
 15 16  1  1  0  0  0
 17 16  1  6  0  0  0
 18 17  1  0  0  0  0
 19 20  1  6  0  0  0
 19 18  1  0  0  0  0
 20 21  1  0  0  0  0
 22 24  1  0  0  0  0
 22 19  1  0  0  0  0
 22 23  1  6  0  0  0
 24 25  1  1  0  0  0
 24 26  1  0  0  0  0
 26 17  1  0  0  0  0
 26 27  1  1  0  0  0
 28 29  1  1  0  0  0
 28 30  1  0  0  0  0
 30 31  1  1  0  0  0
M  END
>  <CHROM.1>
-169.16013919,-172.46483564,-100.33977185,-44.17549850,-164.28343189,159.50904692
-6.78560892,44.41968840,74.58104125,13.01748342,-67.63817469,-62.24063638
176.40153105,59.65775213,174.03854252,-50.75826071,-2.75912060,2.35757241
2.85380973,2.82466183,0.53078235,0.20313615

>  <Name>
lig.pdb

>  <RI>
0

>  <Rbt.Current_Directory>
/home/itssahil/PROJECTS/Mol_Feturizer/New_Systems/rnas/2n0j

>  <Rbt.Executable>
rbdock ($Id: //depot/dev/client3/rdock/2013.1/src/exe/rbdock.cxx#4 $)

>  <Rbt.Library>
libRbt.so (2013.1, Build901 2013/11/27)

>  <Rbt.Parameter_File>
/export/apps/rDock/src/rDock_2013.1_src/data/scripts/dock_solv.prm

>  <Rbt.Receptor>
prm/pocket_docking_5.prm

>  <SCORE>
-36.4848

>  <SCORE.INTER>
-43.2258

>  <SCORE.INTER.CONST>
1

>  <SCORE.INTER.POLAR>
-5.83838

>  <SCORE.INTER.ROT>
6

>  <SCORE.INTER.SOLV>
16.7888

>  <SCORE.INTER.VDW>
-22.5522

>  <SCORE.INTER.norm>
-1.39438

>  <SCORE.INTRA>
6.74101

>  <SCORE.INTRA.DIHEDRAL>
-7.08476

>  <SCORE.INTRA.DIHEDRAL.0>
28.0161

>  <SCORE.INTRA.POLAR>
0.407862

>  <SCORE.INTRA.POLAR.0>
-1.05798

>  <SCORE.INTRA.REPUL>
0

>  <SCORE.INTRA.REPUL.0>
0

>  <SCORE.INTRA.SOLV>
0.0863944

>  <SCORE.INTRA.SOLV.lig_0>
-42.5945

>  <SCORE.INTRA.VDW>
8.85347

>  <SCORE.INTRA.VDW.0>
-5.13869

>  <SCORE.INTRA.norm>
0.217452

>  <SCORE.RESTR>
0

>  <SCORE.RESTR.CAVITY>
0

>  <SCORE.RESTR.norm>
0

>  <SCORE.SYSTEM>
0

>  <SCORE.SYSTEM.CONST>
0

>  <SCORE.SYSTEM.DIHEDRAL>
0

>  <SCORE.SYSTEM.SOLV>
0

>  <SCORE.SYSTEM.norm>
0

>  <SCORE.heavy>
31

>  <SCORE.norm>
-1.17693

>  <RMSD>
5.728

$$$$
lig.pdb
 OpenBabel11021811453D
libRbt.so/2013.1/901 2013/11/27
 31 33  0  0  0  0  0  0  0  0999 V2000
   -1.9316   -1.5734    6.5215 O   0  0  0  0  0  0  0  0  0  0  0  0
   -1.3694   -1.1254    7.7394 C   0  0  0  0  0  0  0  0  0  0  0  0
   -1.6674    0.3604    7.9819 C   0  0  1  0  0  0  0  0  0  0  0  0
   -1.1055    1.1829    6.9715 O   0  0  0  0  0  0  0  0  0  0  0  0
   -1.8551    2.3894    6.8648 C   0  0  1  0  0  0  0  0  0  0  0  0
   -2.1479    2.6564    5.4984 O   0  0  0  0  0  0  0  0  0  0  0  0
   -1.6420    3.8641    4.9522 C   0  0  2  0  0  0  0  0  0  0  0  0
   -2.4478    5.0246    5.5572 C   0  0  1  0  0  0  0  0  0  0  0  0
   -2.1309    5.1602    6.9336 O   0  0  0  0  0  0  0  0  0  0  0  0
   -2.1845    6.3839    4.8915 C   0  0  2  0  0  0  0  0  0  0  0  0
   -3.0578    7.4255    5.4542 N   0  0  0  0  0  0  0  0  0  0  0  0
   -2.4254    6.2765    3.3904 C   0  0  0  0  0  0  0  0  0  0  0  0
   -1.5539    5.1700    2.8088 C   0  0  2  0  0  0  0  0  0  0  0  0
   -1.7651    5.1259    1.3578 N   0  0  0  0  0  0  0  0  0  0  0  0
   -1.8842    3.8182    3.4775 C   0  0  1  0  0  0  0  0  0  0  0  0
   -1.0239    2.8576    2.8462 O   0  0  0  0  0  0  0  0  0  0  0  0
   -1.3158    1.4816    3.0655 C   0  0  1  0  0  0  0  0  0  0  0  0
   -2.6256    1.1649    2.6020 O   0  0  0  0  0  0  0  0  0  0  0  0
   -2.8199    1.1986    1.1897 C   0  0  2  0  0  0  0  0  0  0  0  0
   -4.2773    0.8320    0.8797 C   0  0  0  0  0  0  0  0  0  0  0  0
   -4.6511   -0.4416    1.4781 N   0  0  0  0  0  0  0  0  0  0  0  0
   -1.8718    0.2123    0.4825 C   0  0  1  0  0  0  0  0  0  0  0  0
   -2.0423    0.3065   -0.9206 O   0  0  0  0  0  0  0  0  0  0  0  0
   -0.4265    0.5629    0.8573 C   0  0  2  0  0  0  0  0  0  0  0  0
    0.4652   -0.3800    0.2926 O   0  0  0  0  0  0  0  0  0  0  0  0
   -0.2577    0.6082    2.3820 C   0  0  1  0  0  0  0  0  0  0  0  0
    1.0949    1.0687    2.7269 N   0  0  0  0  0  0  0  0  0  0  0  0
   -3.1641    2.1693    7.6369 C   0  0  2  0  0  0  0  0  0  0  0  0
   -3.1545    2.9359    8.8268 O   0  0  0  0  0  0  0  0  0  0  0  0
   -3.1597    0.6628    7.8912 C   0  0  2  0  0  0  0  0  0  0  0  0
   -3.8893    0.2778    9.0395 O   0  0  0  0  0  0  0  0  0  0  0  0
  2  1  1  0  0  0  0
  3  2  1  6  0  0  0
  3 30  1  0  0  0  0
  4  5  1  0  0  0  0
  4  3  1  0  0  0  0
  5 28  1  0  0  0  0
  5  6  1  6  0  0  0
  7  6  1  1  0  0  0
  8  7  1  0  0  0  0
  8  9  1  1  0  0  0
 10 11  1  1  0  0  0
 10  8  1  0  0  0  0
 12 10  1  0  0  0  0
 13 12  1  0  0  0  0
 13 15  1  0  0  0  0
 13 14  1  6  0  0  0
 15  7  1  0  0  0  0
 15 16  1  6  0  0  0
 17 16  1  6  0  0  0
 18 17  1  0  0  0  0
 19 20  1  1  0  0  0
 19 18  1  0  0  0  0
 20 21  1  0  0  0  0
 22 24  1  0  0  0  0
 22 19  1  0  0  0  0
 22 23  1  6  0  0  0
 24 25  1  1  0  0  0
 24 26  1  0  0  0  0
 26 17  1  0  0  0  0
 26 27  1  6  0  0  0
 28 29  1  1  0  0  0
 28 30  1  0  0  0  0
 30 31  1  1  0  0  0
M  END
>  <CHROM.1>
-72.13855466,-61.81380629,-119.12363067,-71.62653176,-81.30966178,-44.86665608
148.68080503,72.35247008,59.69740962,-54.33805748,-57.88081399,-171.63234174
174.12314933,54.50991704,-175.15653035,59.50600951,-2.01614997,2.15751303
4.24873393,-2.97686527,1.42452901,-0.41023891

>  <Name>
lig.pdb

>  <RI>
3.33129e+07

>  <Rbt.Current_Directory>
/home/itssahil/PROJECTS/Mol_Feturizer/New_Systems/rnas/2n0j

>  <Rbt.Executable>
rbdock ($Id: //depot/dev/client3/rdock/2013.1/src/exe/rbdock.cxx#4 $)

>  <Rbt.Library>
libRbt.so (2013.1, Build901 2013/11/27)

>  <Rbt.Parameter_File>
/export/apps/rDock/src/rDock_2013.1_src/data/scripts/dock_solv.prm

>  <Rbt.Receptor>
prm/pocket_docking_4.prm

>  <SCORE>
-40.2555

>  <SCORE.INTER>
-38.9557

>  <SCORE.INTER.CONST>
1

>  <SCORE.INTER.POLAR>
-5.11438

>  <SCORE.INTER.ROT>
6

>  <SCORE.INTER.SOLV>
16.5715

>  <SCORE.INTER.VDW>
-22.0464

>  <SCORE.INTER.norm>
-1.25663

>  <SCORE.INTRA>
-1.29986

>  <SCORE.INTRA.DIHEDRAL>
-13.1009

>  <SCORE.INTRA.DIHEDRAL.0>
28.0161

>  <SCORE.INTRA.POLAR>
0.398623

>  <SCORE.INTRA.POLAR.0>
-1.05798

>  <SCORE.INTRA.REPUL>
0

>  <SCORE.INTRA.REPUL.0>
0

>  <SCORE.INTRA.SOLV>
0.79249

>  <SCORE.INTRA.SOLV.lig_0>
-42.5945

>  <SCORE.INTRA.VDW>
3.49902

>  <SCORE.INTRA.VDW.0>
-5.13869

>  <SCORE.INTRA.norm>
-0.041931

>  <SCORE.RESTR>
0

>  <SCORE.RESTR.CAVITY>
0

>  <SCORE.RESTR.norm>
0

>  <SCORE.SYSTEM>
0

>  <SCORE.SYSTEM.CONST>
0

>  <SCORE.SYSTEM.DIHEDRAL>
0

>  <SCORE.SYSTEM.SOLV>
0

>  <SCORE.SYSTEM.norm>
0

>  <SCORE.heavy>
31

>  <SCORE.norm>
-1.29857

>  <RMSD>
5.737

$$$$
lig.pdb
 OpenBabel11021811453D
libRbt.so/2013.1/901 2013/11/27
 31 33  0  0  0  0  0  0  0  0999 V2000
   -1.6533    6.8067    2.1539 O   0  0  0  0  0  0  0  0  0  0  0  0
   -1.8250    5.5005    1.6395 C   0  0  0  0  0  0  0  0  0  0  0  0
   -0.8709    4.5033    2.3106 C   0  0  1  0  0  0  0  0  0  0  0  0
   -1.0202    3.1943    1.7841 O   0  0  0  0  0  0  0  0  0  0  0  0
    0.1967    2.4718    1.9458 C   0  0  1  0  0  0  0  0  0  0  0  0
    0.5407    1.8267    0.7254 O   0  0  0  0  0  0  0  0  0  0  0  0
    0.0327    0.5182    0.5194 C   0  0  2  0  0  0  0  0  0  0  0  0
   -1.3627    0.6521   -0.1108 C   0  0  1  0  0  0  0  0  0  0  0  0
   -1.2431    1.1415   -1.4373 O   0  0  0  0  0  0  0  0  0  0  0  0
   -2.1483   -0.6663   -0.1791 C   0  0  2  0  0  0  0  0  0  0  0  0
   -3.5056   -0.4458   -0.7019 N   0  0  0  0  0  0  0  0  0  0  0  0
   -2.2345   -1.2859    1.2107 C   0  0  0  0  0  0  0  0  0  0  0  0
   -0.8320   -1.4779    1.7748 C   0  0  2  0  0  0  0  0  0  0  0  0
   -0.9428   -2.1246    3.0867 N   0  0  0  0  0  0  0  0  0  0  0  0
   -0.0985   -0.1222    1.8641 C   0  0  1  0  0  0  0  0  0  0  0  0
    1.1920   -0.4201    2.4183 O   0  0  0  0  0  0  0  0  0  0  0  0
    1.7049    0.4833    3.3917 C   0  0  1  0  0  0  0  0  0  0  0  0
    0.8501    0.5346    4.5306 O   0  0  0  0  0  0  0  0  0  0  0  0
    0.8041   -0.6402    5.3377 C   0  0  2  0  0  0  0  0  0  0  0  0
   -0.1584   -0.4013    6.5087 C   0  0  0  0  0  0  0  0  0  0  0  0
   -0.4937   -1.6426    7.1917 N   0  0  0  0  0  0  0  0  0  0  0  0
    2.2039   -0.9905    5.8758 C   0  0  1  0  0  0  0  0  0  0  0  0
    2.1426   -2.1913    6.6246 O   0  0  0  0  0  0  0  0  0  0  0  0
    3.1594   -1.1638    4.6887 C   0  0  2  0  0  0  0  0  0  0  0  0
    4.4751   -1.4004    5.1534 O   0  0  0  0  0  0  0  0  0  0  0  0
    3.1295    0.0751    3.7835 C   0  0  1  0  0  0  0  0  0  0  0  0
    3.9498   -0.1548    2.5856 N   0  0  0  0  0  0  0  0  0  0  0  0
    1.2794    3.4993    2.3064 C   0  0  2  0  0  0  0  0  0  0  0  0
    1.6566    3.3438    3.6618 O   0  0  0  0  0  0  0  0  0  0  0  0
    0.5903    4.8331    2.0225 C   0  0  2  0  0  0  0  0  0  0  0  0
    1.0934    5.9081    2.7910 O   0  0  0  0  0  0  0  0  0  0  0  0
  2  1  1  0  0  0  0
  3  2  1  6  0  0  0
  3 30  1  0  0  0  0
  4  5  1  0  0  0  0
  4  3  1  0  0  0  0
  5 28  1  0  0  0  0
  5  6  1  6  0  0  0
  7  6  1  1  0  0  0
  8  7  1  0  0  0  0
  8  9  1  6  0  0  0
 10 11  1  1  0  0  0
 10  8  1  0  0  0  0
 12 10  1  0  0  0  0
 13 12  1  0  0  0  0
 13 15  1  0  0  0  0
 13 14  1  1  0  0  0
 15  7  1  0  0  0  0
 15 16  1  6  0  0  0
 17 16  1  6  0  0  0
 18 17  1  0  0  0  0
 19 20  1  1  0  0  0
 19 18  1  0  0  0  0
 20 21  1  0  0  0  0
 22 24  1  0  0  0  0
 22 19  1  0  0  0  0
 22 23  1  6  0  0  0
 24 25  1  1  0  0  0
 24 26  1  0  0  0  0
 26 17  1  0  0  0  0
 26 27  1  6  0  0  0
 28 29  1  1  0  0  0
 28 30  1  0  0  0  0
 30 31  1  1  0  0  0
M  END
>  <CHROM.1>
-59.18880843,-178.98041207,-89.36126363,86.88004342,-168.19900521,-53.84075535
-79.89814974,100.29654493,61.34910477,166.71612080,64.93733224,178.72515414
-65.94688927,-80.67025380,-58.11228055,-176.21444559,0.34890438,0.97795432
2.78387489,-2.27618365,0.86648306,3.00669498

>  <Name>
lig.pdb

>  <RI>
9.20816e+06

>  <Rbt.Current_Directory>
/home/itssahil/PROJECTS/Mol_Feturizer/New_Systems/rnas/2n0j

>  <Rbt.Executable>
rbdock ($Id: //depot/dev/client3/rdock/2013.1/src/exe/rbdock.cxx#4 $)

>  <Rbt.Library>
libRbt.so (2013.1, Build901 2013/11/27)

>  <Rbt.Parameter_File>
/export/apps/rDock/src/rDock_2013.1_src/data/scripts/dock_solv.prm

>  <Rbt.Receptor>
prm/blind_docking_100.prm

>  <SCORE>
-34.8372

>  <SCORE.INTER>
-36.4496

>  <SCORE.INTER.CONST>
1

>  <SCORE.INTER.POLAR>
-3.96375

>  <SCORE.INTER.ROT>
6

>  <SCORE.INTER.SOLV>
24.224

>  <SCORE.INTER.VDW>
-26.7619

>  <SCORE.INTER.norm>
-1.17579

>  <SCORE.INTRA>
0.971125

>  <SCORE.INTRA.DIHEDRAL>
-12.1617

>  <SCORE.INTRA.DIHEDRAL.0>
28.0161

>  <SCORE.INTRA.POLAR>
0.604189

>  <SCORE.INTRA.POLAR.0>
-1.05798

>  <SCORE.INTRA.REPUL>
0

>  <SCORE.INTRA.REPUL.0>
0

>  <SCORE.INTRA.SOLV>
1.69722

>  <SCORE.INTRA.SOLV.lig_0>
-42.5945

>  <SCORE.INTRA.VDW>
4.14911

>  <SCORE.INTRA.VDW.0>
-5.13869

>  <SCORE.INTRA.norm>
0.0313266

>  <SCORE.RESTR>
0.641284

>  <SCORE.RESTR.CAVITY>
0.641284

>  <SCORE.RESTR.norm>
0.0206866

>  <SCORE.SYSTEM>
0

>  <SCORE.SYSTEM.CONST>
0

>  <SCORE.SYSTEM.DIHEDRAL>
0

>  <SCORE.SYSTEM.SOLV>
0

>  <SCORE.SYSTEM.norm>
0

>  <SCORE.heavy>
31

>  <SCORE.norm>
-1.12378

>  <RMSD>
5.746

$$$$
lig.pdb
 OpenBabel11021811453D
libRbt.so/2013.1/901 2013/11/27
 31 33  0  0  0  0  0  0  0  0999 V2000
   -1.6490   -1.7216    8.4130 O   0  0  0  0  0  0  0  0  0  0  0  0
   -1.8176   -0.9353    7.2496 C   0  0  0  0  0  0  0  0  0  0  0  0
   -2.1029    0.5313    7.6001 C   0  0  1  0  0  0  0  0  0  0  0  0
   -1.5142    1.4213    6.6650 O   0  0  0  0  0  0  0  0  0  0  0  0
   -2.2481    2.6417    6.6385 C   0  0  1  0  0  0  0  0  0  0  0  0
   -2.5140    3.0159    5.2919 O   0  0  0  0  0  0  0  0  0  0  0  0
   -1.8544    4.1712    4.7990 C   0  0  2  0  0  0  0  0  0  0  0  0
   -2.6316    5.4008    5.2953 C   0  0  1  0  0  0  0  0  0  0  0  0
   -2.4677    5.5356    6.6983 O   0  0  0  0  0  0  0  0  0  0  0  0
   -2.1864    6.7240    4.6540 C   0  0  2  0  0  0  0  0  0  0  0  0
   -3.0347    7.8395    5.1014 N   0  0  0  0  0  0  0  0  0  0  0  0
   -2.2583    6.6092    3.1359 C   0  0  0  0  0  0  0  0  0  0  0  0
   -1.4146    5.4289    2.6701 C   0  0  2  0  0  0  0  0  0  0  0  0
   -1.4579    5.3759    1.2048 N   0  0  0  0  0  0  0  0  0  0  0  0
   -1.9259    4.1185    3.3065 C   0  0  1  0  0  0  0  0  0  0  0  0
   -1.0760    3.0835    2.7887 O   0  0  0  0  0  0  0  0  0  0  0  0
   -1.4422    1.7382    3.0763 C   0  0  1  0  0  0  0  0  0  0  0  0
   -2.7414    1.4503    2.5665 O   0  0  0  0  0  0  0  0  0  0  0  0
   -2.8652    1.4030    1.1466 C   0  0  2  0  0  0  0  0  0  0  0  0
   -4.3214    1.0815    0.7852 C   0  0  0  0  0  0  0  0  0  0  0  0
   -4.7401   -0.2027    1.3286 N   0  0  0  0  0  0  0  0  0  0  0  0
   -1.9311    0.3336    0.5504 C   0  0  1  0  0  0  0  0  0  0  0  0
   -2.0289    0.3462   -0.8627 O   0  0  0  0  0  0  0  0  0  0  0  0
   -0.4908    0.6438    0.9768 C   0  0  2  0  0  0  0  0  0  0  0  0
    0.3820   -0.3710    0.5171 O   0  0  0  0  0  0  0  0  0  0  0  0
   -0.3942    0.7779    2.5025 C   0  0  1  0  0  0  0  0  0  0  0  0
    0.9601    1.1999    2.8876 N   0  0  0  0  0  0  0  0  0  0  0  0
   -3.5728    2.3800    7.3698 C   0  0  2  0  0  0  0  0  0  0  0  0
   -3.5752    3.0534    8.6148 O   0  0  0  0  0  0  0  0  0  0  0  0
   -3.5900    0.8585    7.5081 C   0  0  2  0  0  0  0  0  0  0  0  0
   -4.3438    0.3963    8.6114 O   0  0  0  0  0  0  0  0  0  0  0  0
  2  1  1  0  0  0  0
  3  2  1  6  0  0  0
  3 30  1  0  0  0  0
  4  5  1  0  0  0  0
  4  3  1  0  0  0  0
  5 28  1  0  0  0  0
  5  6  1  6  0  0  0
  7  6  1  1  0  0  0
  8  7  1  0  0  0  0
  8  9  1  1  0  0  0
 10 11  1  1  0  0  0
 10  8  1  0  0  0  0
 12 10  1  0  0  0  0
 13 12  1  0  0  0  0
 13 15  1  0  0  0  0
 13 14  1  6  0  0  0
 15  7  1  0  0  0  0
 15 16  1  6  0  0  0
 17 16  1  6  0  0  0
 18 17  1  0  0  0  0
 19 20  1  1  0  0  0
 19 18  1  0  0  0  0
 20 21  1  0  0  0  0
 22 24  1  0  0  0  0
 22 19  1  0  0  0  0
 22 23  1  6  0  0  0
 24 25  1  1  0  0  0
 24 26  1  0  0  0  0
 26 17  1  0  0  0  0
 26 27  1  6  0  0  0
 28 29  1  1  0  0  0
 28 30  1  0  0  0  0
 30 31  1  1  0  0  0
M  END
>  <CHROM.1>
-84.76099098,144.73436472,-111.73269724,-80.52358005,61.00858586,74.81287559
178.77559116,67.44001750,59.22066058,-60.17892352,-177.16119905,59.25476051
168.77755451,-179.81326855,-177.13902085,-74.43730393,-2.15434210,2.37174860
4.17418470,-3.03565070,1.38810659,-0.25375925

>  <Name>
lig.pdb

>  <RI>
0

>  <Rbt.Current_Directory>
/home/itssahil/PROJECTS/Mol_Feturizer/New_Systems/rnas/2n0j

>  <Rbt.Executable>
rbdock ($Id: //depot/dev/client3/rdock/2013.1/src/exe/rbdock.cxx#4 $)

>  <Rbt.Library>
libRbt.so (2013.1, Build901 2013/11/27)

>  <Rbt.Parameter_File>
/export/apps/rDock/src/rDock_2013.1_src/data/scripts/dock_solv.prm

>  <Rbt.Receptor>
prm/pocket_docking_5.prm

>  <SCORE>
-41.0285

>  <SCORE.INTER>
-40.9787

>  <SCORE.INTER.CONST>
1

>  <SCORE.INTER.POLAR>
-5.46649

>  <SCORE.INTER.ROT>
6

>  <SCORE.INTER.SOLV>
18.2288

>  <SCORE.INTER.VDW>
-22.7738

>  <SCORE.INTER.norm>
-1.32189

>  <SCORE.INTRA>
-0.0497194

>  <SCORE.INTRA.DIHEDRAL>
-10.5689

>  <SCORE.INTRA.DIHEDRAL.0>
28.0161

>  <SCORE.INTRA.POLAR>
1.05798

>  <SCORE.INTRA.POLAR.0>
-1.05798

>  <SCORE.INTRA.REPUL>
0

>  <SCORE.INTRA.REPUL.0>
0

>  <SCORE.INTRA.SOLV>
-0.072828

>  <SCORE.INTRA.SOLV.lig_0>
-42.5945

>  <SCORE.INTRA.VDW>
1.674

>  <SCORE.INTRA.VDW.0>
-5.13869

>  <SCORE.INTRA.norm>
-0.00160385

>  <SCORE.RESTR>
0

>  <SCORE.RESTR.CAVITY>
0

>  <SCORE.RESTR.norm>
0

>  <SCORE.SYSTEM>
0

>  <SCORE.SYSTEM.CONST>
0

>  <SCORE.SYSTEM.DIHEDRAL>
0

>  <SCORE.SYSTEM.SOLV>
0

>  <SCORE.SYSTEM.norm>
0

>  <SCORE.heavy>
31

>  <SCORE.norm>
-1.3235

>  <RMSD>
5.757

$$$$
lig.pdb
 OpenBabel11021811453D
libRbt.so/2013.1/901 2013/11/27
 31 33  0  0  0  0  0  0  0  0999 V2000
    2.6914    5.5482    2.4936 O   0  0  0  0  0  0  0  0  0  0  0  0
    1.4039    6.1214    2.3757 C   0  0  0  0  0  0  0  0  0  0  0  0
    0.3233    5.0444    2.2091 C   0  0  1  0  0  0  0  0  0  0  0  0
    0.6350    4.1423    1.1593 O   0  0  0  0  0  0  0  0  0  0  0  0
    0.0058    2.8880    1.4036 C   0  0  1  0  0  0  0  0  0  0  0  0
    0.9434    1.8339    1.2203 O   0  0  0  0  0  0  0  0  0  0  0  0
    0.4317    0.5777    0.8043 C   0  0  2  0  0  0  0  0  0  0  0  0
   -0.8145    0.8419   -0.0556 C   0  0  1  0  0  0  0  0  0  0  0  0
   -0.4293    1.4332   -1.2866 O   0  0  0  0  0  0  0  0  0  0  0  0
   -1.6248   -0.4201   -0.3885 C   0  0  2  0  0  0  0  0  0  0  0  0
   -2.8503   -0.0810   -1.1282 N   0  0  0  0  0  0  0  0  0  0  0  0
   -1.9942   -1.1482    0.8985 C   0  0  0  0  0  0  0  0  0  0  0  0
   -0.7309   -1.4649    1.6895 C   0  0  2  0  0  0  0  0  0  0  0  0
   -1.1109   -2.2121    2.8932 N   0  0  0  0  0  0  0  0  0  0  0  0
    0.0257   -0.1647    2.0369 C   0  0  1  0  0  0  0  0  0  0  0  0
    1.1768   -0.5798    2.7881 O   0  0  0  0  0  0  0  0  0  0  0  0
    1.6754    0.3267    3.7660 C   0  0  1  0  0  0  0  0  0  0  0  0
    0.9629    0.1862    4.9921 O   0  0  0  0  0  0  0  0  0  0  0  0
    1.1717   -1.0300    5.7068 C   0  0  2  0  0  0  0  0  0  0  0  0
    0.3318   -1.0024    6.9907 C   0  0  0  0  0  0  0  0  0  0  0  0
    0.6741    0.1342    7.8337 N   0  0  0  0  0  0  0  0  0  0  0  0
    2.6598   -1.2092    6.0604 C   0  0  1  0  0  0  0  0  0  0  0  0
    2.8501   -2.4498    6.7170 O   0  0  0  0  0  0  0  0  0  0  0  0
    3.4821   -1.1721    4.7662 C   0  0  2  0  0  0  0  0  0  0  0  0
    4.8635   -1.2466    5.0650 O   0  0  0  0  0  0  0  0  0  0  0  0
    3.1784    0.1026    3.9674 C   0  0  1  0  0  0  0  0  0  0  0  0
    3.8739    0.0652    2.6731 N   0  0  0  0  0  0  0  0  0  0  0  0
   -0.4683    2.9053    2.8641 C   0  0  2  0  0  0  0  0  0  0  0  0
   -1.8803    2.9922    2.9097 O   0  0  0  0  0  0  0  0  0  0  0  0
    0.2296    4.1395    3.4335 C   0  0  2  0  0  0  0  0  0  0  0  0
   -0.4527    4.7262    4.5241 O   0  0  0  0  0  0  0  0  0  0  0  0
  2  1  1  0  0  0  0
  3  2  1  1  0  0  0
  3 30  1  0  0  0  0
  4  5  1  0  0  0  0
  4  3  1  0  0  0  0
  5 28  1  0  0  0  0
  5  6  1  1  0  0  0
  7  6  1  1  0  0  0
  8  7  1  0  0  0  0
  8  9  1  6  0  0  0
 10 11  1  1  0  0  0
 10  8  1  0  0  0  0
 12 10  1  0  0  0  0
 13 12  1  0  0  0  0
 13 15  1  0  0  0  0
 13 14  1  1  0  0  0
 15  7  1  0  0  0  0
 15 16  1  6  0  0  0
 17 16  1  6  0  0  0
 18 17  1  0  0  0  0
 19 20  1  1  0  0  0
 19 18  1  0  0  0  0
 20 21  1  0  0  0  0
 22 24  1  0  0  0  0
 22 19  1  0  0  0  0
 22 23  1  6  0  0  0
 24 25  1  1  0  0  0
 24 26  1  0  0  0  0
 26 17  1  0  0  0  0
 26 27  1  6  0  0  0
 28 29  1  6  0  0  0
 28 30  1  0  0  0  0
 30 31  1  1  0  0  0
M  END
>  <CHROM.1>
59.33382759,-52.00121944,-151.25663904,30.76222078,51.64188272,-95.11094849
-72.63178349,89.46083245,84.25480914,-58.37685509,-157.85017795,-58.33313418
-64.73881894,167.68519563,-55.58215299,-169.88528677,0.69817869,0.97028232
2.96920050,-2.39686970,0.96355325,2.95666364

>  <Name>
lig.pdb

>  <RI>
1.79691e+07

>  <Rbt.Current_Directory>
/home/itssahil/PROJECTS/Mol_Feturizer/New_Systems/rnas/2n0j

>  <Rbt.Executable>
rbdock ($Id: //depot/dev/client3/rdock/2013.1/src/exe/rbdock.cxx#4 $)

>  <Rbt.Library>
libRbt.so (2013.1, Build901 2013/11/27)

>  <Rbt.Parameter_File>
/export/apps/rDock/src/rDock_2013.1_src/data/scripts/dock_solv.prm

>  <Rbt.Receptor>
prm/blind_docking_20.prm

>  <SCORE>
-32.8074

>  <SCORE.INTER>
-38.727

>  <SCORE.INTER.CONST>
1

>  <SCORE.INTER.POLAR>
-4.4412

>  <SCORE.INTER.ROT>
6

>  <SCORE.INTER.SOLV>
25.1544

>  <SCORE.INTER.VDW>
-26.9988

>  <SCORE.INTER.norm>
-1.24926

>  <SCORE.INTRA>
3.63341

>  <SCORE.INTRA.DIHEDRAL>
-9.46245

>  <SCORE.INTRA.DIHEDRAL.0>
28.0161

>  <SCORE.INTRA.POLAR>
1.04177

>  <SCORE.INTRA.POLAR.0>
-1.05798

>  <SCORE.INTRA.REPUL>
0

>  <SCORE.INTRA.REPUL.0>
0

>  <SCORE.INTRA.SOLV>
0.494503

>  <SCORE.INTRA.SOLV.lig_0>
-42.5945

>  <SCORE.INTRA.VDW>
4.57536

>  <SCORE.INTRA.VDW.0>
-5.13869

>  <SCORE.INTRA.norm>
0.117207

>  <SCORE.RESTR>
2.28618

>  <SCORE.RESTR.CAVITY>
2.28618

>  <SCORE.RESTR.norm>
0.0737479

>  <SCORE.SYSTEM>
0

>  <SCORE.SYSTEM.CONST>
0

>  <SCORE.SYSTEM.DIHEDRAL>
0

>  <SCORE.SYSTEM.SOLV>
0

>  <SCORE.SYSTEM.norm>
0

>  <SCORE.heavy>
31

>  <SCORE.norm>
-1.0583

>  <RMSD>
5.761

$$$$
lig.pdb
 OpenBabel11021811453D
libRbt.so/2013.1/901 2013/11/27
 31 33  0  0  0  0  0  0  0  0999 V2000
    1.1386    7.3943    2.7007 O   0  0  0  0  0  0  0  0  0  0  0  0
    1.6460    6.1469    2.2689 C   0  0  0  0  0  0  0  0  0  0  0  0
    0.5283    5.1047    2.1285 C   0  0  1  0  0  0  0  0  0  0  0  0
    0.8048    4.1701    1.0974 O   0  0  0  0  0  0  0  0  0  0  0  0
    0.1336    2.9439    1.3704 C   0  0  1  0  0  0  0  0  0  0  0  0
    1.0335    1.8543    1.2070 O   0  0  0  0  0  0  0  0  0  0  0  0
    0.4787    0.6107    0.8087 C   0  0  2  0  0  0  0  0  0  0  0  0
   -0.7771    0.9052   -0.0271 C   0  0  1  0  0  0  0  0  0  0  0  0
   -0.4010    1.4792   -1.2691 O   0  0  0  0  0  0  0  0  0  0  0  0
   -1.6289   -0.3354   -0.3362 C   0  0  2  0  0  0  0  0  0  0  0  0
   -2.8594    0.0340   -1.0527 N   0  0  0  0  0  0  0  0  0  0  0  0
   -1.9918   -1.0463    0.9621 C   0  0  0  0  0  0  0  0  0  0  0  0
   -0.7219   -1.3941    1.7290 C   0  0  2  0  0  0  0  0  0  0  0  0
   -1.0978   -2.1242    2.9445 N   0  0  0  0  0  0  0  0  0  0  0  0
    0.0776   -0.1138    2.0535 C   0  0  1  0  0  0  0  0  0  0  0  0
    1.2319   -0.5569    2.7834 O   0  0  0  0  0  0  0  0  0  0  0  0
    1.8164    0.3657    3.6965 C   0  0  1  0  0  0  0  0  0  0  0  0
    1.1443    0.3251    4.9524 O   0  0  0  0  0  0  0  0  0  0  0  0
    1.3127   -0.8651    5.7194 C   0  0  2  0  0  0  0  0  0  0  0  0
    0.5250   -0.7280    7.0291 C   0  0  0  0  0  0  0  0  0  0  0  0
   -0.8941   -0.9881    6.8334 N   0  0  0  0  0  0  0  0  0  0  0  0
    2.8011   -1.1116    6.0289 C   0  0  1  0  0  0  0  0  0  0  0  0
    2.9475   -2.3279    6.7399 O   0  0  0  0  0  0  0  0  0  0  0  0
    3.5744   -1.1836    4.7064 C   0  0  2  0  0  0  0  0  0  0  0  0
    4.9600   -1.3221    4.9597 O   0  0  0  0  0  0  0  0  0  0  0  0
    3.3113    0.0663    3.8558 C   0  0  1  0  0  0  0  0  0  0  0  0
    3.9541   -0.0728    2.5413 N   0  0  0  0  0  0  0  0  0  0  0  0
   -0.3344    3.0087    2.8315 C   0  0  2  0  0  0  0  0  0  0  0  0
   -1.7424    3.1454    2.8792 O   0  0  0  0  0  0  0  0  0  0  0  0
    0.4078    4.2298    3.3723 C   0  0  2  0  0  0  0  0  0  0  0  0
   -0.2499    4.8629    4.4520 O   0  0  0  0  0  0  0  0  0  0  0  0
  2  1  1  0  0  0  0
  3  2  1  1  0  0  0
  3 30  1  0  0  0  0
  4  5  1  0  0  0  0
  4  3  1  0  0  0  0
  5 28  1  0  0  0  0
  5  6  1  1  0  0  0
  7  6  1  1  0  0  0
  8  7  1  0  0  0  0
  8  9  1  6  0  0  0
 10 11  1  1  0  0  0
 10  8  1  0  0  0  0
 12 10  1  0  0  0  0
 13 12  1  0  0  0  0
 13 15  1  0  0  0  0
 13 14  1  1  0  0  0
 15  7  1  0  0  0  0
 15 16  1  6  0  0  0
 17 16  1  6  0  0  0
 18 17  1  0  0  0  0
 19 20  1  1  0  0  0
 19 18  1  0  0  0  0
 20 21  1  0  0  0  0
 22 24  1  0  0  0  0
 22 19  1  0  0  0  0
 22 23  1  6  0  0  0
 24 25  1  1  0  0  0
 24 26  1  0  0  0  0
 26 17  1  0  0  0  0
 26 27  1  6  0  0  0
 28 29  1  6  0  0  0
 28 30  1  0  0  0  0
 30 31  1  1  0  0  0
M  END
>  <CHROM.1>
80.85686541,148.52260320,-150.74599785,29.20388638,53.27390352,34.51431853
-75.85034904,86.34065121,84.24450572,79.63941977,-179.97170235,-52.19271984
-63.48233971,-78.49723521,-50.56048429,-40.51397415,0.67469633,1.05983795
2.92008022,-2.20159934,0.93586293,2.98603926

>  <Name>
lig.pdb

>  <RI>
0

>  <Rbt.Current_Directory>
/home/itssahil/PROJECTS/Mol_Feturizer/New_Systems/rnas/2n0j

>  <Rbt.Executable>
rbdock ($Id: //depot/dev/client3/rdock/2013.1/src/exe/rbdock.cxx#4 $)

>  <Rbt.Library>
libRbt.so (2013.1, Build901 2013/11/27)

>  <Rbt.Parameter_File>
/export/apps/rDock/src/rDock_2013.1_src/data/scripts/dock_solv.prm

>  <Rbt.Receptor>
prm/blind_docking_60.prm

>  <SCORE>
-36.8047

>  <SCORE.INTER>
-45.1474

>  <SCORE.INTER.CONST>
1

>  <SCORE.INTER.POLAR>
-5.97766

>  <SCORE.INTER.ROT>
6

>  <SCORE.INTER.SOLV>
24.6863

>  <SCORE.INTER.VDW>
-26.0015

>  <SCORE.INTER.norm>
-1.45637

>  <SCORE.INTRA>
6.40981

>  <SCORE.INTRA.DIHEDRAL>
-3.65377

>  <SCORE.INTRA.DIHEDRAL.0>
28.0161

>  <SCORE.INTRA.POLAR>
1.04567

>  <SCORE.INTRA.POLAR.0>
-1.05798

>  <SCORE.INTRA.REPUL>
0

>  <SCORE.INTRA.REPUL.0>
0

>  <SCORE.INTRA.SOLV>
-0.134622

>  <SCORE.INTRA.SOLV.lig_0>
-42.5945

>  <SCORE.INTRA.VDW>
4.74871

>  <SCORE.INTRA.VDW.0>
-5.13869

>  <SCORE.INTRA.norm>
0.206768

>  <SCORE.RESTR>
1.93283

>  <SCORE.RESTR.CAVITY>
1.93283

>  <SCORE.RESTR.norm>
0.0623492

>  <SCORE.SYSTEM>
0

>  <SCORE.SYSTEM.CONST>
0

>  <SCORE.SYSTEM.DIHEDRAL>
0

>  <SCORE.SYSTEM.SOLV>
0

>  <SCORE.SYSTEM.norm>
0

>  <SCORE.heavy>
31

>  <SCORE.norm>
-1.18725

>  <RMSD>
5.763

$$$$
lig.pdb
 OpenBabel11021811453D
libRbt.so/2013.1/901 2013/11/27
 31 33  0  0  0  0  0  0  0  0999 V2000
    1.1218    7.2906    2.9735 O   0  0  0  0  0  0  0  0  0  0  0  0
    1.6143    6.1153    2.3601 C   0  0  0  0  0  0  0  0  0  0  0  0
    0.5019    5.0762    2.1643 C   0  0  1  0  0  0  0  0  0  0  0  0
    0.7978    4.1799    1.1051 O   0  0  0  0  0  0  0  0  0  0  0  0
    0.1257    2.9431    1.3229 C   0  0  1  0  0  0  0  0  0  0  0  0
    1.0313    1.8621    1.1354 O   0  0  0  0  0  0  0  0  0  0  0  0
    0.4768    0.6108    0.7617 C   0  0  2  0  0  0  0  0  0  0  0  0
   -0.7836    0.8883   -0.0729 C   0  0  1  0  0  0  0  0  0  0  0  0
   -0.4147    1.4412   -1.3265 O   0  0  0  0  0  0  0  0  0  0  0  0
   -1.6346   -0.3590   -0.3560 C   0  0  2  0  0  0  0  0  0  0  0  0
   -2.8693   -0.0045   -1.0728 N   0  0  0  0  0  0  0  0  0  0  0  0
   -1.9898   -1.0478    0.9564 C   0  0  0  0  0  0  0  0  0  0  0  0
   -0.7154   -1.3798    1.7229 C   0  0  2  0  0  0  0  0  0  0  0  0
   -1.0839   -2.0892    2.9528 N   0  0  0  0  0  0  0  0  0  0  0  0
    0.0833   -0.0926    2.0210 C   0  0  1  0  0  0  0  0  0  0  0  0
    1.2420   -0.5208    2.7528 O   0  0  0  0  0  0  0  0  0  0  0  0
    1.8016    0.4023    3.6809 C   0  0  1  0  0  0  0  0  0  0  0  0
    1.0498    0.4171    4.8913 O   0  0  0  0  0  0  0  0  0  0  0  0
    1.1240   -0.7591    5.6940 C   0  0  2  0  0  0  0  0  0  0  0  0
    0.2602   -0.5613    6.9467 C   0  0  0  0  0  0  0  0  0  0  0  0
   -0.6525   -1.6768    7.1530 N   0  0  0  0  0  0  0  0  0  0  0  0
    2.5793   -1.0516    6.1044 C   0  0  1  0  0  0  0  0  0  0  0  0
    2.6342   -2.2546    6.8503 O   0  0  0  0  0  0  0  0  0  0  0  0
    3.4320   -1.1843    4.8364 C   0  0  2  0  0  0  0  0  0  0  0  0
    4.7924   -1.3666    5.1817 O   0  0  0  0  0  0  0  0  0  0  0  0
    3.2709    0.0530    3.9430 C   0  0  1  0  0  0  0  0  0  0  0  0
    3.9904   -0.1417    2.6761 N   0  0  0  0  0  0  0  0  0  0  0  0
   -0.3662    2.9545    2.7776 C   0  0  2  0  0  0  0  0  0  0  0  0
   -1.7752    3.0863    2.8071 O   0  0  0  0  0  0  0  0  0  0  0  0
    0.3636    4.1572    3.3738 C   0  0  2  0  0  0  0  0  0  0  0  0
   -0.3134    4.7497    4.4646 O   0  0  0  0  0  0  0  0  0  0  0  0
  2  1  1  0  0  0  0
  3  2  1  1  0  0  0
  3 30  1  0  0  0  0
  4  5  1  0  0  0  0
  4  3  1  0  0  0  0
  5 28  1  0  0  0  0
  5  6  1  1  0  0  0
  7  6  1  1  0  0  0
  8  7  1  0  0  0  0
  8  9  1  6  0  0  0
 10 11  1  1  0  0  0
 10  8  1  0  0  0  0
 12 10  1  0  0  0  0
 13 12  1  0  0  0  0
 13 15  1  0  0  0  0
 13 14  1  1  0  0  0
 15  7  1  0  0  0  0
 15 16  1  6  0  0  0
 17 16  1  6  0  0  0
 18 17  1  0  0  0  0
 19 20  1  1  0  0  0
 19 18  1  0  0  0  0
 20 21  1  0  0  0  0
 22 24  1  0  0  0  0
 22 19  1  0  0  0  0
 22 23  1  6  0  0  0
 24 25  1  1  0  0  0
 24 26  1  0  0  0  0
 26 17  1  0  0  0  0
 26 27  1  6  0  0  0
 28 29  1  6  0  0  0
 28 30  1  0  0  0  0
 30 31  1  1  0  0  0
M  END
>  <CHROM.1>
-175.74270623,155.38749979,-154.43911940,31.02104216,49.40542399,30.55528227
164.06581210,88.46431711,79.12944998,129.51582342,83.27661946,-56.58599629
179.51976077,39.13007130,-173.68678602,-172.18096207,0.63261284,1.02466170
2.95115199,-2.18981415,0.97069462,2.95503497

>  <Name>
lig.pdb

>  <RI>
1.55206e+07

>  <Rbt.Current_Directory>
/home/itssahil/PROJECTS/Mol_Feturizer/New_Systems/rnas/2n0j

>  <Rbt.Executable>
rbdock ($Id: //depot/dev/client3/rdock/2013.1/src/exe/rbdock.cxx#4 $)

>  <Rbt.Library>
libRbt.so (2013.1, Build901 2013/11/27)

>  <Rbt.Parameter_File>
/export/apps/rDock/src/rDock_2013.1_src/data/scripts/dock_solv.prm

>  <Rbt.Receptor>
prm/blind_docking_80.prm

>  <SCORE>
-35.1712

>  <SCORE.INTER>
-42.6628

>  <SCORE.INTER.CONST>
1

>  <SCORE.INTER.POLAR>
-5.36604

>  <SCORE.INTER.ROT>
6

>  <SCORE.INTER.SOLV>
25.7666

>  <SCORE.INTER.VDW>
-26.7439

>  <SCORE.INTER.norm>
-1.37622

>  <SCORE.INTRA>
5.53274

>  <SCORE.INTRA.DIHEDRAL>
-4.106

>  <SCORE.INTRA.DIHEDRAL.0>
28.0161

>  <SCORE.INTRA.POLAR>
1.0427

>  <SCORE.INTRA.POLAR.0>
-1.05798

>  <SCORE.INTRA.REPUL>
0

>  <SCORE.INTRA.REPUL.0>
0

>  <SCORE.INTRA.SOLV>
0.136697

>  <SCORE.INTRA.SOLV.lig_0>
-42.5945

>  <SCORE.INTRA.VDW>
3.97221

>  <SCORE.INTRA.VDW.0>
-5.13869

>  <SCORE.INTRA.norm>
0.178475

>  <SCORE.RESTR>
1.95878

>  <SCORE.RESTR.CAVITY>
1.95878

>  <SCORE.RESTR.norm>
0.0631864

>  <SCORE.SYSTEM>
0

>  <SCORE.SYSTEM.CONST>
0

>  <SCORE.SYSTEM.DIHEDRAL>
0

>  <SCORE.SYSTEM.SOLV>
0

>  <SCORE.SYSTEM.norm>
0

>  <SCORE.heavy>
31

>  <SCORE.norm>
-1.13456

>  <RMSD>
5.763

$$$$
lig.pdb
 OpenBabel11021811453D
libRbt.so/2013.1/901 2013/11/27
 31 33  0  0  0  0  0  0  0  0999 V2000
   -0.2791   -1.4552    4.4800 O   0  0  0  0  0  0  0  0  0  0  0  0
    0.2970   -0.5958    5.4442 C   0  0  0  0  0  0  0  0  0  0  0  0
   -0.7749    0.0457    6.3357 C   0  0  1  0  0  0  0  0  0  0  0  0
   -0.8642    1.4465    6.1285 O   0  0  0  0  0  0  0  0  0  0  0  0
   -2.1736    1.8971    6.4622 C   0  0  1  0  0  0  0  0  0  0  0  0
   -2.6729    2.7372    5.4285 O   0  0  0  0  0  0  0  0  0  0  0  0
   -2.0373    3.9932    5.2515 C   0  0  2  0  0  0  0  0  0  0  0  0
   -2.9495    5.0691    5.8621 C   0  0  1  0  0  0  0  0  0  0  0  0
   -2.9664    4.9360    7.2747 O   0  0  0  0  0  0  0  0  0  0  0  0
   -2.5194    6.5091    5.5437 C   0  0  2  0  0  0  0  0  0  0  0  0
   -3.4884    7.4796    6.0759 N   0  0  0  0  0  0  0  0  0  0  0  0
   -2.3988    6.6880    4.0349 C   0  0  0  0  0  0  0  0  0  0  0  0
   -1.4277    5.6574    3.4721 C   0  0  2  0  0  0  0  0  0  0  0  0
   -1.2893    5.8877    2.0300 N   0  0  0  0  0  0  0  0  0  0  0  0
   -1.9235    4.2279    3.7793 C   0  0  1  0  0  0  0  0  0  0  0  0
   -0.9498    3.3501    3.1939 O   0  0  0  0  0  0  0  0  0  0  0  0
   -1.1057    1.9554    3.4333 C   0  0  1  0  0  0  0  0  0  0  0  0
   -2.3530    1.4934    2.9220 O   0  0  0  0  0  0  0  0  0  0  0  0
   -2.4861    1.4792    1.5023 C   0  0  2  0  0  0  0  0  0  0  0  0
   -3.8818    0.9550    1.1391 C   0  0  0  0  0  0  0  0  0  0  0  0
   -4.9126    1.9533    1.3851 N   0  0  0  0  0  0  0  0  0  0  0  0
   -1.4092    0.5851    0.8599 C   0  0  1  0  0  0  0  0  0  0  0  0
   -1.5254    0.6338   -0.5510 O   0  0  0  0  0  0  0  0  0  0  0  0
   -0.0268    1.0934    1.2876 C   0  0  2  0  0  0  0  0  0  0  0  0
    0.9830    0.2391    0.7842 O   0  0  0  0  0  0  0  0  0  0  0  0
    0.0676    1.1855    2.8166 C   0  0  1  0  0  0  0  0  0  0  0  0
    1.3477    1.7928    3.2079 N   0  0  0  0  0  0  0  0  0  0  0  0
   -3.0575    0.6469    6.5799 C   0  0  2  0  0  0  0  0  0  0  0  0
   -3.3930    0.4219    7.9365 O   0  0  0  0  0  0  0  0  0  0  0  0
   -2.1747   -0.4506    5.9879 C   0  0  2  0  0  0  0  0  0  0  0  0
   -2.4612   -1.7420    6.4874 O   0  0  0  0  0  0  0  0  0  0  0  0
  2  1  1  0  0  0  0
  3  2  1  6  0  0  0
  3 30  1  0  0  0  0
  4  5  1  0  0  0  0
  4  3  1  0  0  0  0
  5 28  1  0  0  0  0
  5  6  1  6  0  0  0
  7  6  1  6  0  0  0
  8  7  1  0  0  0  0
  8  9  1  1  0  0  0
 10 11  1  6  0  0  0
 10  8  1  0  0  0  0
 12 10  1  0  0  0  0
 13 12  1  0  0  0  0
 13 15  1  0  0  0  0
 13 14  1  6  0  0  0
 15  7  1  0  0  0  0
 15 16  1  1  0  0  0
 17 16  1  6  0  0  0
 18 17  1  0  0  0  0
 19 20  1  1  0  0  0
 19 18  1  0  0  0  0
 20 21  1  0  0  0  0
 22 24  1  0  0  0  0
 22 19  1  0  0  0  0
 22 23  1  6  0  0  0
 24 25  1  1  0  0  0
 24 26  1  0  0  0  0
 26 17  1  0  0  0  0
 26 27  1  6  0  0  0
 28 29  1  1  0  0  0
 28 30  1  0  0  0  0
 30 31  1  1  0  0  0
M  END
>  <CHROM.1>
-148.22356057,-113.08462352,-67.83909478,-103.24869998,61.16625103,57.71561317
-47.79146816,53.82869029,60.48368019,74.91873948,170.95614563,62.42002033
-62.25152792,74.98260014,-173.85784575,170.19204204,-1.77125636,2.24198449
4.07307025,0.32786199,-1.27548555,2.34910268

>  <Name>
lig.pdb

>  <RI>
2.74555e+07

>  <Rbt.Current_Directory>
/home/itssahil/PROJECTS/Mol_Feturizer/New_Systems/rnas/2n0j

>  <Rbt.Executable>
rbdock ($Id: //depot/dev/client3/rdock/2013.1/src/exe/rbdock.cxx#4 $)

>  <Rbt.Library>
libRbt.so (2013.1, Build901 2013/11/27)

>  <Rbt.Parameter_File>
/export/apps/rDock/src/rDock_2013.1_src/data/scripts/dock_solv.prm

>  <Rbt.Receptor>
prm/pocket_docking_6.prm

>  <SCORE>
-40.0721

>  <SCORE.INTER>
-41.2123

>  <SCORE.INTER.CONST>
1

>  <SCORE.INTER.POLAR>
-5.82803

>  <SCORE.INTER.ROT>
6

>  <SCORE.INTER.SOLV>
17.1531

>  <SCORE.INTER.VDW>
-21.3658

>  <SCORE.INTER.norm>
-1.32943

>  <SCORE.INTRA>
1.14021

>  <SCORE.INTRA.DIHEDRAL>
-9.76438

>  <SCORE.INTRA.DIHEDRAL.0>
28.0161

>  <SCORE.INTRA.POLAR>
0.939653

>  <SCORE.INTRA.POLAR.0>
-1.05798

>  <SCORE.INTRA.REPUL>
0

>  <SCORE.INTRA.REPUL.0>
0

>  <SCORE.INTRA.SOLV>
1.33438

>  <SCORE.INTRA.SOLV.lig_0>
-42.5945

>  <SCORE.INTRA.VDW>
2.16039

>  <SCORE.INTRA.VDW.0>
-5.13869

>  <SCORE.INTRA.norm>
0.0367809

>  <SCORE.RESTR>
0

>  <SCORE.RESTR.CAVITY>
0

>  <SCORE.RESTR.norm>
0

>  <SCORE.SYSTEM>
0

>  <SCORE.SYSTEM.CONST>
0

>  <SCORE.SYSTEM.DIHEDRAL>
0

>  <SCORE.SYSTEM.SOLV>
0

>  <SCORE.SYSTEM.norm>
0

>  <SCORE.heavy>
31

>  <SCORE.norm>
-1.29265

>  <RMSD>
5.763

$$$$
lig.pdb
 OpenBabel11021811453D
libRbt.so/2013.1/901 2013/11/27
 31 33  0  0  0  0  0  0  0  0999 V2000
    3.2334    5.3207    2.5415 O   0  0  0  0  0  0  0  0  0  0  0  0
    1.9902    5.7820    3.0332 C   0  0  0  0  0  0  0  0  0  0  0  0
    0.8258    5.2942    2.1605 C   0  0  1  0  0  0  0  0  0  0  0  0
    1.0178    3.9581    1.7233 O   0  0  0  0  0  0  0  0  0  0  0  0
   -0.2455    3.3522    1.4672 C   0  0  1  0  0  0  0  0  0  0  0  0
   -0.2987    2.0695    2.0802 O   0  0  0  0  0  0  0  0  0  0  0  0
   -0.4116    0.9459    1.2213 C   0  0  2  0  0  0  0  0  0  0  0  0
   -1.8548    0.9034    0.6944 C   0  0  1  0  0  0  0  0  0  0  0  0
   -2.0708    1.9867   -0.1962 O   0  0  0  0  0  0  0  0  0  0  0  0
   -2.2080   -0.3868   -0.0612 C   0  0  2  0  0  0  0  0  0  0  0  0
   -3.6266   -0.3996   -0.4502 N   0  0  0  0  0  0  0  0  0  0  0  0
   -1.9125   -1.5954    0.8192 C   0  0  0  0  0  0  0  0  0  0  0  0
   -0.4542   -1.5649    1.2599 C   0  0  2  0  0  0  0  0  0  0  0  0
   -0.1845   -2.7654    2.0585 N   0  0  0  0  0  0  0  0  0  0  0  0
   -0.1587   -0.2721    2.0506 C   0  0  1  0  0  0  0  0  0  0  0  0
    1.2247   -0.3593    2.4251 O   0  0  0  0  0  0  0  0  0  0  0  0
    1.6962    0.5749    3.3903 C   0  0  1  0  0  0  0  0  0  0  0  0
    0.8446    0.5911    4.5328 O   0  0  0  0  0  0  0  0  0  0  0  0
    0.8605   -0.5791    5.3475 C   0  0  2  0  0  0  0  0  0  0  0  0
   -0.1078   -0.3806    6.5212 C   0  0  0  0  0  0  0  0  0  0  0  0
   -0.4459   -1.6446    7.1599 N   0  0  0  0  0  0  0  0  0  0  0  0
    2.2781   -0.8559    5.8815 C   0  0  1  0  0  0  0  0  0  0  0  0
    2.2797   -2.0534    6.6382 O   0  0  0  0  0  0  0  0  0  0  0  0
    3.2361   -0.9894    4.6911 C   0  0  2  0  0  0  0  0  0  0  0  0
    4.5639   -1.1574    5.1514 O   0  0  0  0  0  0  0  0  0  0  0  0
    3.1409    0.2404    3.7782 C   0  0  1  0  0  0  0  0  0  0  0  0
    3.9665    0.0437    2.5781 N   0  0  0  0  0  0  0  0  0  0  0  0
   -1.3111    4.2645    2.0921 C   0  0  2  0  0  0  0  0  0  0  0  0
   -2.0429    4.9171    1.0714 O   0  0  0  0  0  0  0  0  0  0  0  0
   -0.4807    5.2228    2.9444 C   0  0  2  0  0  0  0  0  0  0  0  0
   -1.0933    6.4812    3.1457 O   0  0  0  0  0  0  0  0  0  0  0  0
  2  1  1  0  0  0  0
  3  2  1  1  0  0  0
  3 30  1  0  0  0  0
  4  5  1  0  0  0  0
  4  3  1  0  0  0  0
  5 28  1  0  0  0  0
  5  6  1  1  0  0  0
  7  6  1  1  0  0  0
  8  7  1  0  0  0  0
  8  9  1  6  0  0  0
 10 11  1  1  0  0  0
 10  8  1  0  0  0  0
 12 10  1  0  0  0  0
 13 12  1  0  0  0  0
 13 15  1  0  0  0  0
 13 14  1  1  0  0  0
 15  7  1  0  0  0  0
 15 16  1  6  0  0  0
 17 16  1  6  0  0  0
 18 17  1  0  0  0  0
 19 20  1  1  0  0  0
 19 18  1  0  0  0  0
 20 21  1  0  0  0  0
 22 24  1  0  0  0  0
 22 19  1  0  0  0  0
 22 23  1  6  0  0  0
 24 25  1  1  0  0  0
 24 26  1  0  0  0  0
 26 17  1  0  0  0  0
 26 27  1  6  0  0  0
 28 29  1  6  0  0  0
 28 30  1  0  0  0  0
 30 31  1  6  0  0  0
M  END
>  <CHROM.1>
-174.55029772,39.24418852,-115.59359866,-74.50973642,-79.83434496,-63.72818987
-99.49367428,71.38156289,50.60613613,163.01898392,67.61701719,176.30824951
81.97536283,162.76022506,-173.35577747,175.02891135,0.40498791,1.18803599
2.84849928,-2.10354109,0.73667229,2.95800597

>  <Name>
lig.pdb

>  <RI>
0

>  <Rbt.Current_Directory>
/home/itssahil/PROJECTS/Mol_Feturizer/New_Systems/rnas/2n0j

>  <Rbt.Executable>
rbdock ($Id: //depot/dev/client3/rdock/2013.1/src/exe/rbdock.cxx#4 $)

>  <Rbt.Library>
libRbt.so (2013.1, Build901 2013/11/27)

>  <Rbt.Parameter_File>
/export/apps/rDock/src/rDock_2013.1_src/data/scripts/dock_solv.prm

>  <Rbt.Receptor>
prm/blind_docking_60.prm

>  <SCORE>
-36.4965

>  <SCORE.INTER>
-37.4142

>  <SCORE.INTER.CONST>
1

>  <SCORE.INTER.POLAR>
-6.00041

>  <SCORE.INTER.ROT>
6

>  <SCORE.INTER.SOLV>
24.7934

>  <SCORE.INTER.VDW>
-20.8059

>  <SCORE.INTER.norm>
-1.20691

>  <SCORE.INTRA>
-0.227496

>  <SCORE.INTRA.DIHEDRAL>
-8.28062

>  <SCORE.INTRA.DIHEDRAL.0>
28.0161

>  <SCORE.INTRA.POLAR>
0.175038

>  <SCORE.INTRA.POLAR.0>
-1.05798

>  <SCORE.INTRA.REPUL>
0

>  <SCORE.INTRA.REPUL.0>
0

>  <SCORE.INTRA.SOLV>
0.518759

>  <SCORE.INTRA.SOLV.lig_0>
-42.5945

>  <SCORE.INTRA.VDW>
3.0583

>  <SCORE.INTRA.VDW.0>
-5.13869

>  <SCORE.INTRA.norm>
-0.00733858

>  <SCORE.RESTR>
1.14527

>  <SCORE.RESTR.CAVITY>
1.14527

>  <SCORE.RESTR.norm>
0.0369442

>  <SCORE.SYSTEM>
0

>  <SCORE.SYSTEM.CONST>
0

>  <SCORE.SYSTEM.DIHEDRAL>
0

>  <SCORE.SYSTEM.SOLV>
0

>  <SCORE.SYSTEM.norm>
0

>  <SCORE.heavy>
31

>  <SCORE.norm>
-1.17731

>  <RMSD>
5.768

$$$$
lig.pdb
 OpenBabel11021811453D
libRbt.so/2013.1/901 2013/11/27
 31 33  0  0  0  0  0  0  0  0999 V2000
   -5.7172   -4.1887    4.4835 O   0  0  0  0  0  0  0  0  0  0  0  0
   -4.9382   -3.0764    4.8784 C   0  0  0  0  0  0  0  0  0  0  0  0
   -4.4061   -2.3043    3.6634 C   0  0  1  0  0  0  0  0  0  0  0  0
   -3.5908   -1.2094    4.0499 O   0  0  0  0  0  0  0  0  0  0  0  0
   -2.6682   -0.9083    3.0073 C   0  0  1  0  0  0  0  0  0  0  0  0
   -1.3603   -0.7618    3.5475 O   0  0  0  0  0  0  0  0  0  0  0  0
   -0.4226   -0.0229    2.7810 C   0  0  2  0  0  0  0  0  0  0  0  0
    0.9772   -0.5724    3.0984 C   0  0  1  0  0  0  0  0  0  0  0  0
    1.1112   -1.8788    2.5610 O   0  0  0  0  0  0  0  0  0  0  0  0
    2.1262    0.2751    2.5312 C   0  0  2  0  0  0  0  0  0  0  0  0
    3.4319   -0.2543    2.9544 N   0  0  0  0  0  0  0  0  0  0  0  0
    1.9851    1.7164    3.0064 C   0  0  0  0  0  0  0  0  0  0  0  0
    0.6173    2.2566    2.6073 C   0  0  2  0  0  0  0  0  0  0  0  0
    0.5304    3.6592    3.0280 N   0  0  0  0  0  0  0  0  0  0  0  0
   -0.5030    1.3994    3.2348 C   0  0  1  0  0  0  0  0  0  0  0  0
   -1.7334    2.0048    2.8090 O   0  0  0  0  0  0  0  0  0  0  0  0
   -2.8634    1.8469    3.6602 C   0  0  1  0  0  0  0  0  0  0  0  0
   -2.5754    2.3220    4.9724 O   0  0  0  0  0  0  0  0  0  0  0  0
   -2.4043    3.7310    5.1093 C   0  0  2  0  0  0  0  0  0  0  0  0
   -2.1051    4.0549    6.5790 C   0  0  0  0  0  0  0  0  0  0  0  0
   -3.1164    3.5022    7.4687 N   0  0  0  0  0  0  0  0  0  0  0  0
   -3.6695    4.4832    4.6561 C   0  0  1  0  0  0  0  0  0  0  0  0
   -3.4541    5.8804    4.7460 O   0  0  0  0  0  0  0  0  0  0  0  0
   -3.9807    4.0953    3.2052 C   0  0  2  0  0  0  0  0  0  0  0  0
   -5.1886    4.7031    2.7874 O   0  0  0  0  0  0  0  0  0  0  0  0
   -4.0742    2.5705    3.0600 C   0  0  1  0  0  0  0  0  0  0  0  0
   -4.2453    2.2074    1.6460 N   0  0  0  0  0  0  0  0  0  0  0  0
   -2.6921   -2.0970    2.0353 C   0  0  2  0  0  0  0  0  0  0  0  0
   -3.3245   -1.7170    0.8274 O   0  0  0  0  0  0  0  0  0  0  0  0
   -3.4692   -3.1573    2.8140 C   0  0  2  0  0  0  0  0  0  0  0  0
   -4.1392   -4.0908    1.9901 O   0  0  0  0  0  0  0  0  0  0  0  0
  2  1  1  0  0  0  0
  3  2  1  1  0  0  0
  3 30  1  0  0  0  0
  4  5  1  0  0  0  0
  4  3  1  0  0  0  0
  5 28  1  0  0  0  0
  5  6  1  1  0  0  0
  7  6  1  1  0  0  0
  8  7  1  0  0  0  0
  8  9  1  6  0  0  0
 10 11  1  1  0  0  0
 10  8  1  0  0  0  0
 12 10  1  0  0  0  0
 13 12  1  0  0  0  0
 13 15  1  0  0  0  0
 13 14  1  1  0  0  0
 15  7  1  0  0  0  0
 15 16  1  6  0  0  0
 17 16  1  6  0  0  0
 18 17  1  0  0  0  0
 19 20  1  1  0  0  0
 19 18  1  0  0  0  0
 20 21  1  0  0  0  0
 22 24  1  0  0  0  0
 22 19  1  0  0  0  0
 22 23  1  6  0  0  0
 24 25  1  1  0  0  0
 24 26  1  0  0  0  0
 26 17  1  0  0  0  0
 26 27  1  6  0  0  0
 28 29  1  6  0  0  0
 28 30  1  0  0  0  0
 30 31  1  6  0  0  0
M  END
>  <CHROM.1>
-177.63798661,-178.26973134,-158.50505697,-150.82029034,67.99600055,54.70666288
-56.34619810,86.95190215,55.89265710,-53.76813651,-65.53803568,-172.34366236
38.71464462,154.48850747,176.59506801,-53.86330759,-2.15512521,0.78379256
3.47644113,1.64788423,-0.17224354,-2.91907330

>  <Name>
lig.pdb

>  <RI>
2.74555e+07

>  <Rbt.Current_Directory>
/home/itssahil/PROJECTS/Mol_Feturizer/New_Systems/rnas/2n0j

>  <Rbt.Executable>
rbdock ($Id: //depot/dev/client3/rdock/2013.1/src/exe/rbdock.cxx#4 $)

>  <Rbt.Library>
libRbt.so (2013.1, Build901 2013/11/27)

>  <Rbt.Parameter_File>
/export/apps/rDock/src/rDock_2013.1_src/data/scripts/dock_solv.prm

>  <Rbt.Receptor>
prm/pocket_docking_6.prm

>  <SCORE>
-34.9952

>  <SCORE.INTER>
-32.0267

>  <SCORE.INTER.CONST>
1

>  <SCORE.INTER.POLAR>
-4.3355

>  <SCORE.INTER.ROT>
6

>  <SCORE.INTER.SOLV>
14.3011

>  <SCORE.INTER.VDW>
-19.2665

>  <SCORE.INTER.norm>
-1.03312

>  <SCORE.INTRA>
-2.96854

>  <SCORE.INTRA.DIHEDRAL>
-14.4913

>  <SCORE.INTRA.DIHEDRAL.0>
28.0161

>  <SCORE.INTRA.POLAR>
0.554355

>  <SCORE.INTRA.POLAR.0>
-1.05798

>  <SCORE.INTRA.REPUL>
0

>  <SCORE.INTRA.REPUL.0>
0

>  <SCORE.INTRA.SOLV>
0.624549

>  <SCORE.INTRA.SOLV.lig_0>
-42.5945

>  <SCORE.INTRA.VDW>
2.08005

>  <SCORE.INTRA.VDW.0>
-5.13869

>  <SCORE.INTRA.norm>
-0.0957594

>  <SCORE.RESTR>
0

>  <SCORE.RESTR.CAVITY>
0

>  <SCORE.RESTR.norm>
0

>  <SCORE.SYSTEM>
0

>  <SCORE.SYSTEM.CONST>
0

>  <SCORE.SYSTEM.DIHEDRAL>
0

>  <SCORE.SYSTEM.SOLV>
0

>  <SCORE.SYSTEM.norm>
0

>  <SCORE.heavy>
31

>  <SCORE.norm>
-1.12888

>  <RMSD>
5.772

$$$$
lig.pdb
 OpenBabel11021811453D
libRbt.so/2013.1/901 2013/11/27
 31 33  0  0  0  0  0  0  0  0999 V2000
   -0.1935   -2.0346    6.8500 O   0  0  0  0  0  0  0  0  0  0  0  0
   -1.4727   -1.5963    7.2641 C   0  0  0  0  0  0  0  0  0  0  0  0
   -1.4697   -0.1001    7.6060 C   0  0  1  0  0  0  0  0  0  0  0  0
   -0.9450    0.6823    6.5451 O   0  0  0  0  0  0  0  0  0  0  0  0
   -1.4847    1.9989    6.6092 C   0  0  1  0  0  0  0  0  0  0  0  0
   -1.9428    2.3959    5.3222 O   0  0  0  0  0  0  0  0  0  0  0  0
   -1.4697    3.6360    4.8210 C   0  0  2  0  0  0  0  0  0  0  0  0
   -2.2628    4.7543    5.5155 C   0  0  1  0  0  0  0  0  0  0  0  0
   -1.8950    4.8222    6.8842 O   0  0  0  0  0  0  0  0  0  0  0  0
   -2.0382    6.1492    4.9121 C   0  0  2  0  0  0  0  0  0  0  0  0
   -2.8993    7.1501    5.5608 N   0  0  0  0  0  0  0  0  0  0  0  0
   -2.3352    6.1167    3.4175 C   0  0  0  0  0  0  0  0  0  0  0  0
   -1.4760    5.0520    2.7467 C   0  0  2  0  0  0  0  0  0  0  0  0
   -1.7420    5.0805    1.3044 N   0  0  0  0  0  0  0  0  0  0  0  0
   -1.7675    3.6637    3.3561 C   0  0  1  0  0  0  0  0  0  0  0  0
   -0.9228    2.7470    2.6436 O   0  0  0  0  0  0  0  0  0  0  0  0
   -1.2328    1.3616    2.7501 C   0  0  1  0  0  0  0  0  0  0  0  0
   -2.5873    1.1191    2.3797 O   0  0  0  0  0  0  0  0  0  0  0  0
   -2.9063    1.3006    1.0017 C   0  0  2  0  0  0  0  0  0  0  0  0
   -4.3954    0.9955    0.7920 C   0  0  0  0  0  0  0  0  0  0  0  0
   -5.2344    1.7508    1.7114 N   0  0  0  0  0  0  0  0  0  0  0  0
   -2.0537    0.3738    0.1152 C   0  0  1  0  0  0  0  0  0  0  0  0
   -2.3465    0.6141   -1.2497 O   0  0  0  0  0  0  0  0  0  0  0  0
   -0.5712    0.6565    0.3887 C   0  0  2  0  0  0  0  0  0  0  0  0
    0.2391   -0.2407   -0.3471 O   0  0  0  0  0  0  0  0  0  0  0  0
   -0.2654    0.5425    1.8882 C   0  0  1  0  0  0  0  0  0  0  0  0
    1.1251    0.9394    2.1516 N   0  0  0  0  0  0  0  0  0  0  0  0
   -2.6711    1.9462    7.5828 C   0  0  2  0  0  0  0  0  0  0  0  0
   -2.3399    2.6241    8.7804 O   0  0  0  0  0  0  0  0  0  0  0  0
   -2.8834    0.4460    7.7791 C   0  0  2  0  0  0  0  0  0  0  0  0
   -3.4744    0.1128    9.0196 O   0  0  0  0  0  0  0  0  0  0  0  0
  2  1  1  0  0  0  0
  3  2  1  6  0  0  0
  3 30  1  0  0  0  0
  4  5  1  0  0  0  0
  4  3  1  0  0  0  0
  5 28  1  0  0  0  0
  5  6  1  6  0  0  0
  7  6  1  1  0  0  0
  8  7  1  0  0  0  0
  8  9  1  1  0  0  0
 10 11  1  1  0  0  0
 10  8  1  0  0  0  0
 12 10  1  0  0  0  0
 13 12  1  0  0  0  0
 13 15  1  0  0  0  0
 13 14  1  6  0  0  0
 15  7  1  0  0  0  0
 15 16  1  6  0  0  0
 17 16  1  6  0  0  0
 18 17  1  0  0  0  0
 19 20  1  1  0  0  0
 19 18  1  0  0  0  0
 20 21  1  0  0  0  0
 22 24  1  0  0  0  0
 22 19  1  0  0  0  0
 22 23  1  6  0  0  0
 24 25  1  6  0  0  0
 24 26  1  0  0  0  0
 26 17  1  0  0  0  0
 26 27  1  6  0  0  0
 28 29  1  1  0  0  0
 28 30  1  0  0  0  0
 30 31  1  1  0  0  0
M  END
>  <CHROM.1>
62.96208699,53.12371349,-127.61173463,-77.85400241,50.72564971,-49.61487275
-94.52263793,75.30757337,54.57171738,52.50271631,-165.31550782,-64.17891728
173.46758674,177.51055369,62.55258862,63.81541455,-1.86362782,2.09308401
4.07313417,-1.87977859,1.38501945,-1.32239913

>  <Name>
lig.pdb

>  <RI>
3.32461e+07

>  <Rbt.Current_Directory>
/home/itssahil/PROJECTS/Mol_Feturizer/New_Systems/rnas/2n0j

>  <Rbt.Executable>
rbdock ($Id: //depot/dev/client3/rdock/2013.1/src/exe/rbdock.cxx#4 $)

>  <Rbt.Library>
libRbt.so (2013.1, Build901 2013/11/27)

>  <Rbt.Parameter_File>
/export/apps/rDock/src/rDock_2013.1_src/data/scripts/dock_solv.prm

>  <Rbt.Receptor>
prm/pocket_docking_7.prm

>  <SCORE>
-46.5012

>  <SCORE.INTER>
-42.4624

>  <SCORE.INTER.CONST>
1

>  <SCORE.INTER.POLAR>
-5.42721

>  <SCORE.INTER.ROT>
6

>  <SCORE.INTER.SOLV>
18.8908

>  <SCORE.INTER.VDW>
-24.1145

>  <SCORE.INTER.norm>
-1.36976

>  <SCORE.INTRA>
-4.03874

>  <SCORE.INTRA.DIHEDRAL>
-13.8226

>  <SCORE.INTRA.DIHEDRAL.0>
28.0161

>  <SCORE.INTRA.POLAR>
0.172741

>  <SCORE.INTRA.POLAR.0>
-1.05798

>  <SCORE.INTRA.REPUL>
0

>  <SCORE.INTRA.REPUL.0>
0

>  <SCORE.INTRA.SOLV>
-0.433555

>  <SCORE.INTRA.SOLV.lig_0>
-42.5945

>  <SCORE.INTRA.VDW>
2.50203

>  <SCORE.INTRA.VDW.0>
-5.13869

>  <SCORE.INTRA.norm>
-0.130282

>  <SCORE.RESTR>
0

>  <SCORE.RESTR.CAVITY>
0

>  <SCORE.RESTR.norm>
0

>  <SCORE.SYSTEM>
0

>  <SCORE.SYSTEM.CONST>
0

>  <SCORE.SYSTEM.DIHEDRAL>
0

>  <SCORE.SYSTEM.SOLV>
0

>  <SCORE.SYSTEM.norm>
0

>  <SCORE.heavy>
31

>  <SCORE.norm>
-1.50004

>  <RMSD>
5.776

$$$$
lig.pdb
 OpenBabel11021811453D
libRbt.so/2013.1/901 2013/11/27
 31 33  0  0  0  0  0  0  0  0999 V2000
   -2.3429    6.0908    2.7047 O   0  0  0  0  0  0  0  0  0  0  0  0
   -2.1033    4.8615    2.0478 C   0  0  0  0  0  0  0  0  0  0  0  0
   -0.7832    4.2278    2.5074 C   0  0  1  0  0  0  0  0  0  0  0  0
   -0.6732    2.8764    2.0894 O   0  0  0  0  0  0  0  0  0  0  0  0
    0.7014    2.5198    1.9796 C   0  0  1  0  0  0  0  0  0  0  0  0
    0.9312    1.8594    0.7407 O   0  0  0  0  0  0  0  0  0  0  0  0
    0.3502    0.5758    0.5740 C   0  0  2  0  0  0  0  0  0  0  0  0
   -0.9989    0.7622   -0.1383 C   0  0  1  0  0  0  0  0  0  0  0  0
   -0.7791    1.1702   -1.4795 O   0  0  0  0  0  0  0  0  0  0  0  0
   -1.8644   -0.5063   -0.1825 C   0  0  2  0  0  0  0  0  0  0  0  0
   -3.1754   -0.2303   -0.7900 N   0  0  0  0  0  0  0  0  0  0  0  0
   -2.0627   -1.0428    1.2302 C   0  0  0  0  0  0  0  0  0  0  0  0
   -0.7068   -1.2909    1.8799 C   0  0  2  0  0  0  0  0  0  0  0  0
   -0.9275   -1.8572    3.2150 N   0  0  0  0  0  0  0  0  0  0  0  0
    0.1079    0.0191    1.9403 C   0  0  1  0  0  0  0  0  0  0  0  0
    1.3458   -0.3282    2.5794 O   0  0  0  0  0  0  0  0  0  0  0  0
    1.8174    0.5456    3.5995 C   0  0  1  0  0  0  0  0  0  0  0  0
    0.9841    0.4687    4.7530 O   0  0  0  0  0  0  0  0  0  0  0  0
    1.0321   -0.7542    5.4849 C   0  0  2  0  0  0  0  0  0  0  0  0
    0.0796   -0.6535    6.6838 C   0  0  0  0  0  0  0  0  0  0  0  0
    0.7021    0.0273    7.8102 N   0  0  0  0  0  0  0  0  0  0  0  0
    2.4625   -1.0423    5.9774 C   0  0  1  0  0  0  0  0  0  0  0  0
    2.4957   -2.2886    6.6498 O   0  0  0  0  0  0  0  0  0  0  0  0
    3.4033   -1.0772    4.7666 C   0  0  2  0  0  0  0  0  0  0  0  0
    4.7408   -1.2532    5.1944 O   0  0  0  0  0  0  0  0  0  0  0  0
    3.2734    0.2105    3.9420 C   0  0  1  0  0  0  0  0  0  0  0  0
    4.0828    0.1109    2.7191 N   0  0  0  0  0  0  0  0  0  0  0  0
    1.5048    3.8279    2.0209 C   0  0  2  0  0  0  0  0  0  0  0  0
    2.2029    3.9242    3.2484 O   0  0  0  0  0  0  0  0  0  0  0  0
    0.4243    4.8958    1.8574 C   0  0  2  0  0  0  0  0  0  0  0  0
    0.7642    6.1415    2.4333 O   0  0  0  0  0  0  0  0  0  0  0  0
  2  1  1  0  0  0  0
  3  2  1  6  0  0  0
  3 30  1  0  0  0  0
  4  5  1  0  0  0  0
  4  3  1  0  0  0  0
  5 28  1  0  0  0  0
  5  6  1  6  0  0  0
  7  6  1  1  0  0  0
  8  7  1  0  0  0  0
  8  9  1  6  0  0  0
 10 11  1  1  0  0  0
 10  8  1  0  0  0  0
 12 10  1  0  0  0  0
 13 12  1  0  0  0  0
 13 15  1  0  0  0  0
 13 14  1  1  0  0  0
 15  7  1  0  0  0  0
 15 16  1  6  0  0  0
 17 16  1  6  0  0  0
 18 17  1  0  0  0  0
 19 20  1  1  0  0  0
 19 18  1  0  0  0  0
 20 21  1  0  0  0  0
 22 24  1  0  0  0  0
 22 19  1  0  0  0  0
 22 23  1  6  0  0  0
 24 25  1  1  0  0  0
 24 26  1  0  0  0  0
 26 17  1  0  0  0  0
 26 27  1  6  0  0  0
 28 29  1  1  0  0  0
 28 30  1  0  0  0  0
 30 31  1  1  0  0  0
M  END
>  <CHROM.1>
168.90436825,167.01300566,-67.93274286,94.51467653,29.80651008,-172.25315302
34.15702197,104.60985265,69.47897427,-82.85979552,135.70124398,-60.19512077
114.18907389,-82.99691348,178.80024753,65.15684468,0.55898826,1.07286723
2.86650479,-2.50289911,0.91873968,3.13986170

>  <Name>
lig.pdb

>  <RI>
9.20816e+06

>  <Rbt.Current_Directory>
/home/itssahil/PROJECTS/Mol_Feturizer/New_Systems/rnas/2n0j

>  <Rbt.Executable>
rbdock ($Id: //depot/dev/client3/rdock/2013.1/src/exe/rbdock.cxx#4 $)

>  <Rbt.Library>
libRbt.so (2013.1, Build901 2013/11/27)

>  <Rbt.Parameter_File>
/export/apps/rDock/src/rDock_2013.1_src/data/scripts/dock_solv.prm

>  <Rbt.Receptor>
prm/blind_docking_100.prm

>  <SCORE>
-38.1288

>  <SCORE.INTER>
-51.9344

>  <SCORE.INTER.CONST>
1

>  <SCORE.INTER.POLAR>
-6.7509

>  <SCORE.INTER.ROT>
6

>  <SCORE.INTER.SOLV>
24.899

>  <SCORE.INTER.VDW>
-28.0196

>  <SCORE.INTER.norm>
-1.6753

>  <SCORE.INTRA>
13.0208

>  <SCORE.INTRA.DIHEDRAL>
2.89638

>  <SCORE.INTRA.DIHEDRAL.0>
28.0161

>  <SCORE.INTRA.POLAR>
1.05798

>  <SCORE.INTRA.POLAR.0>
-1.05798

>  <SCORE.INTRA.REPUL>
0

>  <SCORE.INTRA.REPUL.0>
0

>  <SCORE.INTRA.SOLV>
1.06018

>  <SCORE.INTRA.SOLV.lig_0>
-42.5945

>  <SCORE.INTRA.VDW>
7.44533

>  <SCORE.INTRA.VDW.0>
-5.13869

>  <SCORE.INTRA.norm>
0.420024

>  <SCORE.RESTR>
0.784866

>  <SCORE.RESTR.CAVITY>
0.784866

>  <SCORE.RESTR.norm>
0.0253183

>  <SCORE.SYSTEM>
0

>  <SCORE.SYSTEM.CONST>
0

>  <SCORE.SYSTEM.DIHEDRAL>
0

>  <SCORE.SYSTEM.SOLV>
0

>  <SCORE.SYSTEM.norm>
0

>  <SCORE.heavy>
31

>  <SCORE.norm>
-1.22996

>  <RMSD>
5.777

$$$$
lig.pdb
 OpenBabel11021811453D
libRbt.so/2013.1/901 2013/11/27
 31 33  0  0  0  0  0  0  0  0999 V2000
    2.6955    5.7036    2.6356 O   0  0  0  0  0  0  0  0  0  0  0  0
    1.4668    6.2086    2.1503 C   0  0  0  0  0  0  0  0  0  0  0  0
    0.3931    5.1134    2.0941 C   0  0  1  0  0  0  0  0  0  0  0  0
    0.6535    4.1717    1.0654 O   0  0  0  0  0  0  0  0  0  0  0  0
    0.0575    2.9217    1.3988 C   0  0  1  0  0  0  0  0  0  0  0  0
    0.9969    1.8715    1.2025 O   0  0  0  0  0  0  0  0  0  0  0  0
    0.4831    0.6088    0.8094 C   0  0  2  0  0  0  0  0  0  0  0  0
   -0.7768    0.8587   -0.0347 C   0  0  1  0  0  0  0  0  0  0  0  0
   -0.4122    1.4364   -1.2784 O   0  0  0  0  0  0  0  0  0  0  0  0
   -1.5879   -0.4097   -0.3402 C   0  0  2  0  0  0  0  0  0  0  0  0
   -2.8255   -0.0833   -1.0653 N   0  0  0  0  0  0  0  0  0  0  0  0
   -1.9354   -1.1235    0.9609 C   0  0  0  0  0  0  0  0  0  0  0  0
   -0.6592   -1.4267    1.7365 C   0  0  2  0  0  0  0  0  0  0  0  0
   -1.0186   -2.1605    2.9546 N   0  0  0  0  0  0  0  0  0  0  0  0
    0.0982   -0.1200    2.0568 C   0  0  1  0  0  0  0  0  0  0  0  0
    1.2619   -0.5224    2.7953 O   0  0  0  0  0  0  0  0  0  0  0  0
    1.7852    0.4061    3.7391 C   0  0  1  0  0  0  0  0  0  0  0  0
    1.0785    0.3211    4.9736 O   0  0  0  0  0  0  0  0  0  0  0  0
    1.2681   -0.8743    5.7275 C   0  0  2  0  0  0  0  0  0  0  0  0
    0.4379   -0.7869    7.0150 C   0  0  0  0  0  0  0  0  0  0  0  0
   -0.9897   -0.7392    6.7328 N   0  0  0  0  0  0  0  0  0  0  0  0
    2.7548   -1.0715    6.0776 C   0  0  1  0  0  0  0  0  0  0  0  0
    2.9251   -2.2929    6.7744 O   0  0  0  0  0  0  0  0  0  0  0  0
    3.5687   -1.0943    4.7777 C   0  0  2  0  0  0  0  0  0  0  0  0
    4.9503   -1.1864    5.0701 O   0  0  0  0  0  0  0  0  0  0  0  0
    3.2848    0.1587    3.9384 C   0  0  1  0  0  0  0  0  0  0  0  0
    3.9704    0.0640    2.6417 N   0  0  0  0  0  0  0  0  0  0  0  0
   -0.3281    2.9949    2.8834 C   0  0  2  0  0  0  0  0  0  0  0  0
   -1.7359    3.0677    3.0109 O   0  0  0  0  0  0  0  0  0  0  0  0
    0.3857    4.2596    3.3581 C   0  0  2  0  0  0  0  0  0  0  0  0
   -0.2378    4.8838    4.4630 O   0  0  0  0  0  0  0  0  0  0  0  0
  2  1  1  0  0  0  0
  3  2  1  1  0  0  0
  3 30  1  0  0  0  0
  4  5  1  0  0  0  0
  4  3  1  0  0  0  0
  5 28  1  0  0  0  0
  5  6  1  1  0  0  0
  7  6  1  1  0  0  0
  8  7  1  0  0  0  0
  8  9  1  6  0  0  0
 10 11  1  1  0  0  0
 10  8  1  0  0  0  0
 12 10  1  0  0  0  0
 13 12  1  0  0  0  0
 13 15  1  0  0  0  0
 13 14  1  1  0  0  0
 15  7  1  0  0  0  0
 15 16  1  6  0  0  0
 17 16  1  6  0  0  0
 18 17  1  0  0  0  0
 19 20  1  1  0  0  0
 19 18  1  0  0  0  0
 20 21  1  0  0  0  0
 22 24  1  0  0  0  0
 22 19  1  0  0  0  0
 22 23  1  6  0  0  0
 24 25  1  1  0  0  0
 24 26  1  0  0  0  0
 26 17  1  0  0  0  0
 26 27  1  6  0  0  0
 28 29  1  6  0  0  0
 28 30  1  0  0  0  0
 30 31  1  1  0  0  0
M  END
>  <CHROM.1>
66.42831125,-70.84100951,-148.39186764,31.30086717,52.35563371,-90.23300857
41.95791169,88.45814988,83.05779037,64.38552389,70.66602807,-56.75074357
70.06206854,44.66553652,-54.13250910,177.35862498,0.71156750,1.00271086,2.92961032
-2.23570126,0.89897203,2.87153427

>  <Name>
lig.pdb

>  <RI>
0

>  <Rbt.Current_Directory>
/home/itssahil/PROJECTS/Mol_Feturizer/New_Systems/rnas/2n0j

>  <Rbt.Executable>
rbdock ($Id: //depot/dev/client3/rdock/2013.1/src/exe/rbdock.cxx#4 $)

>  <Rbt.Library>
libRbt.so (2013.1, Build901 2013/11/27)

>  <Rbt.Parameter_File>
/export/apps/rDock/src/rDock_2013.1_src/data/scripts/dock_solv.prm

>  <Rbt.Receptor>
prm/blind_docking_40.prm

>  <SCORE>
-36.1228

>  <SCORE.INTER>
-41.2204

>  <SCORE.INTER.CONST>
1

>  <SCORE.INTER.POLAR>
-5.50876

>  <SCORE.INTER.ROT>
6

>  <SCORE.INTER.SOLV>
24.4685

>  <SCORE.INTER.VDW>
-24.8739

>  <SCORE.INTER.norm>
-1.32969

>  <SCORE.INTRA>
3.03513

>  <SCORE.INTRA.DIHEDRAL>
-9.74932

>  <SCORE.INTRA.DIHEDRAL.0>
28.0161

>  <SCORE.INTRA.POLAR>
1.04441

>  <SCORE.INTRA.POLAR.0>
-1.05798

>  <SCORE.INTRA.REPUL>
0

>  <SCORE.INTRA.REPUL.0>
0

>  <SCORE.INTRA.SOLV>
0.35739

>  <SCORE.INTRA.SOLV.lig_0>
-42.5945

>  <SCORE.INTRA.VDW>
4.18011

>  <SCORE.INTRA.VDW.0>
-5.13869

>  <SCORE.INTRA.norm>
0.0979075

>  <SCORE.RESTR>
2.06243

>  <SCORE.RESTR.CAVITY>
2.06243

>  <SCORE.RESTR.norm>
0.0665299

>  <SCORE.SYSTEM>
0

>  <SCORE.SYSTEM.CONST>
0

>  <SCORE.SYSTEM.DIHEDRAL>
0

>  <SCORE.SYSTEM.SOLV>
0

>  <SCORE.SYSTEM.norm>
0

>  <SCORE.heavy>
31

>  <SCORE.norm>
-1.16525

>  <RMSD>
5.779

$$$$
lig.pdb
 OpenBabel11021811453D
libRbt.so/2013.1/901 2013/11/27
 31 33  0  0  0  0  0  0  0  0999 V2000
   -1.4180   -1.2255    5.0516 O   0  0  0  0  0  0  0  0  0  0  0  0
   -0.7530   -1.2068    6.2996 C   0  0  0  0  0  0  0  0  0  0  0  0
   -1.0385    0.0906    7.0681 C   0  0  1  0  0  0  0  0  0  0  0  0
   -0.8174    1.2390    6.2649 O   0  0  0  0  0  0  0  0  0  0  0  0
   -1.6208    2.3158    6.7381 C   0  0  1  0  0  0  0  0  0  0  0  0
   -2.2937    2.9320    5.6466 O   0  0  0  0  0  0  0  0  0  0  0  0
   -1.7967    4.1850    5.2040 C   0  0  2  0  0  0  0  0  0  0  0  0
   -2.7075    5.2798    5.7820 C   0  0  1  0  0  0  0  0  0  0  0  0
   -2.5243    5.3618    7.1867 O   0  0  0  0  0  0  0  0  0  0  0  0
   -2.4481    6.6796    5.2048 C   0  0  2  0  0  0  0  0  0  0  0  0
   -3.4166    7.6550    5.7291 N   0  0  0  0  0  0  0  0  0  0  0  0
   -2.5457    6.6350    3.6844 C   0  0  0  0  0  0  0  0  0  0  0  0
   -1.5743    5.5958    3.1382 C   0  0  2  0  0  0  0  0  0  0  0  0
   -1.6499    5.6131    1.6734 N   0  0  0  0  0  0  0  0  0  0  0  0
   -1.9010    4.2004    3.7126 C   0  0  1  0  0  0  0  0  0  0  0  0
   -0.9429    3.3087    3.1224 O   0  0  0  0  0  0  0  0  0  0  0  0
   -0.9777    1.9486    3.5413 C   0  0  1  0  0  0  0  0  0  0  0  0
   -2.2663    1.3846    3.3133 O   0  0  0  0  0  0  0  0  0  0  0  0
   -2.6390    1.1943    1.9501 C   0  0  2  0  0  0  0  0  0  0  0  0
   -4.0448    0.5812    1.9002 C   0  0  0  0  0  0  0  0  0  0  0  0
   -4.9663    1.2743    2.7892 N   0  0  0  0  0  0  0  0  0  0  0  0
   -1.6397    0.2676    1.2330 C   0  0  1  0  0  0  0  0  0  0  0  0
   -1.9978    0.1413   -0.1317 O   0  0  0  0  0  0  0  0  0  0  0  0
   -0.2350    0.8722    1.3502 C   0  0  2  0  0  0  0  0  0  0  0  0
    0.7200   -0.0005    0.7763 O   0  0  0  0  0  0  0  0  0  0  0  0
    0.1140    1.1516    2.8183 C   0  0  1  0  0  0  0  0  0  0  0  0
    1.4063    1.8464    2.9068 N   0  0  0  0  0  0  0  0  0  0  0  0
   -2.6521    1.7111    7.7018 C   0  0  2  0  0  0  0  0  0  0  0  0
   -2.3465    2.0889    9.0312 O   0  0  0  0  0  0  0  0  0  0  0  0
   -2.5093    0.2101    7.4546 C   0  0  2  0  0  0  0  0  0  0  0  0
   -2.8726   -0.5863    8.5649 O   0  0  0  0  0  0  0  0  0  0  0  0
  2  1  1  0  0  0  0
  3  2  1  6  0  0  0
  3 30  1  0  0  0  0
  4  5  1  0  0  0  0
  4  3  1  0  0  0  0
  5 28  1  0  0  0  0
  5  6  1  6  0  0  0
  7  6  1  1  0  0  0
  8  7  1  0  0  0  0
  8  9  1  1  0  0  0
 10 11  1  1  0  0  0
 10  8  1  0  0  0  0
 12 10  1  0  0  0  0
 13 12  1  0  0  0  0
 13 15  1  0  0  0  0
 13 14  1  6  0  0  0
 15  7  1  0  0  0  0
 15 16  1  6  0  0  0
 17 16  1  6  0  0  0
 18 17  1  0  0  0  0
 19 20  1  1  0  0  0
 19 18  1  0  0  0  0
 20 21  1  0  0  0  0
 22 24  1  0  0  0  0
 22 19  1  0  0  0  0
 22 23  1  6  0  0  0
 24 25  1  1  0  0  0
 24 26  1  0  0  0  0
 26 17  1  0  0  0  0
 26 27  1  6  0  0  0
 28 29  1  1  0  0  0
 28 30  1  0  0  0  0
 30 31  1  1  0  0  0
M  END
>  <CHROM.1>
-173.64981801,-50.32905442,-104.65075607,-100.98258131,65.64674744,45.86194550
-34.09429665,56.01684901,57.04448396,46.81454623,77.65634330,-59.07534356
165.29923727,71.39274236,-50.92845714,52.31659282,-1.81925346,2.33264213
4.40788051,-0.02435889,-1.34791899,2.32314149

>  <Name>
lig.pdb

>  <RI>
3.50357e+07

>  <Rbt.Current_Directory>
/home/itssahil/PROJECTS/Mol_Feturizer/New_Systems/rnas/2n0j

>  <Rbt.Executable>
rbdock ($Id: //depot/dev/client3/rdock/2013.1/src/exe/rbdock.cxx#4 $)

>  <Rbt.Library>
libRbt.so (2013.1, Build901 2013/11/27)

>  <Rbt.Parameter_File>
/export/apps/rDock/src/rDock_2013.1_src/data/scripts/dock_solv.prm

>  <Rbt.Receptor>
prm/pocket_docking_3.prm

>  <SCORE>
-30.9294

>  <SCORE.INTER>
-32.2206

>  <SCORE.INTER.CONST>
1

>  <SCORE.INTER.POLAR>
-3.73382

>  <SCORE.INTER.ROT>
6

>  <SCORE.INTER.SOLV>
15.3504

>  <SCORE.INTER.VDW>
-21.7511

>  <SCORE.INTER.norm>
-1.03937

>  <SCORE.INTRA>
0.551429

>  <SCORE.INTRA.DIHEDRAL>
-10.0113

>  <SCORE.INTRA.DIHEDRAL.0>
28.0161

>  <SCORE.INTRA.POLAR>
0.825386

>  <SCORE.INTRA.POLAR.0>
-1.05798

>  <SCORE.INTRA.REPUL>
0

>  <SCORE.INTRA.REPUL.0>
0

>  <SCORE.INTRA.SOLV>
0.830239

>  <SCORE.INTRA.SOLV.lig_0>
-42.5945

>  <SCORE.INTRA.VDW>
2.33563

>  <SCORE.INTRA.VDW.0>
-5.13869

>  <SCORE.INTRA.norm>
0.017788

>  <SCORE.RESTR>
0.739747

>  <SCORE.RESTR.CAVITY>
0.739747

>  <SCORE.RESTR.norm>
0.0238628

>  <SCORE.SYSTEM>
0

>  <SCORE.SYSTEM.CONST>
0

>  <SCORE.SYSTEM.DIHEDRAL>
0

>  <SCORE.SYSTEM.SOLV>
0

>  <SCORE.SYSTEM.norm>
0

>  <SCORE.heavy>
31

>  <SCORE.norm>
-0.997722

>  <RMSD>
5.787

$$$$
lig.pdb
 OpenBabel11021811453D
libRbt.so/2013.1/901 2013/11/27
 31 33  0  0  0  0  0  0  0  0999 V2000
    3.3074    5.2896    2.5521 O   0  0  0  0  0  0  0  0  0  0  0  0
    2.0578    5.7572    3.0210 C   0  0  0  0  0  0  0  0  0  0  0  0
    0.9081    5.2836    2.1214 C   0  0  1  0  0  0  0  0  0  0  0  0
    1.0833    3.9384    1.7058 O   0  0  0  0  0  0  0  0  0  0  0  0
   -0.1852    3.3564    1.4211 C   0  0  1  0  0  0  0  0  0  0  0  0
   -0.2834    2.0829    2.0475 O   0  0  0  0  0  0  0  0  0  0  0  0
   -0.3895    0.9508    1.1990 C   0  0  2  0  0  0  0  0  0  0  0  0
   -1.8360    0.8867    0.6834 C   0  0  1  0  0  0  0  0  0  0  0  0
   -2.0715    1.9598   -0.2146 O   0  0  0  0  0  0  0  0  0  0  0  0
   -2.1795   -0.4139   -0.0585 C   0  0  2  0  0  0  0  0  0  0  0  0
   -3.6007   -0.4467   -0.4367 N   0  0  0  0  0  0  0  0  0  0  0  0
   -1.8631   -1.6114    0.8298 C   0  0  0  0  0  0  0  0  0  0  0  0
   -0.4020   -1.5599    1.2592 C   0  0  2  0  0  0  0  0  0  0  0  0
   -0.1122   -2.7503    2.0658 N   0  0  0  0  0  0  0  0  0  0  0  0
   -0.1159   -0.2570    2.0366 C   0  0  1  0  0  0  0  0  0  0  0  0
    1.2711   -0.3247    2.4013 O   0  0  0  0  0  0  0  0  0  0  0  0
    1.7314    0.6022    3.3789 C   0  0  1  0  0  0  0  0  0  0  0  0
    0.8674    0.6089    4.5121 O   0  0  0  0  0  0  0  0  0  0  0  0
    0.8752   -0.5677    5.3178 C   0  0  2  0  0  0  0  0  0  0  0  0
   -0.1059   -0.3791    6.4824 C   0  0  0  0  0  0  0  0  0  0  0  0
   -0.4589   -1.6494    7.1001 N   0  0  0  0  0  0  0  0  0  0  0  0
    2.2872   -0.8478    5.8650 C   0  0  1  0  0  0  0  0  0  0  0  0
    2.2814   -2.0512    6.6123 O   0  0  0  0  0  0  0  0  0  0  0  0
    3.2582   -0.9714    4.6842 C   0  0  2  0  0  0  0  0  0  0  0  0
    4.5810   -1.1421    5.1576 O   0  0  0  0  0  0  0  0  0  0  0  0
    3.1721    0.2656    3.7799 C   0  0  1  0  0  0  0  0  0  0  0  0
    4.0108    0.0788    2.5874 N   0  0  0  0  0  0  0  0  0  0  0  0
   -1.2479    4.2990    2.0047 C   0  0  2  0  0  0  0  0  0  0  0  0
   -1.9365    4.9544    0.9559 O   0  0  0  0  0  0  0  0  0  0  0  0
   -0.4212    5.2499    2.8688 C   0  0  2  0  0  0  0  0  0  0  0  0
   -1.0118    6.5235    3.0377 O   0  0  0  0  0  0  0  0  0  0  0  0
  2  1  1  0  0  0  0
  3  2  1  1  0  0  0
  3 30  1  0  0  0  0
  4  5  1  0  0  0  0
  4  3  1  0  0  0  0
  5 28  1  0  0  0  0
  5  6  1  1  0  0  0
  7  6  1  1  0  0  0
  8  7  1  0  0  0  0
  8  9  1  6  0  0  0
 10 11  1  1  0  0  0
 10  8  1  0  0  0  0
 12 10  1  0  0  0  0
 13 12  1  0  0  0  0
 13 15  1  0  0  0  0
 13 14  1  1  0  0  0
 15  7  1  0  0  0  0
 15 16  1  6  0  0  0
 17 16  1  6  0  0  0
 18 17  1  0  0  0  0
 19 20  1  1  0  0  0
 19 18  1  0  0  0  0
 20 21  1  0  0  0  0
 22 24  1  0  0  0  0
 22 19  1  0  0  0  0
 22 23  1  6  0  0  0
 24 25  1  1  0  0  0
 24 26  1  0  0  0  0
 26 17  1  0  0  0  0
 26 27  1  6  0  0  0
 28 29  1  6  0  0  0
 28 30  1  0  0  0  0
 30 31  1  6  0  0  0
M  END
>  <CHROM.1>
179.92717441,40.63981324,-115.27117547,-77.45217552,-171.99889870,-172.46437627
142.62596080,72.85864946,49.11338207,162.52827188,-172.41036763,170.94532837
81.24974144,-78.88044250,-177.25373544,173.54172529,0.44260876,1.19175254
2.82148664,-2.08786096,0.73078719,2.94176073

>  <Name>
lig.pdb

>  <RI>
1.55206e+07

>  <Rbt.Current_Directory>
/home/itssahil/PROJECTS/Mol_Feturizer/New_Systems/rnas/2n0j

>  <Rbt.Executable>
rbdock ($Id: //depot/dev/client3/rdock/2013.1/src/exe/rbdock.cxx#4 $)

>  <Rbt.Library>
libRbt.so (2013.1, Build901 2013/11/27)

>  <Rbt.Parameter_File>
/export/apps/rDock/src/rDock_2013.1_src/data/scripts/dock_solv.prm

>  <Rbt.Receptor>
prm/blind_docking_80.prm

>  <SCORE>
-35.1644

>  <SCORE.INTER>
-36.2353

>  <SCORE.INTER.CONST>
1

>  <SCORE.INTER.POLAR>
-5.88026

>  <SCORE.INTER.ROT>
6

>  <SCORE.INTER.SOLV>
25.0506

>  <SCORE.INTER.VDW>
-20.5062

>  <SCORE.INTER.norm>
-1.16888

>  <SCORE.INTRA>
0.0835921

>  <SCORE.INTRA.DIHEDRAL>
-9.10227

>  <SCORE.INTRA.DIHEDRAL.0>
28.0161

>  <SCORE.INTRA.POLAR>
0.634193

>  <SCORE.INTRA.POLAR.0>
-1.05798

>  <SCORE.INTRA.REPUL>
0

>  <SCORE.INTRA.REPUL.0>
0

>  <SCORE.INTRA.SOLV>
0.381802

>  <SCORE.INTRA.SOLV.lig_0>
-42.5945

>  <SCORE.INTRA.VDW>
2.28757

>  <SCORE.INTRA.VDW.0>
-5.13869

>  <SCORE.INTRA.norm>
0.00269652

>  <SCORE.RESTR>
0.987246

>  <SCORE.RESTR.CAVITY>
0.987246

>  <SCORE.RESTR.norm>
0.0318466

>  <SCORE.SYSTEM>
0

>  <SCORE.SYSTEM.CONST>
0

>  <SCORE.SYSTEM.DIHEDRAL>
0

>  <SCORE.SYSTEM.SOLV>
0

>  <SCORE.SYSTEM.norm>
0

>  <SCORE.heavy>
31

>  <SCORE.norm>
-1.13434

>  <RMSD>
5.788

$$$$
lig.pdb
 OpenBabel11021811453D
libRbt.so/2013.1/901 2013/11/27
 31 33  0  0  0  0  0  0  0  0999 V2000
    0.5003    1.9350    9.2356 O   0  0  0  0  0  0  0  0  0  0  0  0
   -0.3868    1.0286    8.6097 C   0  0  0  0  0  0  0  0  0  0  0  0
   -1.7672    1.6600    8.3838 C   0  0  1  0  0  0  0  0  0  0  0  0
   -1.7167    2.7127    7.4339 O   0  0  0  0  0  0  0  0  0  0  0  0
   -2.9901    2.8582    6.8126 C   0  0  1  0  0  0  0  0  0  0  0  0
   -2.8319    2.9408    5.4012 O   0  0  0  0  0  0  0  0  0  0  0  0
   -2.0795    4.0328    4.8971 C   0  0  2  0  0  0  0  0  0  0  0  0
   -2.7841    5.3272    5.3333 C   0  0  1  0  0  0  0  0  0  0  0  0
   -2.6534    5.4931    6.7365 O   0  0  0  0  0  0  0  0  0  0  0  0
   -2.2294    6.5967    4.6694 C   0  0  2  0  0  0  0  0  0  0  0  0
   -3.0114    7.7807    5.0577 N   0  0  0  0  0  0  0  0  0  0  0  0
   -2.2635    6.4410    3.1536 C   0  0  0  0  0  0  0  0  0  0  0  0
   -1.4900    5.1922    2.7486 C   0  0  2  0  0  0  0  0  0  0  0  0
   -1.4930    5.0976    1.2848 N   0  0  0  0  0  0  0  0  0  0  0  0
   -2.1096    3.9397    3.4052 C   0  0  1  0  0  0  0  0  0  0  0  0
   -1.3184    2.8338    2.9443 O   0  0  0  0  0  0  0  0  0  0  0  0
   -1.8401    1.5271    3.1612 C   0  0  1  0  0  0  0  0  0  0  0  0
   -3.2322    1.4846    2.8596 O   0  0  0  0  0  0  0  0  0  0  0  0
   -3.5840    1.6260    1.4850 C   0  0  2  0  0  0  0  0  0  0  0  0
   -5.1111    1.5543    1.3529 C   0  0  0  0  0  0  0  0  0  0  0  0
   -5.7573    2.7216    1.9357 N   0  0  0  0  0  0  0  0  0  0  0  0
   -2.9341    0.5175    0.6362 C   0  0  1  0  0  0  0  0  0  0  0  0
   -3.2501    0.7133   -0.7307 O   0  0  0  0  0  0  0  0  0  0  0  0
   -1.4141    0.5725    0.8336 C   0  0  2  0  0  0  0  0  0  0  0  0
   -0.7937   -0.4903    0.1345 O   0  0  0  0  0  0  0  0  0  0  0  0
   -1.0585    0.5075    2.3250 C   0  0  1  0  0  0  0  0  0  0  0  0
    0.3886    0.6892    2.5076 N   0  0  0  0  0  0  0  0  0  0  0  0
   -3.8029    1.6041    7.1656 C   0  0  2  0  0  0  0  0  0  0  0  0
   -4.8310    1.9395    8.0789 O   0  0  0  0  0  0  0  0  0  0  0  0
   -2.7488    0.6722    7.7614 C   0  0  2  0  0  0  0  0  0  0  0  0
   -3.2730   -0.2653    8.6808 O   0  0  0  0  0  0  0  0  0  0  0  0
  2  1  1  0  0  0  0
  3  2  1  6  0  0  0
  3 30  1  0  0  0  0
  4  5  1  0  0  0  0
  4  3  1  0  0  0  0
  5 28  1  0  0  0  0
  5  6  1  6  0  0  0
  7  6  1  1  0  0  0
  8  7  1  0  0  0  0
  8  9  1  1  0  0  0
 10 11  1  6  0  0  0
 10  8  1  0  0  0  0
 12 10  1  0  0  0  0
 13 12  1  0  0  0  0
 13 15  1  0  0  0  0
 13 14  1  6  0  0  0
 15  7  1  0  0  0  0
 15 16  1  1  0  0  0
 17 16  1  6  0  0  0
 18 17  1  0  0  0  0
 19 20  1  1  0  0  0
 19 18  1  0  0  0  0
 20 21  1  0  0  0  0
 22 24  1  0  0  0  0
 22 19  1  0  0  0  0
 22 23  1  6  0  0  0
 24 25  1  6  0  0  0
 24 26  1  0  0  0  0
 26 17  1  0  0  0  0
 26 27  1  6  0  0  0
 28 29  1  1  0  0  0
 28 30  1  0  0  0  0
 30 31  1  1  0  0  0
M  END
>  <CHROM.1>
61.68674288,67.01065697,-61.81772519,-60.10860101,59.86425026,-162.51101512
173.58579275,72.47117809,43.03854321,68.88822567,57.17019660,59.28648915
55.80020195,71.14349401,-55.68264425,-58.76696356,-2.38046912,2.62132736
4.33887376,-1.25755887,1.45060625,-2.00195527

>  <Name>
lig.pdb

>  <RI>
2.74555e+07

>  <Rbt.Current_Directory>
/home/itssahil/PROJECTS/Mol_Feturizer/New_Systems/rnas/2n0j

>  <Rbt.Executable>
rbdock ($Id: //depot/dev/client3/rdock/2013.1/src/exe/rbdock.cxx#4 $)

>  <Rbt.Library>
libRbt.so (2013.1, Build901 2013/11/27)

>  <Rbt.Parameter_File>
/export/apps/rDock/src/rDock_2013.1_src/data/scripts/dock_solv.prm

>  <Rbt.Receptor>
prm/pocket_docking_6.prm

>  <SCORE>
-40.834

>  <SCORE.INTER>
-35.3354

>  <SCORE.INTER.CONST>
1

>  <SCORE.INTER.POLAR>
-4.30931

>  <SCORE.INTER.ROT>
6

>  <SCORE.INTER.SOLV>
16.352

>  <SCORE.INTER.VDW>
-22.2433

>  <SCORE.INTER.norm>
-1.13985

>  <SCORE.INTRA>
-5.49851

>  <SCORE.INTRA.DIHEDRAL>
-23.7202

>  <SCORE.INTRA.DIHEDRAL.0>
28.0161

>  <SCORE.INTRA.POLAR>
0.998329

>  <SCORE.INTRA.POLAR.0>
-1.05798

>  <SCORE.INTRA.REPUL>
0

>  <SCORE.INTRA.REPUL.0>
0

>  <SCORE.INTRA.SOLV>
-0.859422

>  <SCORE.INTRA.SOLV.lig_0>
-42.5945

>  <SCORE.INTRA.VDW>
3.39696

>  <SCORE.INTRA.VDW.0>
-5.13869

>  <SCORE.INTRA.norm>
-0.177371

>  <SCORE.RESTR>
0

>  <SCORE.RESTR.CAVITY>
0

>  <SCORE.RESTR.norm>
0

>  <SCORE.SYSTEM>
0

>  <SCORE.SYSTEM.CONST>
0

>  <SCORE.SYSTEM.DIHEDRAL>
0

>  <SCORE.SYSTEM.SOLV>
0

>  <SCORE.SYSTEM.norm>
0

>  <SCORE.heavy>
31

>  <SCORE.norm>
-1.31722

>  <RMSD>
5.788

$$$$
lig.pdb
 OpenBabel11021811453D
libRbt.so/2013.1/901 2013/11/27
 31 33  0  0  0  0  0  0  0  0999 V2000
   -2.0034    6.2808    2.4378 O   0  0  0  0  0  0  0  0  0  0  0  0
   -1.9944    4.9578    1.9381 C   0  0  0  0  0  0  0  0  0  0  0  0
   -0.7474    4.1919    2.4003 C   0  0  1  0  0  0  0  0  0  0  0  0
   -0.7787    2.8348    1.9876 O   0  0  0  0  0  0  0  0  0  0  0  0
    0.5514    2.3368    1.8795 C   0  0  1  0  0  0  0  0  0  0  0  0
    0.7109    1.6512    0.6432 O   0  0  0  0  0  0  0  0  0  0  0  0
    0.1683    0.3434    0.5537 C   0  0  2  0  0  0  0  0  0  0  0  0
   -1.2234    0.4575   -0.0885 C   0  0  1  0  0  0  0  0  0  0  0  0
   -1.0917    0.8234   -1.4531 O   0  0  0  0  0  0  0  0  0  0  0  0
   -2.0437   -0.8405   -0.0404 C   0  0  2  0  0  0  0  0  0  0  0  0
   -3.3950   -0.6318   -0.5832 N   0  0  0  0  0  0  0  0  0  0  0  0
   -2.1454   -1.3315    1.3989 C   0  0  0  0  0  0  0  0  0  0  0  0
   -0.7482   -1.5093    1.9803 C   0  0  2  0  0  0  0  0  0  0  0  0
   -0.8754   -2.0335    3.3444 N   0  0  0  0  0  0  0  0  0  0  0  0
    0.0209   -0.1710    1.9498 C   0  0  1  0  0  0  0  0  0  0  0  0
    1.3035   -0.4523    2.5307 O   0  0  0  0  0  0  0  0  0  0  0  0
    1.8139    0.4919    3.4659 C   0  0  1  0  0  0  0  0  0  0  0  0
    1.0370    0.4875    4.6604 O   0  0  0  0  0  0  0  0  0  0  0  0
    1.1320   -0.6827    5.4699 C   0  0  2  0  0  0  0  0  0  0  0  0
    0.2364   -0.5076    6.7036 C   0  0  0  0  0  0  0  0  0  0  0  0
   -0.4780   -1.7339    7.0286 N   0  0  0  0  0  0  0  0  0  0  0  0
    2.5870   -0.9268    5.9116 C   0  0  1  0  0  0  0  0  0  0  0  0
    2.6647   -2.1245    6.6641 O   0  0  0  0  0  0  0  0  0  0  0  0
    3.4697   -1.0372    4.6622 C   0  0  2  0  0  0  0  0  0  0  0  0
    4.8277   -1.1745    5.0364 O   0  0  0  0  0  0  0  0  0  0  0  0
    3.2879    0.1908    3.7600 C   0  0  1  0  0  0  0  0  0  0  0  0
    4.0394    0.0142    2.5092 N   0  0  0  0  0  0  0  0  0  0  0  0
    1.4865    3.5543    1.9159 C   0  0  2  0  0  0  0  0  0  0  0  0
    2.1911    3.5821    3.1432 O   0  0  0  0  0  0  0  0  0  0  0  0
    0.5230    4.7281    1.7480 C   0  0  2  0  0  0  0  0  0  0  0  0
    0.9908    5.9340    2.3191 O   0  0  0  0  0  0  0  0  0  0  0  0
  2  1  1  0  0  0  0
  3  2  1  6  0  0  0
  3 30  1  0  0  0  0
  4  5  1  0  0  0  0
  4  3  1  0  0  0  0
  5 28  1  0  0  0  0
  5  6  1  6  0  0  0
  7  6  1  1  0  0  0
  8  7  1  0  0  0  0
  8  9  1  6  0  0  0
 10 11  1  1  0  0  0
 10  8  1  0  0  0  0
 12 10  1  0  0  0  0
 13 12  1  0  0  0  0
 13 15  1  0  0  0  0
 13 14  1  1  0  0  0
 15  7  1  0  0  0  0
 15 16  1  6  0  0  0
 17 16  1  6  0  0  0
 18 17  1  0  0  0  0
 19 20  1  1  0  0  0
 19 18  1  0  0  0  0
 20 21  1  0  0  0  0
 22 24  1  0  0  0  0
 22 19  1  0  0  0  0
 22 23  1  6  0  0  0
 24 25  1  1  0  0  0
 24 26  1  0  0  0  0
 26 17  1  0  0  0  0
 26 27  1  6  0  0  0
 28 29  1  1  0  0  0
 28 30  1  0  0  0  0
 30 31  1  1  0  0  0
M  END
>  <CHROM.1>
-58.93229068,175.59114380,-77.24792193,95.88554356,-48.77068316,-55.29265553
151.01169363,103.00197819,68.26438379,139.19604234,89.11595310,-62.03569010
76.99536323,165.11868328,69.84251543,66.74304988,0.50681954,0.89557338,2.79597769
-2.30654345,0.80529590,2.95139683

>  <Name>
lig.pdb

>  <RI>
0

>  <Rbt.Current_Directory>
/home/itssahil/PROJECTS/Mol_Feturizer/New_Systems/rnas/2n0j

>  <Rbt.Executable>
rbdock ($Id: //depot/dev/client3/rdock/2013.1/src/exe/rbdock.cxx#4 $)

>  <Rbt.Library>
libRbt.so (2013.1, Build901 2013/11/27)

>  <Rbt.Parameter_File>
/export/apps/rDock/src/rDock_2013.1_src/data/scripts/dock_solv.prm

>  <Rbt.Receptor>
prm/blind_docking_40.prm

>  <SCORE>
-39.1109

>  <SCORE.INTER>
-47.8595

>  <SCORE.INTER.CONST>
1

>  <SCORE.INTER.POLAR>
-5.54363

>  <SCORE.INTER.ROT>
6

>  <SCORE.INTER.SOLV>
24.1043

>  <SCORE.INTER.VDW>
-29.0623

>  <SCORE.INTER.norm>
-1.54385

>  <SCORE.INTRA>
7.95311

>  <SCORE.INTRA.DIHEDRAL>
-4.66286

>  <SCORE.INTRA.DIHEDRAL.0>
28.0161

>  <SCORE.INTRA.POLAR>
1.00809

>  <SCORE.INTRA.POLAR.0>
-1.05798

>  <SCORE.INTRA.REPUL>
0

>  <SCORE.INTRA.REPUL.0>
0

>  <SCORE.INTRA.SOLV>
1.27804

>  <SCORE.INTRA.SOLV.lig_0>
-42.5945

>  <SCORE.INTRA.VDW>
6.21801

>  <SCORE.INTRA.VDW.0>
-5.13869

>  <SCORE.INTRA.norm>
0.256552

>  <SCORE.RESTR>
0.795449

>  <SCORE.RESTR.CAVITY>
0.795449

>  <SCORE.RESTR.norm>
0.0256596

>  <SCORE.SYSTEM>
0

>  <SCORE.SYSTEM.CONST>
0

>  <SCORE.SYSTEM.DIHEDRAL>
0

>  <SCORE.SYSTEM.SOLV>
0

>  <SCORE.SYSTEM.norm>
0

>  <SCORE.heavy>
31

>  <SCORE.norm>
-1.26164

>  <RMSD>
5.791

$$$$
lig.pdb
 OpenBabel11021811453D
libRbt.so/2013.1/901 2013/11/27
 31 33  0  0  0  0  0  0  0  0999 V2000
    3.2035    5.5027    2.6498 O   0  0  0  0  0  0  0  0  0  0  0  0
    2.7383    4.1977    2.3657 C   0  0  0  0  0  0  0  0  0  0  0  0
    1.3417    4.2259    1.7302 C   0  0  1  0  0  0  0  0  0  0  0  0
    0.9180    2.9323    1.3300 O   0  0  0  0  0  0  0  0  0  0  0  0
   -0.5052    2.8754    1.3238 C   0  0  1  0  0  0  0  0  0  0  0  0
   -0.9443    1.7014    1.9966 O   0  0  0  0  0  0  0  0  0  0  0  0
   -0.9074    0.4852    1.2669 C   0  0  2  0  0  0  0  0  0  0  0  0
   -2.1333    0.4586    0.3402 C   0  0  1  0  0  0  0  0  0  0  0  0
   -1.9801    1.4292   -0.6834 O   0  0  0  0  0  0  0  0  0  0  0  0
   -2.3707   -0.8954   -0.3457 C   0  0  2  0  0  0  0  0  0  0  0  0
   -3.6104   -0.8762   -1.1375 N   0  0  0  0  0  0  0  0  0  0  0  0
   -2.4570   -1.9959    0.7052 C   0  0  0  0  0  0  0  0  0  0  0  0
   -1.1928   -1.9932    1.5560 C   0  0  2  0  0  0  0  0  0  0  0  0
   -1.2792   -3.0947    2.5207 N   0  0  0  0  0  0  0  0  0  0  0  0
   -1.0203   -0.6288    2.2576 C   0  0  1  0  0  0  0  0  0  0  0  0
    0.1807   -0.7467    3.0356 O   0  0  0  0  0  0  0  0  0  0  0  0
    0.5151    0.3468    3.8835 C   0  0  1  0  0  0  0  0  0  0  0  0
   -0.0036    0.1435    5.1952 O   0  0  0  0  0  0  0  0  0  0  0  0
    0.5967   -0.9031    5.9552 C   0  0  2  0  0  0  0  0  0  0  0  0
   -0.0831   -0.9725    7.3291 C   0  0  0  0  0  0  0  0  0  0  0  0
   -0.7224    0.2883    7.6777 N   0  0  0  0  0  0  0  0  0  0  0  0
    2.1064   -0.6556    6.1318 C   0  0  1  0  0  0  0  0  0  0  0  0
    2.6896   -1.7360    6.8383 O   0  0  0  0  0  0  0  0  0  0  0  0
    2.7510   -0.5296    4.7458 C   0  0  2  0  0  0  0  0  0  0  0  0
    4.1247   -0.2143    4.8747 O   0  0  0  0  0  0  0  0  0  0  0  0
    2.0354    0.5406    3.9105 C   0  0  1  0  0  0  0  0  0  0  0  0
    2.5786    0.5621    2.5449 N   0  0  0  0  0  0  0  0  0  0  0  0
   -1.0031    4.1165    2.0789 C   0  0  2  0  0  0  0  0  0  0  0  0
   -1.5910    5.0281    1.1695 O   0  0  0  0  0  0  0  0  0  0  0  0
    0.2711    4.6525    2.7296 C   0  0  2  0  0  0  0  0  0  0  0  0
    0.2427    6.0449    2.9736 O   0  0  0  0  0  0  0  0  0  0  0  0
  2  1  1  0  0  0  0
  3  2  1  1  0  0  0
  3 30  1  0  0  0  0
  4  5  1  0  0  0  0
  4  3  1  0  0  0  0
  5 28  1  0  0  0  0
  5  6  1  1  0  0  0
  7  6  1  1  0  0  0
  8  7  1  0  0  0  0
  8  9  1  6  0  0  0
 10 11  1  1  0  0  0
 10  8  1  0  0  0  0
 12 10  1  0  0  0  0
 13 12  1  0  0  0  0
 13 15  1  0  0  0  0
 13 14  1  1  0  0  0
 15  7  1  0  0  0  0
 15 16  1  6  0  0  0
 17 16  1  6  0  0  0
 18 17  1  0  0  0  0
 19 20  1  1  0  0  0
 19 18  1  0  0  0  0
 20 21  1  0  0  0  0
 22 24  1  0  0  0  0
 22 19  1  0  0  0  0
 22 23  1  6  0  0  0
 24 25  1  1  0  0  0
 24 26  1  0  0  0  0
 26 17  1  0  0  0  0
 26 27  1  6  0  0  0
 28 29  1  6  0  0  0
 28 30  1  0  0  0  0
 30 31  1  6  0  0  0
M  END
>  <CHROM.1>
52.60696889,174.62757718,-80.07558918,-78.88442375,-174.34741472,65.86391140
-179.87429714,64.46888224,93.09313757,-22.42917887,43.29899260,69.76461269
65.90230108,57.74364522,-64.95939037,68.08387684,0.15690591,1.00100552,2.87555297
-2.20756530,0.85408355,2.67419055

>  <Name>
lig.pdb

>  <RI>
0

>  <Rbt.Current_Directory>
/home/itssahil/PROJECTS/Mol_Feturizer/New_Systems/rnas/2n0j

>  <Rbt.Executable>
rbdock ($Id: //depot/dev/client3/rdock/2013.1/src/exe/rbdock.cxx#4 $)

>  <Rbt.Library>
libRbt.so (2013.1, Build901 2013/11/27)

>  <Rbt.Parameter_File>
/export/apps/rDock/src/rDock_2013.1_src/data/scripts/dock_solv.prm

>  <Rbt.Receptor>
prm/blind_docking_60.prm

>  <SCORE>
-25.2005

>  <SCORE.INTER>
-21.6928

>  <SCORE.INTER.CONST>
1

>  <SCORE.INTER.POLAR>
-2.40332

>  <SCORE.INTER.ROT>
6

>  <SCORE.INTER.SOLV>
21.2038

>  <SCORE.INTER.VDW>
-21.1187

>  <SCORE.INTER.norm>
-0.699766

>  <SCORE.INTRA>
-5.88441

>  <SCORE.INTRA.DIHEDRAL>
-13.9682

>  <SCORE.INTRA.DIHEDRAL.0>
28.0161

>  <SCORE.INTRA.POLAR>
-0.256948

>  <SCORE.INTRA.POLAR.0>
-1.05798

>  <SCORE.INTRA.REPUL>
0

>  <SCORE.INTRA.REPUL.0>
0

>  <SCORE.INTRA.SOLV>
0.480782

>  <SCORE.INTRA.SOLV.lig_0>
-42.5945

>  <SCORE.INTRA.VDW>
1.73293

>  <SCORE.INTRA.VDW.0>
-5.13869

>  <SCORE.INTRA.norm>
-0.18982

>  <SCORE.RESTR>
2.37667

>  <SCORE.RESTR.CAVITY>
2.37667

>  <SCORE.RESTR.norm>
0.0766666

>  <SCORE.SYSTEM>
0

>  <SCORE.SYSTEM.CONST>
0

>  <SCORE.SYSTEM.DIHEDRAL>
0

>  <SCORE.SYSTEM.SOLV>
0

>  <SCORE.SYSTEM.norm>
0

>  <SCORE.heavy>
31

>  <SCORE.norm>
-0.812919

>  <RMSD>
5.804

$$$$
lig.pdb
 OpenBabel11021811453D
libRbt.so/2013.1/901 2013/11/27
 31 33  0  0  0  0  0  0  0  0999 V2000
    2.0438    6.6415    1.2244 O   0  0  0  0  0  0  0  0  0  0  0  0
    1.6429    6.0588    2.4491 C   0  0  0  0  0  0  0  0  0  0  0  0
    0.5309    5.0221    2.2398 C   0  0  1  0  0  0  0  0  0  0  0  0
    0.8275    4.1390    1.1697 O   0  0  0  0  0  0  0  0  0  0  0  0
    0.1555    2.8996    1.3718 C   0  0  1  0  0  0  0  0  0  0  0  0
    1.0613    1.8211    1.1714 O   0  0  0  0  0  0  0  0  0  0  0  0
    0.5055    0.5693    0.8013 C   0  0  2  0  0  0  0  0  0  0  0  0
   -0.7435    0.8458   -0.0507 C   0  0  1  0  0  0  0  0  0  0  0  0
   -0.3570    1.3867   -1.3043 O   0  0  0  0  0  0  0  0  0  0  0  0
   -1.5968   -0.3999   -0.3339 C   0  0  2  0  0  0  0  0  0  0  0  0
   -2.8212   -0.0455   -1.0683 N   0  0  0  0  0  0  0  0  0  0  0  0
   -1.9710   -1.0762    0.9797 C   0  0  0  0  0  0  0  0  0  0  0  0
   -0.7075   -1.4078    1.7642 C   0  0  2  0  0  0  0  0  0  0  0  0
   -1.0941   -2.1054    2.9953 N   0  0  0  0  0  0  0  0  0  0  0  0
    0.0936   -0.1218    2.0614 C   0  0  1  0  0  0  0  0  0  0  0  0
    1.2414   -0.5494    2.8106 O   0  0  0  0  0  0  0  0  0  0  0  0
    1.8125    0.3892    3.7157 C   0  0  1  0  0  0  0  0  0  0  0  0
    1.0972    0.3993    4.9481 O   0  0  0  0  0  0  0  0  0  0  0  0
    1.2158   -0.7702    5.7554 C   0  0  2  0  0  0  0  0  0  0  0  0
    0.3865   -0.5789    7.0323 C   0  0  0  0  0  0  0  0  0  0  0  0
   -0.9818   -1.0456    6.8605 N   0  0  0  0  0  0  0  0  0  0  0  0
    2.6875   -1.0350    6.1236 C   0  0  1  0  0  0  0  0  0  0  0  0
    2.7855   -2.2319    6.8749 O   0  0  0  0  0  0  0  0  0  0  0  0
    3.5040   -1.1615    4.8314 C   0  0  2  0  0  0  0  0  0  0  0  0
    4.8771   -1.3182    5.1367 O   0  0  0  0  0  0  0  0  0  0  0  0
    3.2949    0.0669    3.9357 C   0  0  1  0  0  0  0  0  0  0  0  0
    3.9793   -0.1239    2.6490 N   0  0  0  0  0  0  0  0  0  0  0  0
   -0.3372    2.8928    2.8262 C   0  0  2  0  0  0  0  0  0  0  0  0
   -1.7462    3.0240    2.8566 O   0  0  0  0  0  0  0  0  0  0  0  0
    0.3920    4.0881    3.4378 C   0  0  2  0  0  0  0  0  0  0  0  0
   -0.2857    4.6669    4.5354 O   0  0  0  0  0  0  0  0  0  0  0  0
  2  1  1  0  0  0  0
  3  2  1  1  0  0  0
  3 30  1  0  0  0  0
  4  5  1  0  0  0  0
  4  3  1  0  0  0  0
  5 28  1  0  0  0  0
  5  6  1  1  0  0  0
  7  6  1  1  0  0  0
  8  7  1  0  0  0  0
  8  9  1  6  0  0  0
 10 11  1  1  0  0  0
 10  8  1  0  0  0  0
 12 10  1  0  0  0  0
 13 12  1  0  0  0  0
 13 15  1  0  0  0  0
 13 14  1  1  0  0  0
 15  7  1  0  0  0  0
 15 16  1  6  0  0  0
 17 16  1  6  0  0  0
 18 17  1  0  0  0  0
 19 20  1  1  0  0  0
 19 18  1  0  0  0  0
 20 21  1  0  0  0  0
 22 24  1  0  0  0  0
 22 19  1  0  0  0  0
 22 23  1  6  0  0  0
 24 25  1  1  0  0  0
 24 26  1  0  0  0  0
 26 17  1  0  0  0  0
 26 27  1  6  0  0  0
 28 29  1  6  0  0  0
 28 30  1  0  0  0  0
 30 31  1  1  0  0  0
M  END
>  <CHROM.1>
-62.62467291,46.76205344,-155.35089630,32.54978625,50.76960132,151.32034492
164.09847081,87.08143663,82.18314359,89.88263281,175.56369113,-61.35510250
176.10350050,39.74766616,60.48043464,-176.50100699,0.69135933,0.99542080
2.90362534,-2.13413420,0.90899146,2.80888165

>  <Name>
lig.pdb

>  <RI>
9.20816e+06

>  <Rbt.Current_Directory>
/home/itssahil/PROJECTS/Mol_Feturizer/New_Systems/rnas/2n0j

>  <Rbt.Executable>
rbdock ($Id: //depot/dev/client3/rdock/2013.1/src/exe/rbdock.cxx#4 $)

>  <Rbt.Library>
libRbt.so (2013.1, Build901 2013/11/27)

>  <Rbt.Parameter_File>
/export/apps/rDock/src/rDock_2013.1_src/data/scripts/dock_solv.prm

>  <Rbt.Receptor>
prm/blind_docking_100.prm

>  <SCORE>
-34.8642

>  <SCORE.INTER>
-38.8187

>  <SCORE.INTER.CONST>
1

>  <SCORE.INTER.POLAR>
-4.79728

>  <SCORE.INTER.ROT>
6

>  <SCORE.INTER.SOLV>
23.9846

>  <SCORE.INTER.VDW>
-25.483

>  <SCORE.INTER.norm>
-1.25222

>  <SCORE.INTRA>
2.01947

>  <SCORE.INTRA.DIHEDRAL>
-9.74485

>  <SCORE.INTRA.DIHEDRAL.0>
28.0161

>  <SCORE.INTRA.POLAR>
1.04321

>  <SCORE.INTRA.POLAR.0>
-1.05798

>  <SCORE.INTRA.REPUL>
0

>  <SCORE.INTRA.REPUL.0>
0

>  <SCORE.INTRA.SOLV>
-0.481304

>  <SCORE.INTRA.SOLV.lig_0>
-42.5945

>  <SCORE.INTRA.VDW>
3.58562

>  <SCORE.INTRA.VDW.0>
-5.13869

>  <SCORE.INTRA.norm>
0.0651443

>  <SCORE.RESTR>
1.93496

>  <SCORE.RESTR.CAVITY>
1.93496

>  <SCORE.RESTR.norm>
0.0624181

>  <SCORE.SYSTEM>
0

>  <SCORE.SYSTEM.CONST>
0

>  <SCORE.SYSTEM.DIHEDRAL>
0

>  <SCORE.SYSTEM.SOLV>
0

>  <SCORE.SYSTEM.norm>
0

>  <SCORE.heavy>
31

>  <SCORE.norm>
-1.12465

>  <RMSD>
5.813

$$$$
lig.pdb
 OpenBabel11021811453D
libRbt.so/2013.1/901 2013/11/27
 31 33  0  0  0  0  0  0  0  0999 V2000
   -2.3279    6.1455    2.7165 O   0  0  0  0  0  0  0  0  0  0  0  0
   -2.1058    4.9218    2.0432 C   0  0  0  0  0  0  0  0  0  0  0  0
   -0.8123    4.2465    2.5188 C   0  0  1  0  0  0  0  0  0  0  0  0
   -0.7217    2.9041    2.0687 O   0  0  0  0  0  0  0  0  0  0  0  0
    0.6470    2.5191    1.9838 C   0  0  1  0  0  0  0  0  0  0  0  0
    0.8936    1.8854    0.7343 O   0  0  0  0  0  0  0  0  0  0  0  0
    0.3303    0.5979    0.5392 C   0  0  2  0  0  0  0  0  0  0  0  0
   -1.0212    0.7813   -0.1694 C   0  0  1  0  0  0  0  0  0  0  0  0
   -0.8068    1.2215   -1.5012 O   0  0  0  0  0  0  0  0  0  0  0  0
   -1.8691   -0.4977   -0.2417 C   0  0  2  0  0  0  0  0  0  0  0  0
   -3.1838   -0.2265   -0.8435 N   0  0  0  0  0  0  0  0  0  0  0  0
   -2.0602   -1.0678    1.1589 C   0  0  0  0  0  0  0  0  0  0  0  0
   -0.7011   -1.3114    1.8035 C   0  0  2  0  0  0  0  0  0  0  0  0
   -0.9142   -1.9097    3.1257 N   0  0  0  0  0  0  0  0  0  0  0  0
    0.0955    0.0081    1.8929 C   0  0  1  0  0  0  0  0  0  0  0  0
    1.3380   -0.3361    2.5248 O   0  0  0  0  0  0  0  0  0  0  0  0
    1.8034    0.5282    3.5558 C   0  0  1  0  0  0  0  0  0  0  0  0
    0.8999    0.5293    4.6577 O   0  0  0  0  0  0  0  0  0  0  0  0
    0.8254   -0.6779    5.4130 C   0  0  2  0  0  0  0  0  0  0  0  0
   -0.1881   -0.4912    6.5499 C   0  0  0  0  0  0  0  0  0  0  0  0
   -0.6011   -1.7665    7.1179 N   0  0  0  0  0  0  0  0  0  0  0  0
    2.2025   -1.0451    5.9966 C   0  0  1  0  0  0  0  0  0  0  0  0
    2.1154   -2.2760    6.6920 O   0  0  0  0  0  0  0  0  0  0  0  0
    3.2094   -1.1658    4.8459 C   0  0  2  0  0  0  0  0  0  0  0  0
    4.5050   -1.4166    5.3572 O   0  0  0  0  0  0  0  0  0  0  0  0
    3.2120    0.1093    3.9919 C   0  0  1  0  0  0  0  0  0  0  0  0
    4.0845   -0.0680    2.8224 N   0  0  0  0  0  0  0  0  0  0  0  0
    1.4779    3.8070    2.0792 C   0  0  2  0  0  0  0  0  0  0  0  0
    2.1465    3.8559    3.3258 O   0  0  0  0  0  0  0  0  0  0  0  0
    0.4260    4.9031    1.9167 C   0  0  2  0  0  0  0  0  0  0  0  0
    0.7787    6.1257    2.5332 O   0  0  0  0  0  0  0  0  0  0  0  0
  2  1  1  0  0  0  0
  3  2  1  6  0  0  0
  3 30  1  0  0  0  0
  4  5  1  0  0  0  0
  4  3  1  0  0  0  0
  5 28  1  0  0  0  0
  5  6  1  6  0  0  0
  7  6  1  1  0  0  0
  8  7  1  0  0  0  0
  8  9  1  6  0  0  0
 10 11  1  1  0  0  0
 10  8  1  0  0  0  0
 12 10  1  0  0  0  0
 13 12  1  0  0  0  0
 13 15  1  0  0  0  0
 13 14  1  1  0  0  0
 15  7  1  0  0  0  0
 15 16  1  6  0  0  0
 17 16  1  6  0  0  0
 18 17  1  0  0  0  0
 19 20  1  1  0  0  0
 19 18  1  0  0  0  0
 20 21  1  0  0  0  0
 22 24  1  0  0  0  0
 22 19  1  0  0  0  0
 22 23  1  6  0  0  0
 24 25  1  1  0  0  0
 24 26  1  0  0  0  0
 26 17  1  0  0  0  0
 26 27  1  6  0  0  0
 28 29  1  1  0  0  0
 28 30  1  0  0  0  0
 30 31  1  1  0  0  0
M  END
>  <CHROM.1>
173.16397234,167.58405127,-70.25121229,94.10127663,29.90197684,-179.16790203
-89.49285020,104.05949474,63.64185576,163.60322004,66.31123503,-173.29064544
153.33325472,35.12607633,-49.26492972,-49.03285450,0.44321355,0.99621804
2.83566408,-2.31461087,0.89195097,3.02748511

>  <Name>
lig.pdb

>  <RI>
0

>  <Rbt.Current_Directory>
/home/itssahil/PROJECTS/Mol_Feturizer/New_Systems/rnas/2n0j

>  <Rbt.Executable>
rbdock ($Id: //depot/dev/client3/rdock/2013.1/src/exe/rbdock.cxx#4 $)

>  <Rbt.Library>
libRbt.so (2013.1, Build901 2013/11/27)

>  <Rbt.Parameter_File>
/export/apps/rDock/src/rDock_2013.1_src/data/scripts/dock_solv.prm

>  <Rbt.Receptor>
prm/blind_docking_40.prm

>  <SCORE>
-37.8774

>  <SCORE.INTER>
-44.7191

>  <SCORE.INTER.CONST>
1

>  <SCORE.INTER.POLAR>
-5.54257

>  <SCORE.INTER.ROT>
6

>  <SCORE.INTER.SOLV>
24.4259

>  <SCORE.INTER.VDW>
-27.0795

>  <SCORE.INTER.norm>
-1.44255

>  <SCORE.INTRA>
6.14129

>  <SCORE.INTRA.DIHEDRAL>
-4.03452

>  <SCORE.INTRA.DIHEDRAL.0>
28.0161

>  <SCORE.INTRA.POLAR>
0.430916

>  <SCORE.INTRA.POLAR.0>
-1.05798

>  <SCORE.INTRA.REPUL>
0

>  <SCORE.INTRA.REPUL.0>
0

>  <SCORE.INTRA.SOLV>
1.26892

>  <SCORE.INTRA.SOLV.lig_0>
-42.5945

>  <SCORE.INTRA.VDW>
6.05897

>  <SCORE.INTRA.VDW.0>
-5.13869

>  <SCORE.INTRA.norm>
0.198106

>  <SCORE.RESTR>
0.700411

>  <SCORE.RESTR.CAVITY>
0.700411

>  <SCORE.RESTR.norm>
0.0225939

>  <SCORE.SYSTEM>
0

>  <SCORE.SYSTEM.CONST>
0

>  <SCORE.SYSTEM.DIHEDRAL>
0

>  <SCORE.SYSTEM.SOLV>
0

>  <SCORE.SYSTEM.norm>
0

>  <SCORE.heavy>
31

>  <SCORE.norm>
-1.22185

>  <RMSD>
5.813

$$$$
lig.pdb
 OpenBabel11021811453D
libRbt.so/2013.1/901 2013/11/27
 31 33  0  0  0  0  0  0  0  0999 V2000
    1.5847    6.9831    1.4588 O   0  0  0  0  0  0  0  0  0  0  0  0
    1.4726    6.0755    2.5376 C   0  0  0  0  0  0  0  0  0  0  0  0
    0.3805    5.0288    2.2791 C   0  0  1  0  0  0  0  0  0  0  0  0
    0.7251    4.1593    1.2121 O   0  0  0  0  0  0  0  0  0  0  0  0
    0.0603    2.9107    1.3786 C   0  0  1  0  0  0  0  0  0  0  0  0
    0.9849    1.8442    1.2007 O   0  0  0  0  0  0  0  0  0  0  0  0
    0.4576    0.5918    0.7930 C   0  0  2  0  0  0  0  0  0  0  0  0
   -0.7845    0.8658   -0.0697 C   0  0  1  0  0  0  0  0  0  0  0  0
   -0.3909    1.4437   -1.3045 O   0  0  0  0  0  0  0  0  0  0  0  0
   -1.6106   -0.3880   -0.3947 C   0  0  2  0  0  0  0  0  0  0  0  0
   -2.8311   -0.0384   -1.1377 N   0  0  0  0  0  0  0  0  0  0  0  0
   -1.9902   -1.1025    0.8970 C   0  0  0  0  0  0  0  0  0  0  0  0
   -0.7316   -1.4298    1.6912 C   0  0  2  0  0  0  0  0  0  0  0  0
   -1.1221   -2.1638    2.8997 N   0  0  0  0  0  0  0  0  0  0  0  0
    0.0412   -0.1369    2.0304 C   0  0  1  0  0  0  0  0  0  0  0  0
    1.1864   -0.5614    2.7853 O   0  0  0  0  0  0  0  0  0  0  0  0
    1.6928    0.3434    3.7607 C   0  0  1  0  0  0  0  0  0  0  0  0
    0.8698    0.3417    4.9241 O   0  0  0  0  0  0  0  0  0  0  0  0
    0.8912   -0.8482    5.7097 C   0  0  2  0  0  0  0  0  0  0  0  0
   -0.0455   -0.6671    6.9116 C   0  0  0  0  0  0  0  0  0  0  0  0
   -0.7404   -1.9027    7.2434 N   0  0  0  0  0  0  0  0  0  0  0  0
    2.3181   -1.1544    6.2016 C   0  0  1  0  0  0  0  0  0  0  0  0
    2.3236   -2.3699    6.9289 O   0  0  0  0  0  0  0  0  0  0  0  0
    3.2449   -1.2701    4.9849 C   0  0  2  0  0  0  0  0  0  0  0  0
    4.5814   -1.4647    5.4080 O   0  0  0  0  0  0  0  0  0  0  0  0
    3.1424   -0.0173    4.1046 C   0  0  1  0  0  0  0  0  0  0  0  0
    3.9359   -0.1943    2.8800 N   0  0  0  0  0  0  0  0  0  0  0  0
   -0.4838    2.8845    2.8144 C   0  0  2  0  0  0  0  0  0  0  0  0
   -1.8944    2.9999    2.7955 O   0  0  0  0  0  0  0  0  0  0  0  0
    0.2096    4.0817    3.4626 C   0  0  2  0  0  0  0  0  0  0  0  0
   -0.5133    4.6425    4.5406 O   0  0  0  0  0  0  0  0  0  0  0  0
  2  1  1  0  0  0  0
  3  2  1  1  0  0  0
  3 30  1  0  0  0  0
  4  5  1  0  0  0  0
  4  3  1  0  0  0  0
  5 28  1  0  0  0  0
  5  6  1  1  0  0  0
  7  6  1  1  0  0  0
  8  7  1  0  0  0  0
  8  9  1  6  0  0  0
 10 11  1  1  0  0  0
 10  8  1  0  0  0  0
 12 10  1  0  0  0  0
 13 12  1  0  0  0  0
 13 15  1  0  0  0  0
 13 14  1  1  0  0  0
 15  7  1  0  0  0  0
 15 16  1  6  0  0  0
 17 16  1  6  0  0  0
 18 17  1  0  0  0  0
 19 20  1  1  0  0  0
 19 18  1  0  0  0  0
 20 21  1  0  0  0  0
 22 24  1  0  0  0  0
 22 19  1  0  0  0  0
 22 23  1  6  0  0  0
 24 25  1  1  0  0  0
 24 26  1  0  0  0  0
 26 17  1  0  0  0  0
 26 27  1  6  0  0  0
 28 29  1  6  0  0  0
 28 30  1  0  0  0  0
 30 31  1  1  0  0  0
M  END
>  <CHROM.1>
-176.12276890,67.14864069,-155.04892109,30.88216147,50.24472555,149.91158821
170.60918647,89.67929593,76.65876907,143.51105670,90.72435359,171.54389945
157.59926203,-82.51712892,-176.83813753,-163.28604843,0.55135367,0.94798598
2.94825846,-2.08771669,0.96723497,2.83835100

>  <Name>
lig.pdb

>  <RI>
9.20816e+06

>  <Rbt.Current_Directory>
/home/itssahil/PROJECTS/Mol_Feturizer/New_Systems/rnas/2n0j

>  <Rbt.Executable>
rbdock ($Id: //depot/dev/client3/rdock/2013.1/src/exe/rbdock.cxx#4 $)

>  <Rbt.Library>
libRbt.so (2013.1, Build901 2013/11/27)

>  <Rbt.Parameter_File>
/export/apps/rDock/src/rDock_2013.1_src/data/scripts/dock_solv.prm

>  <Rbt.Receptor>
prm/blind_docking_100.prm

>  <SCORE>
-34.2603

>  <SCORE.INTER>
-41.6544

>  <SCORE.INTER.CONST>
1

>  <SCORE.INTER.POLAR>
-5.10691

>  <SCORE.INTER.ROT>
6

>  <SCORE.INTER.SOLV>
24.042

>  <SCORE.INTER.VDW>
-26.3606

>  <SCORE.INTER.norm>
-1.34369

>  <SCORE.INTRA>
5.15977

>  <SCORE.INTRA.DIHEDRAL>
-3.67454

>  <SCORE.INTRA.DIHEDRAL.0>
28.0161

>  <SCORE.INTRA.POLAR>
1.03404

>  <SCORE.INTRA.POLAR.0>
-1.05798

>  <SCORE.INTRA.REPUL>
0

>  <SCORE.INTRA.REPUL.0>
0

>  <SCORE.INTRA.SOLV>
0.155967

>  <SCORE.INTRA.SOLV.lig_0>
-42.5945

>  <SCORE.INTRA.VDW>
3.40331

>  <SCORE.INTRA.VDW.0>
-5.13869

>  <SCORE.INTRA.norm>
0.166444

>  <SCORE.RESTR>
2.23441

>  <SCORE.RESTR.CAVITY>
2.23441

>  <SCORE.RESTR.norm>
0.0720777

>  <SCORE.SYSTEM>
0

>  <SCORE.SYSTEM.CONST>
0

>  <SCORE.SYSTEM.DIHEDRAL>
0

>  <SCORE.SYSTEM.SOLV>
0

>  <SCORE.SYSTEM.norm>
0

>  <SCORE.heavy>
31

>  <SCORE.norm>
-1.10517

>  <RMSD>
5.824

$$$$
lig.pdb
 OpenBabel11021811453D
libRbt.so/2013.1/901 2013/11/27
 31 33  0  0  0  0  0  0  0  0999 V2000
    3.1909    5.9865    1.8064 O   0  0  0  0  0  0  0  0  0  0  0  0
    2.1881    5.6699    2.7521 C   0  0  0  0  0  0  0  0  0  0  0  0
    0.8875    5.2316    2.0654 C   0  0  1  0  0  0  0  0  0  0  0  0
    0.9701    3.9013    1.5791 O   0  0  0  0  0  0  0  0  0  0  0  0
   -0.3346    3.3336    1.5146 C   0  0  1  0  0  0  0  0  0  0  0  0
   -0.3274    2.0392    2.1048 O   0  0  0  0  0  0  0  0  0  0  0  0
   -0.4345    0.9280    1.2292 C   0  0  2  0  0  0  0  0  0  0  0  0
   -1.8718    0.8977    0.6857 C   0  0  1  0  0  0  0  0  0  0  0  0
   -2.0742    1.9940   -0.1921 O   0  0  0  0  0  0  0  0  0  0  0  0
   -2.2207   -0.3807   -0.0916 C   0  0  2  0  0  0  0  0  0  0  0  0
   -3.6349   -0.3832   -0.4966 N   0  0  0  0  0  0  0  0  0  0  0  0
   -1.9391   -1.6023    0.7752 C   0  0  0  0  0  0  0  0  0  0  0  0
   -0.4857   -1.5830    1.2326 C   0  0  2  0  0  0  0  0  0  0  0  0
   -0.2290   -2.7953    2.0174 N   0  0  0  0  0  0  0  0  0  0  0  0
   -0.1948   -0.3023    2.0443 C   0  0  1  0  0  0  0  0  0  0  0  0
    1.1839   -0.3994    2.4330 O   0  0  0  0  0  0  0  0  0  0  0  0
    1.6387    0.4959    3.4421 C   0  0  1  0  0  0  0  0  0  0  0  0
    0.7522    0.4889    4.5578 O   0  0  0  0  0  0  0  0  0  0  0  0
    0.7255   -0.7070    5.3342 C   0  0  2  0  0  0  0  0  0  0  0  0
   -0.2759   -0.5311    6.4835 C   0  0  0  0  0  0  0  0  0  0  0  0
   -0.6070   -1.8037    7.1085 N   0  0  0  0  0  0  0  0  0  0  0  0
    2.1216   -1.0229    5.9022 C   0  0  1  0  0  0  0  0  0  0  0  0
    2.0821   -2.2438    6.6193 O   0  0  0  0  0  0  0  0  0  0  0  0
    3.1142   -1.1331    4.7381 C   0  0  2  0  0  0  0  0  0  0  0  0
    4.4244   -1.3364    5.2333 O   0  0  0  0  0  0  0  0  0  0  0  0
    3.0656    0.1267    3.8632 C   0  0  1  0  0  0  0  0  0  0  0  0
    3.9253   -0.0444    2.6833 N   0  0  0  0  0  0  0  0  0  0  0  0
   -1.2621    4.2583    2.3163 C   0  0  2  0  0  0  0  0  0  0  0  0
   -2.1264    4.9521    1.4359 O   0  0  0  0  0  0  0  0  0  0  0  0
   -0.2810    5.1759    3.0442 C   0  0  2  0  0  0  0  0  0  0  0  0
   -0.8180    6.4445    3.3625 O   0  0  0  0  0  0  0  0  0  0  0  0
  2  1  1  0  0  0  0
  3  2  1  1  0  0  0
  3 30  1  0  0  0  0
  4  5  1  0  0  0  0
  4  3  1  0  0  0  0
  5 28  1  0  0  0  0
  5  6  1  1  0  0  0
  7  6  1  1  0  0  0
  8  7  1  0  0  0  0
  8  9  1  6  0  0  0
 10 11  1  1  0  0  0
 10  8  1  0  0  0  0
 12 10  1  0  0  0  0
 13 12  1  0  0  0  0
 13 15  1  0  0  0  0
 13 14  1  1  0  0  0
 15  7  1  0  0  0  0
 15 16  1  6  0  0  0
 17 16  1  6  0  0  0
 18 17  1  0  0  0  0
 19 20  1  1  0  0  0
 19 18  1  0  0  0  0
 20 21  1  0  0  0  0
 22 24  1  0  0  0  0
 22 19  1  0  0  0  0
 22 23  1  6  0  0  0
 24 25  1  1  0  0  0
 24 26  1  0  0  0  0
 26 17  1  0  0  0  0
 26 27  1  6  0  0  0
 28 29  1  6  0  0  0
 28 30  1  0  0  0  0
 30 31  1  6  0  0  0
M  END
>  <CHROM.1>
-64.63419863,76.85959150,-107.69773880,-71.26635937,80.93727609,68.53599757
-96.40837963,73.02037333,49.00711691,165.54126527,-54.92398434,-173.40594459
-67.09465065,-83.70386520,57.39158062,-67.62230529,0.37246696,1.14764232
2.83487321,-1.97446903,0.73622085,2.90239177

>  <Name>
lig.pdb

>  <RI>
1.55206e+07

>  <Rbt.Current_Directory>
/home/itssahil/PROJECTS/Mol_Feturizer/New_Systems/rnas/2n0j

>  <Rbt.Executable>
rbdock ($Id: //depot/dev/client3/rdock/2013.1/src/exe/rbdock.cxx#4 $)

>  <Rbt.Library>
libRbt.so (2013.1, Build901 2013/11/27)

>  <Rbt.Parameter_File>
/export/apps/rDock/src/rDock_2013.1_src/data/scripts/dock_solv.prm

>  <Rbt.Receptor>
prm/blind_docking_80.prm

>  <SCORE>
-37.4063

>  <SCORE.INTER>
-38.5272

>  <SCORE.INTER.CONST>
1

>  <SCORE.INTER.POLAR>
-5.54388

>  <SCORE.INTER.ROT>
6

>  <SCORE.INTER.SOLV>
23.3767

>  <SCORE.INTER.VDW>
-22.5974

>  <SCORE.INTER.norm>
-1.24281

>  <SCORE.INTRA>
-0.530309

>  <SCORE.INTRA.DIHEDRAL>
-10.8713

>  <SCORE.INTRA.DIHEDRAL.0>
28.0161

>  <SCORE.INTRA.POLAR>
0.599064

>  <SCORE.INTRA.POLAR.0>
-1.05798

>  <SCORE.INTRA.REPUL>
0

>  <SCORE.INTRA.REPUL.0>
0

>  <SCORE.INTRA.SOLV>
-0.067659

>  <SCORE.INTRA.SOLV.lig_0>
-42.5945

>  <SCORE.INTRA.VDW>
2.90235

>  <SCORE.INTRA.VDW.0>
-5.13869

>  <SCORE.INTRA.norm>
-0.0171067

>  <SCORE.RESTR>
1.65123

>  <SCORE.RESTR.CAVITY>
1.65123

>  <SCORE.RESTR.norm>
0.0532654

>  <SCORE.SYSTEM>
0

>  <SCORE.SYSTEM.CONST>
0

>  <SCORE.SYSTEM.DIHEDRAL>
0

>  <SCORE.SYSTEM.SOLV>
0

>  <SCORE.SYSTEM.norm>
0

>  <SCORE.heavy>
31

>  <SCORE.norm>
-1.20665

>  <RMSD>
5.825

$$$$
lig.pdb
 OpenBabel11021811453D
libRbt.so/2013.1/901 2013/11/27
 31 33  0  0  0  0  0  0  0  0999 V2000
    0.5966   -0.1901    6.0297 O   0  0  0  0  0  0  0  0  0  0  0  0
   -0.4305   -1.1593    5.9540 C   0  0  0  0  0  0  0  0  0  0  0  0
   -0.8796   -1.3887    4.5045 C   0  0  1  0  0  0  0  0  0  0  0  0
   -2.0814   -0.6950    4.2085 O   0  0  0  0  0  0  0  0  0  0  0  0
   -2.1448   -0.4220    2.8120 C   0  0  1  0  0  0  0  0  0  0  0  0
   -2.5020    0.9389    2.6019 O   0  0  0  0  0  0  0  0  0  0  0  0
   -3.8795    1.2673    2.6890 C   0  0  2  0  0  0  0  0  0  0  0  0
   -4.5177    0.9729    1.3222 C   0  0  1  0  0  0  0  0  0  0  0  0
   -4.5551   -0.4286    1.1039 O   0  0  0  0  0  0  0  0  0  0  0  0
   -5.9545    1.4967    1.1760 C   0  0  2  0  0  0  0  0  0  0  0  0
   -6.4648    1.2662   -0.1843 N   0  0  0  0  0  0  0  0  0  0  0  0
   -5.9919    2.9886    1.4858 C   0  0  0  0  0  0  0  0  0  0  0  0
   -5.4251    3.2378    2.8781 C   0  0  2  0  0  0  0  0  0  0  0  0
   -5.5238    4.6718    3.1705 N   0  0  0  0  0  0  0  0  0  0  0  0
   -3.9680    2.7344    2.9632 C   0  0  1  0  0  0  0  0  0  0  0  0
   -3.5364    3.0333    4.2996 O   0  0  0  0  0  0  0  0  0  0  0  0
   -2.1918    3.4708    4.4651 C   0  0  1  0  0  0  0  0  0  0  0  0
   -2.0879    4.8741    4.2398 O   0  0  0  0  0  0  0  0  0  0  0  0
   -2.7041    5.7159    5.2120 C   0  0  2  0  0  0  0  0  0  0  0  0
   -2.4902    7.1808    4.8081 C   0  0  0  0  0  0  0  0  0  0  0  0
   -3.5248    7.6440    3.8946 N   0  0  0  0  0  0  0  0  0  0  0  0
   -2.1071    5.4673    6.6096 C   0  0  1  0  0  0  0  0  0  0  0  0
   -2.7746    6.2714    7.5657 O   0  0  0  0  0  0  0  0  0  0  0  0
   -2.2795    3.9847    6.9629 C   0  0  2  0  0  0  0  0  0  0  0  0
   -1.6622    3.7055    8.2055 O   0  0  0  0  0  0  0  0  0  0  0  0
   -1.6882    3.0931    5.8627 C   0  0  1  0  0  0  0  0  0  0  0  0
   -1.9725    1.6800    6.1507 N   0  0  0  0  0  0  0  0  0  0  0  0
   -0.7409   -0.6778    2.2447 C   0  0  2  0  0  0  0  0  0  0  0  0
   -0.7501   -1.8492    1.4501 O   0  0  0  0  0  0  0  0  0  0  0  0
    0.1153   -0.8107    3.5031 C   0  0  2  0  0  0  0  0  0  0  0  0
    1.2700   -1.6067    3.3239 O   0  0  0  0  0  0  0  0  0  0  0  0
  2  1  1  0  0  0  0
  3  2  1  1  0  0  0
  3 30  1  0  0  0  0
  4  5  1  0  0  0  0
  4  3  1  0  0  0  0
  5 28  1  0  0  0  0
  5  6  1  1  0  0  0
  7  6  1  6  0  0  0
  8  7  1  0  0  0  0
  8  9  1  1  0  0  0
 10 11  1  6  0  0  0
 10  8  1  0  0  0  0
 12 10  1  0  0  0  0
 13 12  1  0  0  0  0
 13 15  1  0  0  0  0
 13 14  1  6  0  0  0
 15  7  1  0  0  0  0
 15 16  1  1  0  0  0
 17 16  1  1  0  0  0
 18 17  1  0  0  0  0
 19 20  1  6  0  0  0
 19 18  1  0  0  0  0
 20 21  1  0  0  0  0
 22 24  1  0  0  0  0
 22 19  1  0  0  0  0
 22 23  1  1  0  0  0
 24 25  1  1  0  0  0
 24 26  1  0  0  0  0
 26 17  1  0  0  0  0
 26 27  1  1  0  0  0
 28 29  1  1  0  0  0
 28 30  1  0  0  0  0
 30 31  1  6  0  0  0
M  END
>  <CHROM.1>
64.03249857,-100.35441304,-81.24817063,-84.14850380,-171.89702995,-157.15653900
52.69423692,97.19286809,84.39825623,86.56793417,166.68421745,-67.90313398
65.43055133,-78.29665078,-175.49100284,-62.08620065,-2.66167212,2.14940068
3.92884115,-1.26626832,-0.72937646,0.58165210

>  <Name>
lig.pdb

>  <RI>
0

>  <Rbt.Current_Directory>
/home/itssahil/PROJECTS/Mol_Feturizer/New_Systems/rnas/2n0j

>  <Rbt.Executable>
rbdock ($Id: //depot/dev/client3/rdock/2013.1/src/exe/rbdock.cxx#4 $)

>  <Rbt.Library>
libRbt.so (2013.1, Build901 2013/11/27)

>  <Rbt.Parameter_File>
/export/apps/rDock/src/rDock_2013.1_src/data/scripts/dock_solv.prm

>  <Rbt.Receptor>
prm/pocket_docking_5.prm

>  <SCORE>
-38.836

>  <SCORE.INTER>
-38.1704

>  <SCORE.INTER.CONST>
1

>  <SCORE.INTER.POLAR>
-4.7446

>  <SCORE.INTER.ROT>
6

>  <SCORE.INTER.SOLV>
18.7849

>  <SCORE.INTER.VDW>
-23.4932

>  <SCORE.INTER.norm>
-1.2313

>  <SCORE.INTRA>
-1.41538

>  <SCORE.INTRA.DIHEDRAL>
-6.17872

>  <SCORE.INTRA.DIHEDRAL.0>
28.0161

>  <SCORE.INTRA.POLAR>
0.136044

>  <SCORE.INTRA.POLAR.0>
-1.05798

>  <SCORE.INTRA.REPUL>
0

>  <SCORE.INTRA.REPUL.0>
0

>  <SCORE.INTRA.SOLV>
1.68713

>  <SCORE.INTRA.SOLV.lig_0>
-42.5945

>  <SCORE.INTRA.VDW>
0.367872

>  <SCORE.INTRA.VDW.0>
-5.13869

>  <SCORE.INTRA.norm>
-0.0456573

>  <SCORE.RESTR>
0.749772

>  <SCORE.RESTR.CAVITY>
0.749772

>  <SCORE.RESTR.norm>
0.0241862

>  <SCORE.SYSTEM>
0

>  <SCORE.SYSTEM.CONST>
0

>  <SCORE.SYSTEM.DIHEDRAL>
0

>  <SCORE.SYSTEM.SOLV>
0

>  <SCORE.SYSTEM.norm>
0

>  <SCORE.heavy>
31

>  <SCORE.norm>
-1.25277

>  <RMSD>
5.832

$$$$
lig.pdb
 OpenBabel11021811453D
libRbt.so/2013.1/901 2013/11/27
 31 33  0  0  0  0  0  0  0  0999 V2000
   -1.4228   -0.6868    1.2473 O   0  0  0  0  0  0  0  0  0  0  0  0
   -0.7163   -1.8394    1.6628 C   0  0  0  0  0  0  0  0  0  0  0  0
    0.2425   -1.5234    2.8187 C   0  0  1  0  0  0  0  0  0  0  0  0
    1.0692   -0.4075    2.5284 O   0  0  0  0  0  0  0  0  0  0  0  0
    1.4750    0.2163    3.7429 C   0  0  1  0  0  0  0  0  0  0  0  0
    1.2810    1.6226    3.6515 O   0  0  0  0  0  0  0  0  0  0  0  0
    1.7810    2.2710    2.4929 C   0  0  2  0  0  0  0  0  0  0  0  0
    3.3144    2.2935    2.5947 C   0  0  1  0  0  0  0  0  0  0  0  0
    3.8228    0.9771    2.4467 O   0  0  0  0  0  0  0  0  0  0  0  0
    3.9997    3.1699    1.5352 C   0  0  2  0  0  0  0  0  0  0  0  0
    5.4537    3.2215    1.7525 N   0  0  0  0  0  0  0  0  0  0  0  0
    3.4284    4.5819    1.5882 C   0  0  0  0  0  0  0  0  0  0  0  0
    1.9165    4.5309    1.4056 C   0  0  2  0  0  0  0  0  0  0  0  0
    1.4014    5.9043    1.4060 N   0  0  0  0  0  0  0  0  0  0  0  0
    1.2696    3.6757    2.5164 C   0  0  1  0  0  0  0  0  0  0  0  0
   -0.1418    3.7120    2.2556 O   0  0  0  0  0  0  0  0  0  0  0  0
   -0.9889    3.0232    3.1691 C   0  0  1  0  0  0  0  0  0  0  0  0
   -1.1097    3.7496    4.3891 O   0  0  0  0  0  0  0  0  0  0  0  0
   -1.8286    4.9793    4.3220 C   0  0  2  0  0  0  0  0  0  0  0  0
   -1.8572    5.6151    5.7183 C   0  0  0  0  0  0  0  0  0  0  0  0
   -1.9497    4.6087    6.7663 N   0  0  0  0  0  0  0  0  0  0  0  0
   -3.2675    4.7464    3.8251 C   0  0  1  0  0  0  0  0  0  0  0  0
   -3.9417    5.9870    3.7112 O   0  0  0  0  0  0  0  0  0  0  0  0
   -3.2110    4.0556    2.4568 C   0  0  2  0  0  0  0  0  0  0  0  0
   -4.5190    3.7485    2.0122 O   0  0  0  0  0  0  0  0  0  0  0  0
   -2.3601    2.7805    2.5283 C   0  0  1  0  0  0  0  0  0  0  0  0
   -2.2086    2.1987    1.1870 N   0  0  0  0  0  0  0  0  0  0  0  0
    0.5829   -0.3539    4.8553 C   0  0  2  0  0  0  0  0  0  0  0  0
    1.3431   -1.2072    5.6905 O   0  0  0  0  0  0  0  0  0  0  0  0
   -0.5058   -1.0888    4.0749 C   0  0  2  0  0  0  0  0  0  0  0  0
   -1.0917   -2.1601    4.7878 O   0  0  0  0  0  0  0  0  0  0  0  0
  2  1  1  0  0  0  0
  3  2  1  6  0  0  0
  3 30  1  0  0  0  0
  4  5  1  0  0  0  0
  4  3  1  0  0  0  0
  5 28  1  0  0  0  0
  5  6  1  6  0  0  0
  7  6  1  1  0  0  0
  8  7  1  0  0  0  0
  8  9  1  6  0  0  0
 10 11  1  1  0  0  0
 10  8  1  0  0  0  0
 12 10  1  0  0  0  0
 13 12  1  0  0  0  0
 13 15  1  0  0  0  0
 13 14  1  1  0  0  0
 15  7  1  0  0  0  0
 15 16  1  6  0  0  0
 17 16  1  6  0  0  0
 18 17  1  0  0  0  0
 19 20  1  1  0  0  0
 19 18  1  0  0  0  0
 20 21  1  0  0  0  0
 22 24  1  0  0  0  0
 22 19  1  0  0  0  0
 22 23  1  6  0  0  0
 24 25  1  1  0  0  0
 24 26  1  0  0  0  0
 26 17  1  0  0  0  0
 26 27  1  6  0  0  0
 28 29  1  1  0  0  0
 28 30  1  0  0  0  0
 30 31  1  1  0  0  0
M  END
>  <CHROM.1>
66.69896458,-50.80632934,-48.87528537,-71.81245731,55.62853242,41.75302587
-172.68715153,60.93229383,74.64998682,-35.27505273,72.90323990,75.32055896
171.13862330,-144.20715271,-44.34370783,48.89676212,0.02353627,2.32579131
3.06729226,0.70168058,-0.25522949,3.02551287

>  <Name>
lig.pdb

>  <RI>
0

>  <Rbt.Current_Directory>
/home/itssahil/PROJECTS/Mol_Feturizer/New_Systems/rnas/2n0j

>  <Rbt.Executable>
rbdock ($Id: //depot/dev/client3/rdock/2013.1/src/exe/rbdock.cxx#4 $)

>  <Rbt.Library>
libRbt.so (2013.1, Build901 2013/11/27)

>  <Rbt.Parameter_File>
/export/apps/rDock/src/rDock_2013.1_src/data/scripts/dock_solv.prm

>  <Rbt.Receptor>
prm/pocket_docking_8.prm

>  <SCORE>
-49.9081

>  <SCORE.INTER>
-45.6157

>  <SCORE.INTER.CONST>
1

>  <SCORE.INTER.POLAR>
-6.30256

>  <SCORE.INTER.ROT>
6

>  <SCORE.INTER.SOLV>
18.2

>  <SCORE.INTER.VDW>
-23.0686

>  <SCORE.INTER.norm>
-1.47147

>  <SCORE.INTRA>
-4.29239

>  <SCORE.INTRA.DIHEDRAL>
-16.0699

>  <SCORE.INTRA.DIHEDRAL.0>
28.0161

>  <SCORE.INTRA.POLAR>
-0.109881

>  <SCORE.INTRA.POLAR.0>
-1.05798

>  <SCORE.INTRA.REPUL>
0

>  <SCORE.INTRA.REPUL.0>
0

>  <SCORE.INTRA.SOLV>
0.893515

>  <SCORE.INTRA.SOLV.lig_0>
-42.5945

>  <SCORE.INTRA.VDW>
3.66941

>  <SCORE.INTRA.VDW.0>
-5.13869

>  <SCORE.INTRA.norm>
-0.138464

>  <SCORE.RESTR>
0

>  <SCORE.RESTR.CAVITY>
0

>  <SCORE.RESTR.norm>
0

>  <SCORE.SYSTEM>
0

>  <SCORE.SYSTEM.CONST>
0

>  <SCORE.SYSTEM.DIHEDRAL>
0

>  <SCORE.SYSTEM.SOLV>
0

>  <SCORE.SYSTEM.norm>
0

>  <SCORE.heavy>
31

>  <SCORE.norm>
-1.60994

>  <RMSD>
5.832

$$$$
lig.pdb
 OpenBabel11021811453D
libRbt.so/2013.1/901 2013/11/27
 31 33  0  0  0  0  0  0  0  0999 V2000
    1.9001   -0.6624    5.4718 O   0  0  0  0  0  0  0  0  0  0  0  0
    0.5387   -0.9867    5.2676 C   0  0  0  0  0  0  0  0  0  0  0  0
   -0.3752   -0.1890    6.2076 C   0  0  1  0  0  0  0  0  0  0  0  0
   -0.4950    1.1655    5.8030 O   0  0  0  0  0  0  0  0  0  0  0  0
   -1.7332    1.6957    6.2663 C   0  0  1  0  0  0  0  0  0  0  0  0
   -2.3912    2.3809    5.2074 O   0  0  0  0  0  0  0  0  0  0  0  0
   -1.7941    3.5815    4.7438 C   0  0  2  0  0  0  0  0  0  0  0  0
   -2.5017    4.7549    5.4399 C   0  0  1  0  0  0  0  0  0  0  0  0
   -2.1672    4.7647    6.8189 O   0  0  0  0  0  0  0  0  0  0  0  0
   -2.1350    6.1340    4.8709 C   0  0  2  0  0  0  0  0  0  0  0  0
   -2.9195    7.1975    5.5172 N   0  0  0  0  0  0  0  0  0  0  0  0
   -2.3923    6.1553    3.3688 C   0  0  0  0  0  0  0  0  0  0  0  0
   -1.6148    5.0288    2.6991 C   0  0  2  0  0  0  0  0  0  0  0  0
   -1.8372    5.1071    1.2513 N   0  0  0  0  0  0  0  0  0  0  0  0
   -2.0476    3.6622    3.2725 C   0  0  1  0  0  0  0  0  0  0  0  0
   -1.2700    2.6852    2.5638 O   0  0  0  0  0  0  0  0  0  0  0  0
   -1.5865    1.3157    2.7891 C   0  0  1  0  0  0  0  0  0  0  0  0
   -2.7588    0.9449    2.0688 O   0  0  0  0  0  0  0  0  0  0  0  0
   -2.6388    0.9020    0.6485 C   0  0  2  0  0  0  0  0  0  0  0  0
   -3.9882    0.4858    0.0481 C   0  0  0  0  0  0  0  0  0  0  0  0
   -3.9572    0.5002   -1.4074 N   0  0  0  0  0  0  0  0  0  0  0  0
   -1.5470   -0.0962    0.2207 C   0  0  1  0  0  0  0  0  0  0  0  0
   -1.4066   -0.0777   -1.1888 O   0  0  0  0  0  0  0  0  0  0  0  0
   -0.2234    0.3071    0.8824 C   0  0  2  0  0  0  0  0  0  0  0  0
    0.7816   -0.6421    0.5788 O   0  0  0  0  0  0  0  0  0  0  0  0
   -0.3939    0.4338    2.4023 C   0  0  1  0  0  0  0  0  0  0  0  0
    0.8445    0.9432    3.0086 N   0  0  0  0  0  0  0  0  0  0  0  0
   -2.5883    0.5015    6.7146 C   0  0  2  0  0  0  0  0  0  0  0  0
   -2.7016    0.4949    8.1255 O   0  0  0  0  0  0  0  0  0  0  0  0
   -1.8133   -0.6961    6.1673 C   0  0  2  0  0  0  0  0  0  0  0  0
   -2.0173   -1.8883    6.8995 O   0  0  0  0  0  0  0  0  0  0  0  0
  2  1  1  0  0  0  0
  3  2  1  6  0  0  0
  3 30  1  0  0  0  0
  4  5  1  0  0  0  0
  4  3  1  0  0  0  0
  5 28  1  0  0  0  0
  5  6  1  6  0  0  0
  7  6  1  1  0  0  0
  8  7  1  0  0  0  0
  8  9  1  1  0  0  0
 10 11  1  1  0  0  0
 10  8  1  0  0  0  0
 12 10  1  0  0  0  0
 13 12  1  0  0  0  0
 13 15  1  0  0  0  0
 13 14  1  6  0  0  0
 15  7  1  0  0  0  0
 15 16  1  6  0  0  0
 17 16  1  6  0  0  0
 18 17  1  0  0  0  0
 19 20  1  6  0  0  0
 19 18  1  0  0  0  0
 20 21  1  0  0  0  0
 22 24  1  0  0  0  0
 22 19  1  0  0  0  0
 22 23  1  6  0  0  0
 24 25  1  1  0  0  0
 24 26  1  0  0  0  0
 26 17  1  0  0  0  0
 26 27  1  6  0  0  0
 28 29  1  1  0  0  0
 28 30  1  0  0  0  0
 30 31  1  1  0  0  0
M  END
>  <CHROM.1>
-52.90093659,74.39351860,-68.11780944,-97.09843282,57.32939510,-43.52274001
-97.58529336,66.38844344,77.51087117,176.55784038,177.99363235,-177.68671917
143.65964341,50.15207128,-59.45459377,179.36451239,-1.56739745,1.78768566
3.62450004,-1.79842806,1.27197220,-1.85272237

>  <Name>
lig.pdb

>  <RI>
0

>  <Rbt.Current_Directory>
/home/itssahil/PROJECTS/Mol_Feturizer/New_Systems/rnas/2n0j

>  <Rbt.Executable>
rbdock ($Id: //depot/dev/client3/rdock/2013.1/src/exe/rbdock.cxx#4 $)

>  <Rbt.Library>
libRbt.so (2013.1, Build901 2013/11/27)

>  <Rbt.Parameter_File>
/export/apps/rDock/src/rDock_2013.1_src/data/scripts/dock_solv.prm

>  <Rbt.Receptor>
prm/pocket_docking_5.prm

>  <SCORE>
-46.9164

>  <SCORE.INTER>
-42.7839

>  <SCORE.INTER.CONST>
1

>  <SCORE.INTER.POLAR>
-5.50128

>  <SCORE.INTER.ROT>
6

>  <SCORE.INTER.SOLV>
18.0805

>  <SCORE.INTER.VDW>
-23.8119

>  <SCORE.INTER.norm>
-1.38013

>  <SCORE.INTRA>
-4.66579

>  <SCORE.INTRA.DIHEDRAL>
-11.6083

>  <SCORE.INTRA.DIHEDRAL.0>
28.0161

>  <SCORE.INTRA.POLAR>
-0.40681

>  <SCORE.INTRA.POLAR.0>
-1.05798

>  <SCORE.INTRA.REPUL>
0

>  <SCORE.INTRA.REPUL.0>
0

>  <SCORE.INTRA.SOLV>
1.2632

>  <SCORE.INTRA.SOLV.lig_0>
-42.5945

>  <SCORE.INTRA.VDW>
1.88993

>  <SCORE.INTRA.VDW.0>
-5.13869

>  <SCORE.INTRA.norm>
-0.150509

>  <SCORE.RESTR>
0.533331

>  <SCORE.RESTR.CAVITY>
0.533331

>  <SCORE.RESTR.norm>
0.0172042

>  <SCORE.SYSTEM>
0

>  <SCORE.SYSTEM.CONST>
0

>  <SCORE.SYSTEM.DIHEDRAL>
0

>  <SCORE.SYSTEM.SOLV>
0

>  <SCORE.SYSTEM.norm>
0

>  <SCORE.heavy>
31

>  <SCORE.norm>
-1.51343

>  <RMSD>
5.833

$$$$
lig.pdb
 OpenBabel11021811453D
libRbt.so/2013.1/901 2013/11/27
 31 33  0  0  0  0  0  0  0  0999 V2000
    3.2510    5.5252    2.2561 O   0  0  0  0  0  0  0  0  0  0  0  0
    2.0136    5.8018    2.8827 C   0  0  0  0  0  0  0  0  0  0  0  0
    0.8356    5.2585    2.0628 C   0  0  1  0  0  0  0  0  0  0  0  0
    1.0357    3.9058    1.6843 O   0  0  0  0  0  0  0  0  0  0  0  0
   -0.2249    3.2723    1.4881 C   0  0  1  0  0  0  0  0  0  0  0  0
   -0.2455    2.0195    2.1618 O   0  0  0  0  0  0  0  0  0  0  0  0
   -0.4618    0.8623    1.3700 C   0  0  2  0  0  0  0  0  0  0  0  0
   -1.8652    0.9734    0.7532 C   0  0  1  0  0  0  0  0  0  0  0  0
   -1.8807    2.0095   -0.2163 O   0  0  0  0  0  0  0  0  0  0  0  0
   -2.3476   -0.3093    0.0590 C   0  0  2  0  0  0  0  0  0  0  0  0
   -3.7304   -0.1621   -0.4209 N   0  0  0  0  0  0  0  0  0  0  0  0
   -2.2700   -1.4804    1.0314 C   0  0  0  0  0  0  0  0  0  0  0  0
   -0.8485   -1.6116    1.5642 C   0  0  2  0  0  0  0  0  0  0  0  0
   -0.7907   -2.7771    2.4529 N   0  0  0  0  0  0  0  0  0  0  0  0
   -0.4247   -0.3161    2.2893 C   0  0  1  0  0  0  0  0  0  0  0  0
    0.9104   -0.5585    2.7587 O   0  0  0  0  0  0  0  0  0  0  0  0
    1.4726    0.4049    3.6432 C   0  0  1  0  0  0  0  0  0  0  0  0
    0.7718    0.4182    4.8840 O   0  0  0  0  0  0  0  0  0  0  0  0
    0.9242   -0.7366    5.7065 C   0  0  2  0  0  0  0  0  0  0  0  0
    0.1064   -0.5438    6.9905 C   0  0  0  0  0  0  0  0  0  0  0  0
   -1.2930   -0.2654    6.7007 N   0  0  0  0  0  0  0  0  0  0  0  0
    2.4054   -0.9657    6.0606 C   0  0  1  0  0  0  0  0  0  0  0  0
    2.5371   -2.1492    6.8277 O   0  0  0  0  0  0  0  0  0  0  0  0
    3.2090   -1.0942    4.7605 C   0  0  2  0  0  0  0  0  0  0  0  0
    4.5885   -1.2182    5.0514 O   0  0  0  0  0  0  0  0  0  0  0  0
    2.9638    0.1164    3.8498 C   0  0  1  0  0  0  0  0  0  0  0  0
    3.6368   -0.0791    2.5578 N   0  0  0  0  0  0  0  0  0  0  0  0
   -1.2878    4.1995    2.0954 C   0  0  2  0  0  0  0  0  0  0  0  0
   -2.0529    4.7937    1.0635 O   0  0  0  0  0  0  0  0  0  0  0  0
   -0.4507    5.2076    2.8811 C   0  0  2  0  0  0  0  0  0  0  0  0
   -1.0757    6.4662    3.0380 O   0  0  0  0  0  0  0  0  0  0  0  0
  2  1  1  0  0  0  0
  3  2  1  1  0  0  0
  3 30  1  0  0  0  0
  4  5  1  0  0  0  0
  4  3  1  0  0  0  0
  5 28  1  0  0  0  0
  5  6  1  1  0  0  0
  7  6  1  1  0  0  0
  8  7  1  0  0  0  0
  8  9  1  6  0  0  0
 10 11  1  1  0  0  0
 10  8  1  0  0  0  0
 12 10  1  0  0  0  0
 13 12  1  0  0  0  0
 13 15  1  0  0  0  0
 13 14  1  1  0  0  0
 15  7  1  0  0  0  0
 15 16  1  6  0  0  0
 17 16  1  6  0  0  0
 18 17  1  0  0  0  0
 19 20  1  1  0  0  0
 19 18  1  0  0  0  0
 20 21  1  0  0  0  0
 22 24  1  0  0  0  0
 22 19  1  0  0  0  0
 22 23  1  1  0  0  0
 24 25  1  1  0  0  0
 24 26  1  0  0  0  0
 26 17  1  0  0  0  0
 26 27  1  6  0  0  0
 28 29  1  6  0  0  0
 28 30  1  0  0  0  0
 30 31  1  6  0  0  0
M  END
>  <CHROM.1>
67.54399802,49.25142905,-120.09751894,-63.42313985,72.29098506,67.09961046
177.58262388,68.51867677,66.25095158,55.95711481,-48.57562216,161.83230116
-58.67458772,-82.14923932,-168.62271514,-61.72594999,0.31143904,1.20400013
2.91548515,-2.07639438,0.70486629,2.89293767

>  <Name>
lig.pdb

>  <RI>
1.79691e+07

>  <Rbt.Current_Directory>
/home/itssahil/PROJECTS/Mol_Feturizer/New_Systems/rnas/2n0j

>  <Rbt.Executable>
rbdock ($Id: //depot/dev/client3/rdock/2013.1/src/exe/rbdock.cxx#4 $)

>  <Rbt.Library>
libRbt.so (2013.1, Build901 2013/11/27)

>  <Rbt.Parameter_File>
/export/apps/rDock/src/rDock_2013.1_src/data/scripts/dock_solv.prm

>  <Rbt.Receptor>
prm/blind_docking_20.prm

>  <SCORE>
-31.6292

>  <SCORE.INTER>
-32.402

>  <SCORE.INTER.CONST>
1

>  <SCORE.INTER.POLAR>
-4.54537

>  <SCORE.INTER.ROT>
6

>  <SCORE.INTER.SOLV>
22.5921

>  <SCORE.INTER.VDW>
-21.5808

>  <SCORE.INTER.norm>
-1.04523

>  <SCORE.INTRA>
-0.971773

>  <SCORE.INTRA.DIHEDRAL>
-14.7711

>  <SCORE.INTRA.DIHEDRAL.0>
28.0161

>  <SCORE.INTRA.POLAR>
1.01631

>  <SCORE.INTRA.POLAR.0>
-1.05798

>  <SCORE.INTRA.REPUL>
0

>  <SCORE.INTRA.REPUL.0>
0

>  <SCORE.INTRA.SOLV>
-0.380621

>  <SCORE.INTRA.SOLV.lig_0>
-42.5945

>  <SCORE.INTRA.VDW>
3.14865

>  <SCORE.INTRA.VDW.0>
-5.13869

>  <SCORE.INTRA.norm>
-0.0313475

>  <SCORE.RESTR>
1.74461

>  <SCORE.RESTR.CAVITY>
1.74461

>  <SCORE.RESTR.norm>
0.0562776

>  <SCORE.SYSTEM>
0

>  <SCORE.SYSTEM.CONST>
0

>  <SCORE.SYSTEM.DIHEDRAL>
0

>  <SCORE.SYSTEM.SOLV>
0

>  <SCORE.SYSTEM.norm>
0

>  <SCORE.heavy>
31

>  <SCORE.norm>
-1.0203

>  <RMSD>
5.835

$$$$
lig.pdb
 OpenBabel11021811453D
libRbt.so/2013.1/901 2013/11/27
 31 33  0  0  0  0  0  0  0  0999 V2000
    3.0537    6.5730    2.0728 O   0  0  0  0  0  0  0  0  0  0  0  0
    2.2255    5.7182    2.8367 C   0  0  0  0  0  0  0  0  0  0  0  0
    1.0258    5.2213    2.0187 C   0  0  1  0  0  0  0  0  0  0  0  0
    1.1532    3.8508    1.6746 O   0  0  0  0  0  0  0  0  0  0  0  0
   -0.1391    3.2837    1.4815 C   0  0  1  0  0  0  0  0  0  0  0  0
   -0.2350    2.0507    2.1847 O   0  0  0  0  0  0  0  0  0  0  0  0
   -0.4554    0.8809    1.4127 C   0  0  2  0  0  0  0  0  0  0  0  0
   -1.8766    0.9637    0.8336 C   0  0  1  0  0  0  0  0  0  0  0  0
   -1.9343    1.9875   -0.1472 O   0  0  0  0  0  0  0  0  0  0  0  0
   -2.3584   -0.3344    0.1681 C   0  0  2  0  0  0  0  0  0  0  0  0
   -3.7559   -0.2135   -0.2752 N   0  0  0  0  0  0  0  0  0  0  0  0
   -2.2366   -1.4923    1.1517 C   0  0  0  0  0  0  0  0  0  0  0  0
   -0.7991   -1.5959    1.6466 C   0  0  2  0  0  0  0  0  0  0  0  0
   -0.6994   -2.7495    2.5471 N   0  0  0  0  0  0  0  0  0  0  0  0
   -0.3753   -0.2856    2.3445 C   0  0  1  0  0  0  0  0  0  0  0  0
    0.9757   -0.5024    2.7798 O   0  0  0  0  0  0  0  0  0  0  0  0
    1.5342    0.4600    3.6677 C   0  0  1  0  0  0  0  0  0  0  0  0
    0.8477    0.4508    4.9164 O   0  0  0  0  0  0  0  0  0  0  0  0
    1.0261   -0.7100    5.7253 C   0  0  2  0  0  0  0  0  0  0  0  0
    0.2205   -0.5419    7.0204 C   0  0  0  0  0  0  0  0  0  0  0  0
   -1.1038    0.0057    6.7634 N   0  0  0  0  0  0  0  0  0  0  0  0
    2.5144   -0.9212    6.0600 C   0  0  1  0  0  0  0  0  0  0  0  0
    2.6719   -2.1103    6.8135 O   0  0  0  0  0  0  0  0  0  0  0  0
    3.3047   -1.0250    4.7497 C   0  0  2  0  0  0  0  0  0  0  0  0
    4.6891   -1.1319    5.0234 O   0  0  0  0  0  0  0  0  0  0  0  0
    3.0317    0.1910    3.8542 C   0  0  1  0  0  0  0  0  0  0  0  0
    3.6924    0.0183    2.5527 N   0  0  0  0  0  0  0  0  0  0  0  0
   -1.1535    4.2829    2.0564 C   0  0  2  0  0  0  0  0  0  0  0  0
   -1.8759    4.8935    1.0033 O   0  0  0  0  0  0  0  0  0  0  0  0
   -0.2680    5.2619    2.8257 C   0  0  2  0  0  0  0  0  0  0  0  0
   -0.8231    6.5566    2.9466 O   0  0  0  0  0  0  0  0  0  0  0  0
  2  1  1  0  0  0  0
  3  2  1  1  0  0  0
  3 30  1  0  0  0  0
  4  5  1  0  0  0  0
  4  3  1  0  0  0  0
  5 28  1  0  0  0  0
  5  6  1  1  0  0  0
  7  6  1  1  0  0  0
  8  7  1  0  0  0  0
  8  9  1  6  0  0  0
 10 11  1  1  0  0  0
 10  8  1  0  0  0  0
 12 10  1  0  0  0  0
 13 12  1  0  0  0  0
 13 15  1  0  0  0  0
 13 14  1  1  0  0  0
 15  7  1  0  0  0  0
 15 16  1  6  0  0  0
 17 16  1  6  0  0  0
 18 17  1  0  0  0  0
 19 20  1  1  0  0  0
 19 18  1  0  0  0  0
 20 21  1  0  0  0  0
 22 24  1  0  0  0  0
 22 19  1  0  0  0  0
 22 23  1  6  0  0  0
 24 25  1  1  0  0  0
 24 26  1  0  0  0  0
 26 17  1  0  0  0  0
 26 27  1  6  0  0  0
 28 29  1  6  0  0  0
 28 30  1  0  0  0  0
 30 31  1  6  0  0  0
M  END
>  <CHROM.1>
66.88921980,107.81287889,-117.62620823,-68.59553254,-139.13267883,-63.13726031
54.96409035,70.26811456,65.31295755,43.28763535,75.55103663,-58.96072788
71.84171793,150.36265460,-175.67866167,59.41174224,0.38115101,1.27696359
2.92998857,-1.99730268,0.69005370,2.87060032

>  <Name>
lig.pdb

>  <RI>
0

>  <Rbt.Current_Directory>
/home/itssahil/PROJECTS/Mol_Feturizer/New_Systems/rnas/2n0j

>  <Rbt.Executable>
rbdock ($Id: //depot/dev/client3/rdock/2013.1/src/exe/rbdock.cxx#4 $)

>  <Rbt.Library>
libRbt.so (2013.1, Build901 2013/11/27)

>  <Rbt.Parameter_File>
/export/apps/rDock/src/rDock_2013.1_src/data/scripts/dock_solv.prm

>  <Rbt.Receptor>
prm/blind_docking_40.prm

>  <SCORE>
-34.7244

>  <SCORE.INTER>
-39.3056

>  <SCORE.INTER.CONST>
1

>  <SCORE.INTER.POLAR>
-6.08148

>  <SCORE.INTER.ROT>
6

>  <SCORE.INTER.SOLV>
22.6325

>  <SCORE.INTER.VDW>
-21.0763

>  <SCORE.INTER.norm>
-1.26792

>  <SCORE.INTRA>
3.02835

>  <SCORE.INTRA.DIHEDRAL>
-5.0288

>  <SCORE.INTRA.DIHEDRAL.0>
28.0161

>  <SCORE.INTRA.POLAR>
0.95485

>  <SCORE.INTRA.POLAR.0>
-1.05798

>  <SCORE.INTRA.REPUL>
0

>  <SCORE.INTRA.REPUL.0>
0

>  <SCORE.INTRA.SOLV>
-0.389443

>  <SCORE.INTRA.SOLV.lig_0>
-42.5945

>  <SCORE.INTRA.VDW>
2.49098

>  <SCORE.INTRA.VDW.0>
-5.13869

>  <SCORE.INTRA.norm>
0.0976886

>  <SCORE.RESTR>
1.55276

>  <SCORE.RESTR.CAVITY>
1.55276

>  <SCORE.RESTR.norm>
0.0500891

>  <SCORE.SYSTEM>
0

>  <SCORE.SYSTEM.CONST>
0

>  <SCORE.SYSTEM.DIHEDRAL>
0

>  <SCORE.SYSTEM.SOLV>
0

>  <SCORE.SYSTEM.norm>
0

>  <SCORE.heavy>
31

>  <SCORE.norm>
-1.12014

>  <RMSD>
5.842

$$$$
lig.pdb
 OpenBabel11021811453D
libRbt.so/2013.1/901 2013/11/27
 31 33  0  0  0  0  0  0  0  0999 V2000
   -1.7177    6.4664    1.9007 O   0  0  0  0  0  0  0  0  0  0  0  0
   -1.8212    5.0809    1.6368 C   0  0  0  0  0  0  0  0  0  0  0  0
   -0.6439    4.3049    2.2426 C   0  0  1  0  0  0  0  0  0  0  0  0
   -0.6615    2.9380    1.8625 O   0  0  0  0  0  0  0  0  0  0  0  0
    0.6619    2.4130    1.9029 C   0  0  1  0  0  0  0  0  0  0  0  0
    0.9318    1.6919    0.7066 O   0  0  0  0  0  0  0  0  0  0  0  0
    0.3229    0.4181    0.5674 C   0  0  2  0  0  0  0  0  0  0  0  0
   -1.0328    0.6212   -0.1274 C   0  0  1  0  0  0  0  0  0  0  0  0
   -0.8253    1.0053   -1.4775 O   0  0  0  0  0  0  0  0  0  0  0  0
   -1.9239   -0.6301   -0.1401 C   0  0  2  0  0  0  0  0  0  0  0  0
   -3.2383   -0.3366   -0.7320 N   0  0  0  0  0  0  0  0  0  0  0  0
   -2.1115   -1.1421    1.2831 C   0  0  0  0  0  0  0  0  0  0  0  0
   -0.7512   -1.4081    1.9162 C   0  0  2  0  0  0  0  0  0  0  0  0
   -0.9628   -1.9505    3.2625 N   0  0  0  0  0  0  0  0  0  0  0  0
    0.0903   -0.1140    1.9452 C   0  0  1  0  0  0  0  0  0  0  0  0
    1.3306   -0.4769    2.5709 O   0  0  0  0  0  0  0  0  0  0  0  0
    1.8688    0.4347    3.5227 C   0  0  1  0  0  0  0  0  0  0  0  0
    1.1541    0.3579    4.7531 O   0  0  0  0  0  0  0  0  0  0  0  0
    1.3140   -0.8456    5.5010 C   0  0  2  0  0  0  0  0  0  0  0  0
    0.4792   -0.7477    6.7848 C   0  0  0  0  0  0  0  0  0  0  0  0
   -0.7824   -0.0581    6.5552 N   0  0  0  0  0  0  0  0  0  0  0  0
    2.7943   -1.0768    5.8574 C   0  0  1  0  0  0  0  0  0  0  0  0
    2.9346   -2.3056    6.5479 O   0  0  0  0  0  0  0  0  0  0  0  0
    3.6142   -1.1097    4.5616 C   0  0  2  0  0  0  0  0  0  0  0  0
    4.9920   -1.2332    4.8605 O   0  0  0  0  0  0  0  0  0  0  0  0
    3.3617    0.1540    3.7282 C   0  0  1  0  0  0  0  0  0  0  0  0
    4.0519    0.0520    2.4345 N   0  0  0  0  0  0  0  0  0  0  0  0
    1.6138    3.6138    2.0045 C   0  0  2  0  0  0  0  0  0  0  0  0
    2.1906    3.6614    3.2962 O   0  0  0  0  0  0  0  0  0  0  0  0
    0.6971    4.8001    1.7103 C   0  0  2  0  0  0  0  0  0  0  0  0
    1.1297    6.0120    2.2963 O   0  0  0  0  0  0  0  0  0  0  0  0
  2  1  1  0  0  0  0
  3  2  1  6  0  0  0
  3 30  1  0  0  0  0
  4  5  1  0  0  0  0
  4  3  1  0  0  0  0
  5 28  1  0  0  0  0
  5  6  1  6  0  0  0
  7  6  1  1  0  0  0
  8  7  1  0  0  0  0
  8  9  1  6  0  0  0
 10 11  1  1  0  0  0
 10  8  1  0  0  0  0
 12 10  1  0  0  0  0
 13 12  1  0  0  0  0
 13 15  1  0  0  0  0
 13 14  1  1  0  0  0
 15  7  1  0  0  0  0
 15 16  1  6  0  0  0
 17 16  1  6  0  0  0
 18 17  1  0  0  0  0
 19 20  1  1  0  0  0
 19 18  1  0  0  0  0
 20 21  1  0  0  0  0
 22 24  1  0  0  0  0
 22 19  1  0  0  0  0
 22 23  1  6  0  0  0
 24 25  1  1  0  0  0
 24 26  1  0  0  0  0
 26 17  1  0  0  0  0
 26 27  1  6  0  0  0
 28 29  1  1  0  0  0
 28 30  1  0  0  0  0
 30 31  1  1  0  0  0
M  END
>  <CHROM.1>
-73.66668033,-173.67147172,-74.38328069,90.47496913,-44.71100991,-50.17491270
158.21650848,101.55539199,75.78737460,37.28589900,96.24717257,-56.56903163
74.12935623,164.95999479,-55.90695024,-54.07677338,0.61295970,1.00510264
2.71993722,-2.33439180,0.80892314,2.99492418

>  <Name>
lig.pdb

>  <RI>
1.79691e+07

>  <Rbt.Current_Directory>
/home/itssahil/PROJECTS/Mol_Feturizer/New_Systems/rnas/2n0j

>  <Rbt.Executable>
rbdock ($Id: //depot/dev/client3/rdock/2013.1/src/exe/rbdock.cxx#4 $)

>  <Rbt.Library>
libRbt.so (2013.1, Build901 2013/11/27)

>  <Rbt.Parameter_File>
/export/apps/rDock/src/rDock_2013.1_src/data/scripts/dock_solv.prm

>  <Rbt.Receptor>
prm/blind_docking_20.prm

>  <SCORE>
-34.7854

>  <SCORE.INTER>
-39.5152

>  <SCORE.INTER.CONST>
1

>  <SCORE.INTER.POLAR>
-4.40236

>  <SCORE.INTER.ROT>
6

>  <SCORE.INTER.SOLV>
24.7518

>  <SCORE.INTER.VDW>
-27.5195

>  <SCORE.INTER.norm>
-1.27468

>  <SCORE.INTRA>
3.82974

>  <SCORE.INTRA.DIHEDRAL>
-6.97065

>  <SCORE.INTRA.DIHEDRAL.0>
28.0161

>  <SCORE.INTRA.POLAR>
0.432807

>  <SCORE.INTRA.POLAR.0>
-1.05798

>  <SCORE.INTRA.REPUL>
0

>  <SCORE.INTRA.REPUL.0>
0

>  <SCORE.INTRA.SOLV>
0.963795

>  <SCORE.INTRA.SOLV.lig_0>
-42.5945

>  <SCORE.INTRA.VDW>
5.36163

>  <SCORE.INTRA.VDW.0>
-5.13869

>  <SCORE.INTRA.norm>
0.12354

>  <SCORE.RESTR>
0.900099

>  <SCORE.RESTR.CAVITY>
0.900099

>  <SCORE.RESTR.norm>
0.0290354

>  <SCORE.SYSTEM>
0

>  <SCORE.SYSTEM.CONST>
0

>  <SCORE.SYSTEM.DIHEDRAL>
0

>  <SCORE.SYSTEM.SOLV>
0

>  <SCORE.SYSTEM.norm>
0

>  <SCORE.heavy>
31

>  <SCORE.norm>
-1.12211

>  <RMSD>
5.845

$$$$
lig.pdb
 OpenBabel11021811453D
libRbt.so/2013.1/901 2013/11/27
 31 33  0  0  0  0  0  0  0  0999 V2000
    1.8367    1.0902    3.1296 O   0  0  0  0  0  0  0  0  0  0  0  0
    1.6438    0.0209    4.0349 C   0  0  0  0  0  0  0  0  0  0  0  0
    0.3216   -0.7103    3.7660 C   0  0  1  0  0  0  0  0  0  0  0  0
   -0.7920    0.1648    3.8504 O   0  0  0  0  0  0  0  0  0  0  0  0
   -1.8566   -0.3365    3.0479 C   0  0  1  0  0  0  0  0  0  0  0  0
   -2.3857    0.7085    2.2405 O   0  0  0  0  0  0  0  0  0  0  0  0
   -3.7537    1.0376    2.4226 C   0  0  2  0  0  0  0  0  0  0  0  0
   -4.4619    0.8581    1.0704 C   0  0  1  0  0  0  0  0  0  0  0  0
   -4.5245   -0.5211    0.7428 O   0  0  0  0  0  0  0  0  0  0  0  0
   -5.8987    1.4010    1.0388 C   0  0  2  0  0  0  0  0  0  0  0  0
   -6.4781    1.2839   -0.3083 N   0  0  0  0  0  0  0  0  0  0  0  0
   -5.9052    2.8634    1.4685 C   0  0  0  0  0  0  0  0  0  0  0  0
   -5.2676    2.9962    2.8461 C   0  0  2  0  0  0  0  0  0  0  0  0
   -5.3369    4.4027    3.2569 N   0  0  0  0  0  0  0  0  0  0  0  0
   -3.8134    2.4784    2.8174 C   0  0  1  0  0  0  0  0  0  0  0  0
   -3.3131    2.6661    4.1500 O   0  0  0  0  0  0  0  0  0  0  0  0
   -1.9854    3.1627    4.2812 C   0  0  1  0  0  0  0  0  0  0  0  0
   -1.9282    4.5439    3.9354 O   0  0  0  0  0  0  0  0  0  0  0  0
   -2.5789    5.4449    4.8290 C   0  0  2  0  0  0  0  0  0  0  0  0
   -2.4128    6.8758    4.3004 C   0  0  0  0  0  0  0  0  0  0  0  0
   -3.0905    7.8453    5.1492 N   0  0  0  0  0  0  0  0  0  0  0  0
   -1.9822    5.3389    6.2448 C   0  0  1  0  0  0  0  0  0  0  0  0
   -2.6828    6.1992    7.1255 O   0  0  0  0  0  0  0  0  0  0  0  0
   -2.1059    3.8875    6.7247 C   0  0  2  0  0  0  0  0  0  0  0  0
   -1.4870    3.7384    7.9888 O   0  0  0  0  0  0  0  0  0  0  0  0
   -1.4776    2.9250    5.7078 C   0  0  1  0  0  0  0  0  0  0  0  0
   -1.7150    1.5331    6.1163 N   0  0  0  0  0  0  0  0  0  0  0  0
   -1.2592   -1.4282    2.1481 C   0  0  2  0  0  0  0  0  0  0  0  0
   -1.7184   -2.6999    2.5667 O   0  0  0  0  0  0  0  0  0  0  0  0
    0.2451   -1.2390    2.3372 C   0  0  2  0  0  0  0  0  0  0  0  0
    0.9974   -2.4172    2.1252 O   0  0  0  0  0  0  0  0  0  0  0  0
  2  1  1  0  0  0  0
  3  2  1  6  0  0  0
  3 30  1  0  0  0  0
  4  5  1  0  0  0  0
  4  3  1  0  0  0  0
  5 28  1  0  0  0  0
  5  6  1  6  0  0  0
  7  6  1  6  0  0  0
  8  7  1  0  0  0  0
  8  9  1  1  0  0  0
 10 11  1  6  0  0  0
 10  8  1  0  0  0  0
 12 10  1  0  0  0  0
 13 12  1  0  0  0  0
 13 15  1  0  0  0  0
 13 14  1  6  0  0  0
 15  7  1  0  0  0  0
 15 16  1  1  0  0  0
 17 16  1  1  0  0  0
 18 17  1  0  0  0  0
 19 20  1  6  0  0  0
 19 18  1  0  0  0  0
 20 21  1  0  0  0  0
 22 24  1  0  0  0  0
 22 19  1  0  0  0  0
 22 23  1  1  0  0  0
 24 25  1  1  0  0  0
 24 26  1  0  0  0  0
 26 17  1  0  0  0  0
 26 27  1  1  0  0  0
 28 29  1  1  0  0  0
 28 30  1  0  0  0  0
 30 31  1  1  0  0  0
M  END
>  <CHROM.1>
-63.28942059,-58.05580534,-119.48148979,-121.75652176,-61.07471845,-159.33345823
-179.22650457,101.12339436,72.84597084,178.31382127,66.07815338,-174.35845696
-61.43181753,57.68564638,174.38000988,-73.49435225,-2.40951466,2.07245264
3.59879461,-1.34034566,-0.54080509,0.59426205

>  <Name>
lig.pdb

>  <RI>
2.74555e+07

>  <Rbt.Current_Directory>
/home/itssahil/PROJECTS/Mol_Feturizer/New_Systems/rnas/2n0j

>  <Rbt.Executable>
rbdock ($Id: //depot/dev/client3/rdock/2013.1/src/exe/rbdock.cxx#4 $)

>  <Rbt.Library>
libRbt.so (2013.1, Build901 2013/11/27)

>  <Rbt.Parameter_File>
/export/apps/rDock/src/rDock_2013.1_src/data/scripts/dock_solv.prm

>  <Rbt.Receptor>
prm/pocket_docking_6.prm

>  <SCORE>
-44.0099

>  <SCORE.INTER>
-41.1159

>  <SCORE.INTER.CONST>
1

>  <SCORE.INTER.POLAR>
-4.92399

>  <SCORE.INTER.ROT>
6

>  <SCORE.INTER.SOLV>
20.1537

>  <SCORE.INTER.VDW>
-25.3152

>  <SCORE.INTER.norm>
-1.32632

>  <SCORE.INTRA>
-2.89396

>  <SCORE.INTRA.DIHEDRAL>
-4.6262

>  <SCORE.INTRA.DIHEDRAL.0>
28.0161

>  <SCORE.INTRA.POLAR>
-0.26483

>  <SCORE.INTRA.POLAR.0>
-1.05798

>  <SCORE.INTRA.REPUL>
0

>  <SCORE.INTRA.REPUL.0>
0

>  <SCORE.INTRA.SOLV>
1.44032

>  <SCORE.INTRA.SOLV.lig_0>
-42.5945

>  <SCORE.INTRA.VDW>
-0.400597

>  <SCORE.INTRA.VDW.0>
-5.13869

>  <SCORE.INTRA.norm>
-0.0933535

>  <SCORE.RESTR>
0

>  <SCORE.RESTR.CAVITY>
0

>  <SCORE.RESTR.norm>
0

>  <SCORE.SYSTEM>
0

>  <SCORE.SYSTEM.CONST>
0

>  <SCORE.SYSTEM.DIHEDRAL>
0

>  <SCORE.SYSTEM.SOLV>
0

>  <SCORE.SYSTEM.norm>
0

>  <SCORE.heavy>
31

>  <SCORE.norm>
-1.41967

>  <RMSD>
5.846

$$$$
lig.pdb
 OpenBabel11021811453D
libRbt.so/2013.1/901 2013/11/27
 31 33  0  0  0  0  0  0  0  0999 V2000
   -1.5664    6.5083    1.8294 O   0  0  0  0  0  0  0  0  0  0  0  0
   -1.7958    5.1160    1.7341 C   0  0  0  0  0  0  0  0  0  0  0  0
   -0.6102    4.3129    2.2860 C   0  0  1  0  0  0  0  0  0  0  0  0
   -0.6525    2.9569    1.8706 O   0  0  0  0  0  0  0  0  0  0  0  0
    0.6660    2.4183    1.8601 C   0  0  1  0  0  0  0  0  0  0  0  0
    0.8952    1.7268    0.6382 O   0  0  0  0  0  0  0  0  0  0  0  0
    0.3255    0.4338    0.5097 C   0  0  2  0  0  0  0  0  0  0  0  0
   -1.0467    0.5922   -0.1641 C   0  0  1  0  0  0  0  0  0  0  0  0
   -0.8727    0.9809   -1.5177 O   0  0  0  0  0  0  0  0  0  0  0  0
   -1.8971   -0.6873   -0.1618 C   0  0  2  0  0  0  0  0  0  0  0  0
   -3.2293   -0.4371   -0.7334 N   0  0  0  0  0  0  0  0  0  0  0  0
   -2.0458   -1.2031    1.2647 C   0  0  0  0  0  0  0  0  0  0  0  0
   -0.6679   -1.4242    1.8766 C   0  0  2  0  0  0  0  0  0  0  0  0
   -0.8410   -1.9712    3.2266 N   0  0  0  0  0  0  0  0  0  0  0  0
    0.1317   -0.1036    1.8913 C   0  0  1  0  0  0  0  0  0  0  0  0
    1.3927   -0.4255    2.4980 O   0  0  0  0  0  0  0  0  0  0  0  0
    1.8676    0.4522    3.5133 C   0  0  1  0  0  0  0  0  0  0  0  0
    1.0925    0.3138    4.7010 O   0  0  0  0  0  0  0  0  0  0  0  0
    1.2329   -0.9181    5.4054 C   0  0  2  0  0  0  0  0  0  0  0  0
    0.3324   -0.8857    6.6475 C   0  0  0  0  0  0  0  0  0  0  0  0
    0.8429    0.0288    7.6588 N   0  0  0  0  0  0  0  0  0  0  0  0
    2.6965   -1.1443    5.8276 C   0  0  1  0  0  0  0  0  0  0  0  0
    2.8206   -2.3993    6.4727 O   0  0  0  0  0  0  0  0  0  0  0  0
    3.5816   -1.1114    4.5754 C   0  0  2  0  0  0  0  0  0  0  0  0
    4.9443   -1.2290    4.9394 O   0  0  0  0  0  0  0  0  0  0  0  0
    3.3522    0.1830    3.7835 C   0  0  1  0  0  0  0  0  0  0  0  0
    4.1088    0.1450    2.5238 N   0  0  0  0  0  0  0  0  0  0  0  0
    1.6327    3.6068    1.9666 C   0  0  2  0  0  0  0  0  0  0  0  0
    2.2456    3.6145    3.2425 O   0  0  0  0  0  0  0  0  0  0  0  0
    0.7205    4.8093    1.7296 C   0  0  2  0  0  0  0  0  0  0  0  0
    1.1816    6.0009    2.3349 O   0  0  0  0  0  0  0  0  0  0  0  0
  2  1  1  0  0  0  0
  3  2  1  6  0  0  0
  3 30  1  0  0  0  0
  4  5  1  0  0  0  0
  4  3  1  0  0  0  0
  5 28  1  0  0  0  0
  5  6  1  6  0  0  0
  7  6  1  1  0  0  0
  8  7  1  0  0  0  0
  8  9  1  6  0  0  0
 10 11  1  1  0  0  0
 10  8  1  0  0  0  0
 12 10  1  0  0  0  0
 13 12  1  0  0  0  0
 13 15  1  0  0  0  0
 13 14  1  1  0  0  0
 15  7  1  0  0  0  0
 15 16  1  6  0  0  0
 17 16  1  6  0  0  0
 18 17  1  0  0  0  0
 19 20  1  1  0  0  0
 19 18  1  0  0  0  0
 20 21  1  0  0  0  0
 22 24  1  0  0  0  0
 22 19  1  0  0  0  0
 22 23  1  6  0  0  0
 24 25  1  1  0  0  0
 24 26  1  0  0  0  0
 26 17  1  0  0  0  0
 26 27  1  6  0  0  0
 28 29  1  1  0  0  0
 28 30  1  0  0  0  0
 30 31  1  1  0  0  0
M  END
>  <CHROM.1>
82.30490862,-163.73985046,-77.50338784,92.96591220,-48.85040922,69.68089535
153.95206869,106.16185644,71.45416159,-71.09666483,114.35009812,-62.57627115
76.45660155,45.84696214,-54.52928899,-175.08816336,0.68713222,0.99502355
2.73918492,-2.37191735,0.86319479,3.00784790

>  <Name>
lig.pdb

>  <RI>
0

>  <Rbt.Current_Directory>
/home/itssahil/PROJECTS/Mol_Feturizer/New_Systems/rnas/2n0j

>  <Rbt.Executable>
rbdock ($Id: //depot/dev/client3/rdock/2013.1/src/exe/rbdock.cxx#4 $)

>  <Rbt.Library>
libRbt.so (2013.1, Build901 2013/11/27)

>  <Rbt.Parameter_File>
/export/apps/rDock/src/rDock_2013.1_src/data/scripts/dock_solv.prm

>  <Rbt.Receptor>
prm/blind_docking_60.prm

>  <SCORE>
-37.2734

>  <SCORE.INTER>
-46.6184

>  <SCORE.INTER.CONST>
1

>  <SCORE.INTER.POLAR>
-5.67313

>  <SCORE.INTER.ROT>
6

>  <SCORE.INTER.SOLV>
26.0771

>  <SCORE.INTER.VDW>
-28.4608

>  <SCORE.INTER.norm>
-1.50382

>  <SCORE.INTRA>
8.73368

>  <SCORE.INTRA.DIHEDRAL>
-3.84872

>  <SCORE.INTRA.DIHEDRAL.0>
28.0161

>  <SCORE.INTRA.POLAR>
1.04615

>  <SCORE.INTRA.POLAR.0>
-1.05798

>  <SCORE.INTRA.REPUL>
0

>  <SCORE.INTRA.REPUL.0>
0

>  <SCORE.INTRA.SOLV>
1.47833

>  <SCORE.INTRA.SOLV.lig_0>
-42.5945

>  <SCORE.INTRA.VDW>
6.36196

>  <SCORE.INTRA.VDW.0>
-5.13869

>  <SCORE.INTRA.norm>
0.281732

>  <SCORE.RESTR>
0.611285

>  <SCORE.RESTR.CAVITY>
0.611285

>  <SCORE.RESTR.norm>
0.0197189

>  <SCORE.SYSTEM>
0

>  <SCORE.SYSTEM.CONST>
0

>  <SCORE.SYSTEM.DIHEDRAL>
0

>  <SCORE.SYSTEM.SOLV>
0

>  <SCORE.SYSTEM.norm>
0

>  <SCORE.heavy>
31

>  <SCORE.norm>
-1.20237

>  <RMSD>
5.848

$$$$
lig.pdb
 OpenBabel11021811453D
libRbt.so/2013.1/901 2013/11/27
 31 33  0  0  0  0  0  0  0  0999 V2000
    0.0085    7.0886    0.2548 O   0  0  0  0  0  0  0  0  0  0  0  0
    0.9964    6.1970    0.7335 C   0  0  0  0  0  0  0  0  0  0  0  0
    0.3714    5.0372    1.5206 C   0  0  1  0  0  0  0  0  0  0  0  0
    0.1008    3.9203    0.6885 O   0  0  0  0  0  0  0  0  0  0  0  0
    0.1106    2.7287    1.4688 C   0  0  1  0  0  0  0  0  0  0  0  0
    0.8965    1.7347    0.8221 O   0  0  0  0  0  0  0  0  0  0  0  0
    0.3051    0.4577    0.6424 C   0  0  2  0  0  0  0  0  0  0  0  0
   -1.0170    0.6571   -0.1156 C   0  0  1  0  0  0  0  0  0  0  0  0
   -0.7473    1.0551   -1.4506 O   0  0  0  0  0  0  0  0  0  0  0  0
   -1.8966   -0.6006   -0.1825 C   0  0  2  0  0  0  0  0  0  0  0  0
   -3.1830   -0.3115   -0.8348 N   0  0  0  0  0  0  0  0  0  0  0  0
   -2.1488   -1.1270    1.2255 C   0  0  0  0  0  0  0  0  0  0  0  0
   -0.8186   -1.3886    1.9214 C   0  0  2  0  0  0  0  0  0  0  0  0
   -1.0910   -1.9448    3.2511 N   0  0  0  0  0  0  0  0  0  0  0  0
    0.0103   -0.0886    2.0025 C   0  0  1  0  0  0  0  0  0  0  0  0
    1.2216   -0.4480    2.6844 O   0  0  0  0  0  0  0  0  0  0  0  0
    1.7932    0.5271    3.5500 C   0  0  1  0  0  0  0  0  0  0  0  0
    0.9930    0.6949    4.7171 O   0  0  0  0  0  0  0  0  0  0  0  0
    0.9661   -0.4034    5.6263 C   0  0  2  0  0  0  0  0  0  0  0  0
    0.0627   -0.0438    6.8134 C   0  0  0  0  0  0  0  0  0  0  0  0
    0.8019   -0.0305    8.0677 N   0  0  0  0  0  0  0  0  0  0  0  0
    2.3836   -0.7327    6.1300 C   0  0  1  0  0  0  0  0  0  0  0  0
    2.3383   -1.8617    6.9842 O   0  0  0  0  0  0  0  0  0  0  0  0
    3.2802   -1.0283    4.9212 C   0  0  2  0  0  0  0  0  0  0  0  0
    4.6122   -1.2492    5.3457 O   0  0  0  0  0  0  0  0  0  0  0  0
    3.2279    0.1267    3.9122 C   0  0  1  0  0  0  0  0  0  0  0  0
    3.9880   -0.2235    2.7038 N   0  0  0  0  0  0  0  0  0  0  0  0
    0.7462    3.0871    2.8199 C   0  0  2  0  0  0  0  0  0  0  0  0
   -0.2423    3.0790    3.8329 O   0  0  0  0  0  0  0  0  0  0  0  0
    1.3329    4.4742    2.5624 C   0  0  2  0  0  0  0  0  0  0  0  0
    1.4419    5.2705    3.7256 O   0  0  0  0  0  0  0  0  0  0  0  0
  2  1  1  0  0  0  0
  3  2  1  6  0  0  0
  3 30  1  0  0  0  0
  4  5  1  0  0  0  0
  4  3  1  0  0  0  0
  5 28  1  0  0  0  0
  5  6  1  6  0  0  0
  7  6  1  1  0  0  0
  8  7  1  0  0  0  0
  8  9  1  6  0  0  0
 10 11  1  1  0  0  0
 10  8  1  0  0  0  0
 12 10  1  0  0  0  0
 13 12  1  0  0  0  0
 13 15  1  0  0  0  0
 13 14  1  1  0  0  0
 15  7  1  0  0  0  0
 15 16  1  6  0  0  0
 17 16  1  6  0  0  0
 18 17  1  0  0  0  0
 19 20  1  1  0  0  0
 19 18  1  0  0  0  0
 20 21  1  0  0  0  0
 22 24  1  0  0  0  0
 22 19  1  0  0  0  0
 22 23  1  1  0  0  0
 24 25  1  1  0  0  0
 24 26  1  0  0  0  0
 26 17  1  0  0  0  0
 26 27  1  6  0  0  0
 28 29  1  1  0  0  0
 28 30  1  0  0  0  0
 30 31  1  1  0  0  0
M  END
>  <CHROM.1>
64.85136890,91.89632776,-128.92899325,55.47393770,-53.72252953,169.82882912
-83.00629160,94.19271111,70.68965735,-118.01574944,57.17427416,52.14022126
-70.60303820,157.12701722,-46.42073940,-57.04797740,0.67825830,1.13279785
2.80806511,-2.18427459,0.96007511,2.78799906

>  <Name>
lig.pdb

>  <RI>
1.79691e+07

>  <Rbt.Current_Directory>
/home/itssahil/PROJECTS/Mol_Feturizer/New_Systems/rnas/2n0j

>  <Rbt.Executable>
rbdock ($Id: //depot/dev/client3/rdock/2013.1/src/exe/rbdock.cxx#4 $)

>  <Rbt.Library>
libRbt.so (2013.1, Build901 2013/11/27)

>  <Rbt.Parameter_File>
/export/apps/rDock/src/rDock_2013.1_src/data/scripts/dock_solv.prm

>  <Rbt.Receptor>
prm/blind_docking_20.prm

>  <SCORE>
6.44957

>  <SCORE.INTER>
-0.562295

>  <SCORE.INTER.CONST>
1

>  <SCORE.INTER.POLAR>
-5.00408

>  <SCORE.INTER.ROT>
6

>  <SCORE.INTER.SOLV>
27.1209

>  <SCORE.INTER.VDW>
-0.334886

>  <SCORE.INTER.norm>
-0.0181385

>  <SCORE.INTRA>
6.45497

>  <SCORE.INTRA.DIHEDRAL>
-3.11307

>  <SCORE.INTRA.DIHEDRAL.0>
28.0161

>  <SCORE.INTRA.POLAR>
0.775366

>  <SCORE.INTRA.POLAR.0>
-1.05798

>  <SCORE.INTRA.REPUL>
0.0199307

>  <SCORE.INTRA.REPUL.0>
0

>  <SCORE.INTRA.SOLV>
0.982236

>  <SCORE.INTRA.SOLV.lig_0>
-42.5945

>  <SCORE.INTRA.VDW>
4.78449

>  <SCORE.INTRA.VDW.0>
-5.13869

>  <SCORE.INTRA.norm>
0.208225

>  <SCORE.RESTR>
0.556901

>  <SCORE.RESTR.CAVITY>
0.556901

>  <SCORE.RESTR.norm>
0.0179645

>  <SCORE.SYSTEM>
0

>  <SCORE.SYSTEM.CONST>
0

>  <SCORE.SYSTEM.DIHEDRAL>
0

>  <SCORE.SYSTEM.SOLV>
0

>  <SCORE.SYSTEM.norm>
0

>  <SCORE.heavy>
31

>  <SCORE.norm>
0.208051

>  <RMSD>
5.854

$$$$
lig.pdb
 OpenBabel11021811453D
libRbt.so/2013.1/901 2013/11/27
 31 33  0  0  0  0  0  0  0  0999 V2000
   -0.9248    1.4361    0.0414 O   0  0  0  0  0  0  0  0  0  0  0  0
   -0.8778    0.1259   -0.4890 C   0  0  0  0  0  0  0  0  0  0  0  0
   -1.8620   -0.8063    0.2305 C   0  0  1  0  0  0  0  0  0  0  0  0
   -1.6173   -0.8550    1.6272 O   0  0  0  0  0  0  0  0  0  0  0  0
   -2.8200   -1.1914    2.3122 C   0  0  1  0  0  0  0  0  0  0  0  0
   -3.0173   -0.3029    3.4056 O   0  0  0  0  0  0  0  0  0  0  0  0
   -1.9791   -0.2217    4.3691 C   0  0  2  0  0  0  0  0  0  0  0  0
   -1.9970   -1.5231    5.1866 C   0  0  1  0  0  0  0  0  0  0  0  0
   -1.5697   -2.6045    4.3733 O   0  0  0  0  0  0  0  0  0  0  0  0
   -1.0894   -1.4969    6.4258 C   0  0  2  0  0  0  0  0  0  0  0  0
   -1.2305   -2.7334    7.2101 N   0  0  0  0  0  0  0  0  0  0  0  0
   -1.4456   -0.2992    7.2986 C   0  0  0  0  0  0  0  0  0  0  0  0
   -1.3419    0.9815    6.4795 C   0  0  2  0  0  0  0  0  0  0  0  0
   -1.6359    2.1197    7.3568 N   0  0  0  0  0  0  0  0  0  0  0  0
   -2.3017    0.9259    5.2714 C   0  0  1  0  0  0  0  0  0  0  0  0
   -2.1325    2.1779    4.5892 O   0  0  0  0  0  0  0  0  0  0  0  0
   -3.3120    2.9100    4.2736 C   0  0  1  0  0  0  0  0  0  0  0  0
   -3.4971    3.9854    5.1901 O   0  0  0  0  0  0  0  0  0  0  0  0
   -2.5572    5.0544    5.1058 C   0  0  2  0  0  0  0  0  0  0  0  0
   -2.9126    6.1128    6.1585 C   0  0  0  0  0  0  0  0  0  0  0  0
   -2.1455    5.9331    7.3828 N   0  0  0  0  0  0  0  0  0  0  0  0
   -2.5728    5.6883    3.7024 C   0  0  1  0  0  0  0  0  0  0  0  0
   -1.5915    6.7071    3.6259 O   0  0  0  0  0  0  0  0  0  0  0  0
   -2.2751    4.5981    2.6655 C   0  0  2  0  0  0  0  0  0  0  0  0
   -2.3687    5.1314    1.3579 O   0  0  0  0  0  0  0  0  0  0  0  0
   -3.2410    3.4167    2.8287 C   0  0  1  0  0  0  0  0  0  0  0  0
   -2.8651    2.3273    1.9163 N   0  0  0  0  0  0  0  0  0  0  0  0
   -3.9667   -1.0276    1.3040 C   0  0  2  0  0  0  0  0  0  0  0  0
   -4.4740   -2.2988    0.9431 O   0  0  0  0  0  0  0  0  0  0  0  0
   -3.2964   -0.2950    0.1428 C   0  0  2  0  0  0  0  0  0  0  0  0
   -3.9097   -0.5320   -1.1089 O   0  0  0  0  0  0  0  0  0  0  0  0
  2  1  1  0  0  0  0
  3  2  1  6  0  0  0
  3 30  1  0  0  0  0
  4  5  1  0  0  0  0
  4  3  1  0  0  0  0
  5 28  1  0  0  0  0
  5  6  1  1  0  0  0
  7  6  1  6  0  0  0
  8  7  1  0  0  0  0
  8  9  1  6  0  0  0
 10 11  1  1  0  0  0
 10  8  1  0  0  0  0
 12 10  1  0  0  0  0
 13 12  1  0  0  0  0
 13 15  1  0  0  0  0
 13 14  1  1  0  0  0
 15  7  1  0  0  0  0
 15 16  1  6  0  0  0
 17 16  1  1  0  0  0
 18 17  1  0  0  0  0
 19 20  1  1  0  0  0
 19 18  1  0  0  0  0
 20 21  1  0  0  0  0
 22 24  1  0  0  0  0
 22 19  1  0  0  0  0
 22 23  1  1  0  0  0
 24 25  1  6  0  0  0
 24 26  1  0  0  0  0
 26 17  1  0  0  0  0
 26 27  1  6  0  0  0
 28 29  1  6  0  0  0
 28 30  1  0  0  0  0
 30 31  1  6  0  0  0
M  END
>  <CHROM.1>
-70.59351301,-57.23481927,-56.70270032,-72.33867963,81.30784720,-55.07763108
-58.11018018,109.45281708,102.20700195,95.56290585,143.80220359,49.06679143
-167.46319454,32.94769408,-178.96215733,-57.93036332,-2.34133662,1.41186807
3.56952178,1.80158639,1.41732583,-2.85168846

>  <Name>
lig.pdb

>  <RI>
0

>  <Rbt.Current_Directory>
/home/itssahil/PROJECTS/Mol_Feturizer/New_Systems/rnas/2n0j

>  <Rbt.Executable>
rbdock ($Id: //depot/dev/client3/rdock/2013.1/src/exe/rbdock.cxx#4 $)

>  <Rbt.Library>
libRbt.so (2013.1, Build901 2013/11/27)

>  <Rbt.Parameter_File>
/export/apps/rDock/src/rDock_2013.1_src/data/scripts/dock_solv.prm

>  <Rbt.Receptor>
prm/pocket_docking_5.prm

>  <SCORE>
-37.6378

>  <SCORE.INTER>
-36.7019

>  <SCORE.INTER.CONST>
1

>  <SCORE.INTER.POLAR>
-4.44542

>  <SCORE.INTER.ROT>
6

>  <SCORE.INTER.SOLV>
16.7451

>  <SCORE.INTER.VDW>
-22.8316

>  <SCORE.INTER.norm>
-1.18393

>  <SCORE.INTRA>
-0.938727

>  <SCORE.INTRA.DIHEDRAL>
-3.24343

>  <SCORE.INTRA.DIHEDRAL.0>
28.0161

>  <SCORE.INTRA.POLAR>
-0.224226

>  <SCORE.INTRA.POLAR.0>
-1.05798

>  <SCORE.INTRA.REPUL>
0

>  <SCORE.INTRA.REPUL.0>
0

>  <SCORE.INTRA.SOLV>
1.87594

>  <SCORE.INTRA.SOLV.lig_0>
-42.5945

>  <SCORE.INTRA.VDW>
0.50739

>  <SCORE.INTRA.VDW.0>
-5.13869

>  <SCORE.INTRA.norm>
-0.0302815

>  <SCORE.RESTR>
0.00288221

>  <SCORE.RESTR.CAVITY>
0.00288221

>  <SCORE.RESTR.norm>
9.29745e-05

>  <SCORE.SYSTEM>
0

>  <SCORE.SYSTEM.CONST>
0

>  <SCORE.SYSTEM.DIHEDRAL>
0

>  <SCORE.SYSTEM.SOLV>
0

>  <SCORE.SYSTEM.norm>
0

>  <SCORE.heavy>
31

>  <SCORE.norm>
-1.21412

>  <RMSD>
5.854

$$$$
lig.pdb
 OpenBabel11021811453D
libRbt.so/2013.1/901 2013/11/27
 31 33  0  0  0  0  0  0  0  0999 V2000
    1.2319    7.0868    2.9711 O   0  0  0  0  0  0  0  0  0  0  0  0
    1.7465    5.9346    2.3325 C   0  0  0  0  0  0  0  0  0  0  0  0
    0.6451    4.8981    2.0723 C   0  0  1  0  0  0  0  0  0  0  0  0
    1.0279    3.9594    1.0798 O   0  0  0  0  0  0  0  0  0  0  0  0
    0.3237    2.7375    1.2798 C   0  0  1  0  0  0  0  0  0  0  0  0
    1.2300    1.6426    1.2185 O   0  0  0  0  0  0  0  0  0  0  0  0
    0.7020    0.3869    0.8220 C   0  0  2  0  0  0  0  0  0  0  0  0
   -0.5632    0.6529   -0.0091 C   0  0  1  0  0  0  0  0  0  0  0  0
   -0.2048    1.2354   -1.2523 O   0  0  0  0  0  0  0  0  0  0  0  0
   -1.3878   -0.6066   -0.3153 C   0  0  2  0  0  0  0  0  0  0  0  0
   -2.6290   -0.2651   -1.0272 N   0  0  0  0  0  0  0  0  0  0  0  0
   -1.7298   -1.3257    0.9843 C   0  0  0  0  0  0  0  0  0  0  0  0
   -0.4495   -1.6447    1.7465 C   0  0  2  0  0  0  0  0  0  0  0  0
   -0.8043   -2.3833    2.9631 N   0  0  0  0  0  0  0  0  0  0  0  0
    0.3220   -0.3466    2.0682 C   0  0  1  0  0  0  0  0  0  0  0  0
    1.4887   -0.7636    2.7938 O   0  0  0  0  0  0  0  0  0  0  0  0
    1.9714    0.1129    3.8063 C   0  0  1  0  0  0  0  0  0  0  0  0
    0.8913    0.7932    4.4399 O   0  0  0  0  0  0  0  0  0  0  0  0
    0.0296   -0.0063    5.2472 C   0  0  2  0  0  0  0  0  0  0  0  0
   -1.0640    0.8891    5.8445 C   0  0  0  0  0  0  0  0  0  0  0  0
   -1.9827    0.1311    6.6819 N   0  0  0  0  0  0  0  0  0  0  0  0
    0.8185   -0.6918    6.3783 C   0  0  1  0  0  0  0  0  0  0  0  0
   -0.0468   -1.5248    7.1293 O   0  0  0  0  0  0  0  0  0  0  0  0
    1.9421   -1.5311    5.7575 C   0  0  2  0  0  0  0  0  0  0  0  0
    2.7405   -2.1048    6.7756 O   0  0  0  0  0  0  0  0  0  0  0  0
    2.8062   -0.6736    4.8232 C   0  0  1  0  0  0  0  0  0  0  0  0
    3.7976   -1.5152    4.1381 N   0  0  0  0  0  0  0  0  0  0  0  0
   -0.3015    2.8088    2.6806 C   0  0  2  0  0  0  0  0  0  0  0  0
   -1.7054    2.9532    2.5730 O   0  0  0  0  0  0  0  0  0  0  0  0
    0.3837    4.0273    3.2971 C   0  0  2  0  0  0  0  0  0  0  0  0
   -0.3851    4.6668    4.2967 O   0  0  0  0  0  0  0  0  0  0  0  0
  2  1  1  0  0  0  0
  3  2  1  1  0  0  0
  3 30  1  0  0  0  0
  4  5  1  0  0  0  0
  4  3  1  0  0  0  0
  5 28  1  0  0  0  0
  5  6  1  1  0  0  0
  7  6  1  1  0  0  0
  8  7  1  0  0  0  0
  8  9  1  6  0  0  0
 10 11  1  1  0  0  0
 10  8  1  0  0  0  0
 12 10  1  0  0  0  0
 13 12  1  0  0  0  0
 13 15  1  0  0  0  0
 13 14  1  1  0  0  0
 15  7  1  0  0  0  0
 15 16  1  6  0  0  0
 17 16  1  6  0  0  0
 18 17  1  0  0  0  0
 19 20  1  1  0  0  0
 19 18  1  0  0  0  0
 20 21  1  0  0  0  0
 22 24  1  0  0  0  0
 22 19  1  0  0  0  0
 22 23  1  6  0  0  0
 24 25  1  1  0  0  0
 24 26  1  0  0  0  0
 26 17  1  0  0  0  0
 26 27  1  6  0  0  0
 28 29  1  6  0  0  0
 28 30  1  0  0  0  0
 30 31  1  1  0  0  0
M  END
>  <CHROM.1>
-178.51367489,161.04160893,-153.51417029,24.21816359,-55.19955371,-89.27513548
-74.38561134,92.87437452,33.91496453,179.92643512,48.24447322,-169.91078708
70.54385292,78.03908857,-57.06661978,-170.48834470,0.33568194,0.95753844
3.05190448,-1.97207924,1.22393348,2.85221445

>  <Name>
lig.pdb

>  <RI>
1.79691e+07

>  <Rbt.Current_Directory>
/home/itssahil/PROJECTS/Mol_Feturizer/New_Systems/rnas/2n0j

>  <Rbt.Executable>
rbdock ($Id: //depot/dev/client3/rdock/2013.1/src/exe/rbdock.cxx#4 $)

>  <Rbt.Library>
libRbt.so (2013.1, Build901 2013/11/27)

>  <Rbt.Parameter_File>
/export/apps/rDock/src/rDock_2013.1_src/data/scripts/dock_solv.prm

>  <Rbt.Receptor>
prm/blind_docking_20.prm

>  <SCORE>
-26.7611

>  <SCORE.INTER>
-32.9566

>  <SCORE.INTER.CONST>
1

>  <SCORE.INTER.POLAR>
-3.77367

>  <SCORE.INTER.ROT>
6

>  <SCORE.INTER.SOLV>
22.255

>  <SCORE.INTER.VDW>
-24.4105

>  <SCORE.INTER.norm>
-1.06312

>  <SCORE.INTRA>
2.77576

>  <SCORE.INTRA.DIHEDRAL>
-7.01589

>  <SCORE.INTRA.DIHEDRAL.0>
28.0161

>  <SCORE.INTRA.POLAR>
0.249741

>  <SCORE.INTRA.POLAR.0>
-1.05798

>  <SCORE.INTRA.REPUL>
0

>  <SCORE.INTRA.REPUL.0>
0

>  <SCORE.INTRA.SOLV>
1.71908

>  <SCORE.INTRA.SOLV.lig_0>
-42.5945

>  <SCORE.INTRA.VDW>
4.57504

>  <SCORE.INTRA.VDW.0>
-5.13869

>  <SCORE.INTRA.norm>
0.0895407

>  <SCORE.RESTR>
3.41978

>  <SCORE.RESTR.CAVITY>
3.41978

>  <SCORE.RESTR.norm>
0.110316

>  <SCORE.SYSTEM>
0

>  <SCORE.SYSTEM.CONST>
0

>  <SCORE.SYSTEM.DIHEDRAL>
0

>  <SCORE.SYSTEM.SOLV>
0

>  <SCORE.SYSTEM.norm>
0

>  <SCORE.heavy>
31

>  <SCORE.norm>
-0.86326

>  <RMSD>
5.856

$$$$
lig.pdb
 OpenBabel11021811453D
libRbt.so/2013.1/901 2013/11/27
 31 33  0  0  0  0  0  0  0  0999 V2000
    1.0918    7.4192    2.5438 O   0  0  0  0  0  0  0  0  0  0  0  0
    1.6127    6.1571    2.1752 C   0  0  0  0  0  0  0  0  0  0  0  0
    0.5057    5.0982    2.0836 C   0  0  1  0  0  0  0  0  0  0  0  0
    0.7484    4.1703    1.0380 O   0  0  0  0  0  0  0  0  0  0  0  0
    0.1092    2.9333    1.3380 C   0  0  1  0  0  0  0  0  0  0  0  0
    1.0170    1.8580    1.1299 O   0  0  0  0  0  0  0  0  0  0  0  0
    0.4619    0.6024    0.7720 C   0  0  2  0  0  0  0  0  0  0  0  0
   -0.8012    0.8701   -0.0617 C   0  0  1  0  0  0  0  0  0  0  0  0
   -0.4364    1.4089   -1.3226 O   0  0  0  0  0  0  0  0  0  0  0  0
   -1.6525   -0.3807   -0.3282 C   0  0  2  0  0  0  0  0  0  0  0  0
   -2.8896   -0.0346   -1.0450 N   0  0  0  0  0  0  0  0  0  0  0  0
   -2.0034   -1.0548    0.9930 C   0  0  0  0  0  0  0  0  0  0  0  0
   -0.7264   -1.3777    1.7593 C   0  0  2  0  0  0  0  0  0  0  0  0
   -1.0909   -2.0734    2.9982 N   0  0  0  0  0  0  0  0  0  0  0  0
    0.0726   -0.0869    2.0404 C   0  0  1  0  0  0  0  0  0  0  0  0
    1.2337   -0.5065    2.7733 O   0  0  0  0  0  0  0  0  0  0  0  0
    1.6840    0.3465    3.8203 C   0  0  1  0  0  0  0  0  0  0  0  0
    0.7840    0.3062    4.9245 O   0  0  0  0  0  0  0  0  0  0  0  0
    0.7375   -0.9173    5.6554 C   0  0  2  0  0  0  0  0  0  0  0  0
   -0.2762   -0.7751    6.7986 C   0  0  0  0  0  0  0  0  0  0  0  0
   -0.6616   -2.0702    7.3406 N   0  0  0  0  0  0  0  0  0  0  0  0
    2.1238   -1.2669    6.2277 C   0  0  1  0  0  0  0  0  0  0  0  0
    2.0650   -2.5132    6.8983 O   0  0  0  0  0  0  0  0  0  0  0  0
    3.1295   -1.3430    5.0721 C   0  0  2  0  0  0  0  0  0  0  0  0
    4.4317   -1.5765    5.5748 O   0  0  0  0  0  0  0  0  0  0  0  0
    3.1024   -0.0511    4.2441 C   0  0  1  0  0  0  0  0  0  0  0  0
    3.9748   -0.1862    3.0689 N   0  0  0  0  0  0  0  0  0  0  0  0
   -0.2916    2.9877    2.8194 C   0  0  2  0  0  0  0  0  0  0  0  0
   -1.6978    3.1027    2.9326 O   0  0  0  0  0  0  0  0  0  0  0  0
    0.4561    4.2188    3.3290 C   0  0  2  0  0  0  0  0  0  0  0  0
   -0.1605    4.8392    4.4398 O   0  0  0  0  0  0  0  0  0  0  0  0
  2  1  1  0  0  0  0
  3  2  1  1  0  0  0
  3 30  1  0  0  0  0
  4  5  1  0  0  0  0
  4  3  1  0  0  0  0
  5 28  1  0  0  0  0
  5  6  1  1  0  0  0
  7  6  1  1  0  0  0
  8  7  1  0  0  0  0
  8  9  1  6  0  0  0
 10 11  1  1  0  0  0
 10  8  1  0  0  0  0
 12 10  1  0  0  0  0
 13 12  1  0  0  0  0
 13 15  1  0  0  0  0
 13 14  1  1  0  0  0
 15  7  1  0  0  0  0
 15 16  1  6  0  0  0
 17 16  1  6  0  0  0
 18 17  1  0  0  0  0
 19 20  1  1  0  0  0
 19 18  1  0  0  0  0
 20 21  1  0  0  0  0
 22 24  1  0  0  0  0
 22 19  1  0  0  0  0
 22 23  1  6  0  0  0
 24 25  1  1  0  0  0
 24 26  1  0  0  0  0
 26 17  1  0  0  0  0
 26 27  1  6  0  0  0
 28 29  1  6  0  0  0
 28 30  1  0  0  0  0
 30 31  1  1  0  0  0
M  END
>  <CHROM.1>
75.46822210,144.42017168,-151.59269204,32.41941117,-40.89506685,151.16507763
161.70055649,97.07788790,71.22117133,163.53211462,65.45873324,-176.45062350
167.63588127,-81.14275175,-173.01915404,-44.03137884,0.53897771,0.97435718
2.99429270,-2.03180970,0.99142244,2.85780793

>  <Name>
lig.pdb

>  <RI>
0

>  <Rbt.Current_Directory>
/home/itssahil/PROJECTS/Mol_Feturizer/New_Systems/rnas/2n0j

>  <Rbt.Executable>
rbdock ($Id: //depot/dev/client3/rdock/2013.1/src/exe/rbdock.cxx#4 $)

>  <Rbt.Library>
libRbt.so (2013.1, Build901 2013/11/27)

>  <Rbt.Parameter_File>
/export/apps/rDock/src/rDock_2013.1_src/data/scripts/dock_solv.prm

>  <Rbt.Receptor>
prm/blind_docking_60.prm

>  <SCORE>
-33.6015

>  <SCORE.INTER>
-39.9852

>  <SCORE.INTER.CONST>
1

>  <SCORE.INTER.POLAR>
-5.41233

>  <SCORE.INTER.ROT>
6

>  <SCORE.INTER.SOLV>
25.1383

>  <SCORE.INTER.VDW>
-24.5952

>  <SCORE.INTER.norm>
-1.28985

>  <SCORE.INTRA>
4.57057

>  <SCORE.INTRA.DIHEDRAL>
-3.04859

>  <SCORE.INTRA.DIHEDRAL.0>
28.0161

>  <SCORE.INTRA.POLAR>
0.56889

>  <SCORE.INTRA.POLAR.0>
-1.05798

>  <SCORE.INTRA.REPUL>
0.0975327

>  <SCORE.INTRA.REPUL.0>
0

>  <SCORE.INTRA.SOLV>
0.72992

>  <SCORE.INTRA.SOLV.lig_0>
-42.5945

>  <SCORE.INTRA.VDW>
3.30802

>  <SCORE.INTRA.VDW.0>
-5.13869

>  <SCORE.INTRA.norm>
0.147438

>  <SCORE.RESTR>
1.81313

>  <SCORE.RESTR.CAVITY>
1.81313

>  <SCORE.RESTR.norm>
0.058488

>  <SCORE.SYSTEM>
0

>  <SCORE.SYSTEM.CONST>
0

>  <SCORE.SYSTEM.DIHEDRAL>
0

>  <SCORE.SYSTEM.SOLV>
0

>  <SCORE.SYSTEM.norm>
0

>  <SCORE.heavy>
31

>  <SCORE.norm>
-1.08392

>  <RMSD>
5.860

$$$$
lig.pdb
 OpenBabel11021811453D
libRbt.so/2013.1/901 2013/11/27
 31 33  0  0  0  0  0  0  0  0999 V2000
   -3.7043    5.9404    6.2156 O   0  0  0  0  0  0  0  0  0  0  0  0
   -2.5325    5.1732    6.0193 C   0  0  0  0  0  0  0  0  0  0  0  0
   -1.5980    5.8287    4.9935 C   0  0  1  0  0  0  0  0  0  0  0  0
   -0.4122    5.0736    4.8020 O   0  0  0  0  0  0  0  0  0  0  0  0
    0.1124    5.3277    3.5024 C   0  0  1  0  0  0  0  0  0  0  0  0
    0.4373    4.0985    2.8641 O   0  0  0  0  0  0  0  0  0  0  0  0
    1.7348    3.5729    3.0943 C   0  0  2  0  0  0  0  0  0  0  0  0
    2.6928    4.2369    2.0925 C   0  0  1  0  0  0  0  0  0  0  0  0
    2.8587    5.6062    2.4253 O   0  0  0  0  0  0  0  0  0  0  0  0
    4.0920    3.6040    2.0501 C   0  0  2  0  0  0  0  0  0  0  0  0
    4.9208    4.2243    1.0049 N   0  0  0  0  0  0  0  0  0  0  0  0
    3.9719    2.1086    1.7814 C   0  0  0  0  0  0  0  0  0  0  0  0
    3.0797    1.4675    2.8374 C   0  0  2  0  0  0  0  0  0  0  0  0
    3.0265    0.0232    2.5867 N   0  0  0  0  0  0  0  0  0  0  0  0
    1.6741    2.1058    2.8128 C   0  0  1  0  0  0  0  0  0  0  0  0
    0.9235    1.4197    3.8264 O   0  0  0  0  0  0  0  0  0  0  0  0
   -0.4464    1.1497    3.5489 C   0  0  1  0  0  0  0  0  0  0  0  0
   -0.6312    0.8546    2.1670 O   0  0  0  0  0  0  0  0  0  0  0  0
   -0.0767   -0.3754    1.7054 C   0  0  2  0  0  0  0  0  0  0  0  0
   -0.3732   -0.5228    0.2070 C   0  0  0  0  0  0  0  0  0  0  0  0
    0.3157    0.4897   -0.5803 N   0  0  0  0  0  0  0  0  0  0  0  0
   -0.6729   -1.5685    2.4753 C   0  0  1  0  0  0  0  0  0  0  0  0
   -0.0647   -2.7715    2.0402 O   0  0  0  0  0  0  0  0  0  0  0  0
   -0.4163   -1.3662    3.9738 C   0  0  2  0  0  0  0  0  0  0  0  0
   -1.0291   -2.4031    4.7169 O   0  0  0  0  0  0  0  0  0  0  0  0
   -0.9416    0.0004    4.4340 C   0  0  1  0  0  0  0  0  0  0  0  0
   -0.5767    0.2348    5.8385 N   0  0  0  0  0  0  0  0  0  0  0  0
   -0.9915    6.0422    2.7092 C   0  0  2  0  0  0  0  0  0  0  0  0
   -0.6380    7.3980    2.5088 O   0  0  0  0  0  0  0  0  0  0  0  0
   -2.2195    5.8656    3.6009 C   0  0  2  0  0  0  0  0  0  0  0  0
   -3.1912    6.8796    3.4379 O   0  0  0  0  0  0  0  0  0  0  0  0
  2  1  1  0  0  0  0
  3  2  1  1  0  0  0
  3 30  1  0  0  0  0
  4  5  1  0  0  0  0
  4  3  1  0  0  0  0
  5 28  1  0  0  0  0
  5  6  1  6  0  0  0
  7  6  1  6  0  0  0
  8  7  1  0  0  0  0
  8  9  1  1  0  0  0
 10 11  1  6  0  0  0
 10  8  1  0  0  0  0
 12 10  1  0  0  0  0
 13 12  1  0  0  0  0
 13 15  1  0  0  0  0
 13 14  1  6  0  0  0
 15  7  1  0  0  0  0
 15 16  1  1  0  0  0
 17 16  1  6  0  0  0
 18 17  1  0  0  0  0
 19 20  1  6  0  0  0
 19 18  1  0  0  0  0
 20 21  1  0  0  0  0
 22 24  1  0  0  0  0
 22 19  1  0  0  0  0
 22 23  1  6  0  0  0
 24 25  1  1  0  0  0
 24 26  1  0  0  0  0
 26 17  1  0  0  0  0
 26 27  1  1  0  0  0
 28 29  1  1  0  0  0
 28 30  1  0  0  0  0
 30 31  1  1  0  0  0
M  END
>  <CHROM.1>
-58.01196931,179.30349621,-87.80477311,-84.77026792,-68.73782967,165.40768787
83.94477143,96.84084580,35.37446325,65.78769309,163.23296199,-23.96084364
61.97674602,-178.46014407,-53.08151713,173.89917050,0.28921991,2.57885937
3.08312235,1.86423926,0.52052069,0.06641714

>  <Name>
lig.pdb

>  <RI>
1.79691e+07

>  <Rbt.Current_Directory>
/home/itssahil/PROJECTS/Mol_Feturizer/New_Systems/rnas/2n0j

>  <Rbt.Executable>
rbdock ($Id: //depot/dev/client3/rdock/2013.1/src/exe/rbdock.cxx#4 $)

>  <Rbt.Library>
libRbt.so (2013.1, Build901 2013/11/27)

>  <Rbt.Parameter_File>
/export/apps/rDock/src/rDock_2013.1_src/data/scripts/dock_solv.prm

>  <Rbt.Receptor>
prm/blind_docking_20.prm

>  <SCORE>
-45.0823

>  <SCORE.INTER>
-52.5697

>  <SCORE.INTER.CONST>
1

>  <SCORE.INTER.POLAR>
-7.00873

>  <SCORE.INTER.ROT>
6

>  <SCORE.INTER.SOLV>
20.4495

>  <SCORE.INTER.VDW>
-26.1005

>  <SCORE.INTER.norm>
-1.6958

>  <SCORE.INTRA>
3.40404

>  <SCORE.INTRA.DIHEDRAL>
-6.34399

>  <SCORE.INTRA.DIHEDRAL.0>
28.0161

>  <SCORE.INTRA.POLAR>
1.01346

>  <SCORE.INTRA.POLAR.0>
-1.05798

>  <SCORE.INTRA.REPUL>
0.0125721

>  <SCORE.INTRA.REPUL.0>
0

>  <SCORE.INTRA.SOLV>
0.162843

>  <SCORE.INTRA.SOLV.lig_0>
-42.5945

>  <SCORE.INTRA.VDW>
2.98597

>  <SCORE.INTRA.VDW.0>
-5.13869

>  <SCORE.INTRA.norm>
0.109808

>  <SCORE.RESTR>
4.08337

>  <SCORE.RESTR.CAVITY>
4.08337

>  <SCORE.RESTR.norm>
0.131721

>  <SCORE.SYSTEM>
0

>  <SCORE.SYSTEM.CONST>
0

>  <SCORE.SYSTEM.DIHEDRAL>
0

>  <SCORE.SYSTEM.SOLV>
0

>  <SCORE.SYSTEM.norm>
0

>  <SCORE.heavy>
31

>  <SCORE.norm>
-1.45427

>  <RMSD>
5.864

$$$$
lig.pdb
 OpenBabel11021811453D
libRbt.so/2013.1/901 2013/11/27
 31 33  0  0  0  0  0  0  0  0999 V2000
   -3.9395    6.4461    6.6699 O   0  0  0  0  0  0  0  0  0  0  0  0
   -3.0156    5.4280    6.3379 C   0  0  0  0  0  0  0  0  0  0  0  0
   -1.9788    5.9215    5.3197 C   0  0  1  0  0  0  0  0  0  0  0  0
   -0.9706    4.9521    5.0814 O   0  0  0  0  0  0  0  0  0  0  0  0
   -0.4186    5.1451    3.7826 C   0  0  1  0  0  0  0  0  0  0  0  0
   -0.3534    3.9008    3.0961 O   0  0  0  0  0  0  0  0  0  0  0  0
    0.6768    3.0036    3.4790 C   0  0  2  0  0  0  0  0  0  0  0  0
    1.8953    3.2814    2.5845 C   0  0  1  0  0  0  0  0  0  0  0  0
    2.4547    4.5424    2.9168 O   0  0  0  0  0  0  0  0  0  0  0  0
    3.0152    2.2373    2.7096 C   0  0  2  0  0  0  0  0  0  0  0  0
    4.1026    2.5125    1.7578 N   0  0  0  0  0  0  0  0  0  0  0  0
    2.4520    0.8454    2.4478 C   0  0  0  0  0  0  0  0  0  0  0  0
    1.2972    0.5711    3.4033 C   0  0  2  0  0  0  0  0  0  0  0  0
    0.8115   -0.7926    3.1664 N   0  0  0  0  0  0  0  0  0  0  0  0
    0.1799    1.6191    3.2109 C   0  0  1  0  0  0  0  0  0  0  0  0
   -0.8516    1.2553    4.1410 O   0  0  0  0  0  0  0  0  0  0  0  0
   -2.1495    1.7945    3.9148 C   0  0  1  0  0  0  0  0  0  0  0  0
   -2.8161    1.0826    2.8757 O   0  0  0  0  0  0  0  0  0  0  0  0
   -3.1950   -0.2594    3.1737 C   0  0  2  0  0  0  0  0  0  0  0  0
   -3.8956   -0.8617    1.9486 C   0  0  0  0  0  0  0  0  0  0  0  0
   -3.0401   -0.8328    0.7709 N   0  0  0  0  0  0  0  0  0  0  0  0
   -4.1388   -0.3053    4.3898 C   0  0  1  0  0  0  0  0  0  0  0  0
   -4.4536   -1.6507    4.7015 O   0  0  0  0  0  0  0  0  0  0  0  0
   -3.4384    0.3568    5.5829 C   0  0  2  0  0  0  0  0  0  0  0  0
   -4.3140    0.4091    6.6936 O   0  0  0  0  0  0  0  0  0  0  0  0
   -2.9599    1.7679    5.2156 C   0  0  1  0  0  0  0  0  0  0  0  0
   -2.1806    2.3409    6.3224 N   0  0  0  0  0  0  0  0  0  0  0  0
   -1.3645    6.0955    3.0342 C   0  0  2  0  0  0  0  0  0  0  0  0
   -0.7481    7.3598    2.8754 O   0  0  0  0  0  0  0  0  0  0  0  0
   -2.5940    6.1347    3.9403 C   0  0  2  0  0  0  0  0  0  0  0  0
   -3.3440    7.3282    3.8298 O   0  0  0  0  0  0  0  0  0  0  0  0
  2  1  1  0  0  0  0
  3  2  1  1  0  0  0
  3 30  1  0  0  0  0
  4  5  1  0  0  0  0
  4  3  1  0  0  0  0
  5 28  1  0  0  0  0
  5  6  1  6  0  0  0
  7  6  1  6  0  0  0
  8  7  1  0  0  0  0
  8  9  1  1  0  0  0
 10 11  1  6  0  0  0
 10  8  1  0  0  0  0
 12 10  1  0  0  0  0
 13 12  1  0  0  0  0
 13 15  1  0  0  0  0
 13 14  1  6  0  0  0
 15  7  1  0  0  0  0
 15 16  1  1  0  0  0
 17 16  1  1  0  0  0
 18 17  1  0  0  0  0
 19 20  1  6  0  0  0
 19 18  1  0  0  0  0
 20 21  1  0  0  0  0
 22 24  1  0  0  0  0
 22 19  1  0  0  0  0
 22 23  1  1  0  0  0
 24 25  1  1  0  0  0
 24 26  1  0  0  0  0
 26 17  1  0  0  0  0
 26 27  1  1  0  0  0
 28 29  1  1  0  0  0
 28 30  1  0  0  0  0
 30 31  1  1  0  0  0
M  END
>  <CHROM.1>
58.23093756,174.13632447,-75.81351030,-91.37334630,-59.72398370,168.26441889
-66.15889424,77.34286441,78.16449292,58.17154322,70.78542276,-59.75252863
65.37020839,-70.85323147,60.24157424,173.26566995,-1.28406441,2.64173198
3.84966181,1.19332126,0.41255119,0.18310571

>  <Name>
lig.pdb

>  <RI>
3.33129e+07

>  <Rbt.Current_Directory>
/home/itssahil/PROJECTS/Mol_Feturizer/New_Systems/rnas/2n0j

>  <Rbt.Executable>
rbdock ($Id: //depot/dev/client3/rdock/2013.1/src/exe/rbdock.cxx#4 $)

>  <Rbt.Library>
libRbt.so (2013.1, Build901 2013/11/27)

>  <Rbt.Parameter_File>
/export/apps/rDock/src/rDock_2013.1_src/data/scripts/dock_solv.prm

>  <Rbt.Receptor>
prm/pocket_docking_4.prm

>  <SCORE>
-38.8467

>  <SCORE.INTER>
-30.2505

>  <SCORE.INTER.CONST>
1

>  <SCORE.INTER.POLAR>
-3.51128

>  <SCORE.INTER.ROT>
6

>  <SCORE.INTER.SOLV>
16.6295

>  <SCORE.INTER.VDW>
-21.6059

>  <SCORE.INTER.norm>
-0.975823

>  <SCORE.INTRA>
-8.59615

>  <SCORE.INTRA.DIHEDRAL>
-18.25

>  <SCORE.INTRA.DIHEDRAL.0>
28.0161

>  <SCORE.INTRA.POLAR>
-0.171389

>  <SCORE.INTRA.POLAR.0>
-1.05798

>  <SCORE.INTRA.REPUL>
0.000695828

>  <SCORE.INTRA.REPUL.0>
0

>  <SCORE.INTRA.SOLV>
0.0314289

>  <SCORE.INTRA.SOLV.lig_0>
-42.5945

>  <SCORE.INTRA.VDW>
1.0924

>  <SCORE.INTRA.VDW.0>
-5.13869

>  <SCORE.INTRA.norm>
-0.277295

>  <SCORE.RESTR>
0

>  <SCORE.RESTR.CAVITY>
0

>  <SCORE.RESTR.norm>
0

>  <SCORE.SYSTEM>
0

>  <SCORE.SYSTEM.CONST>
0

>  <SCORE.SYSTEM.DIHEDRAL>
0

>  <SCORE.SYSTEM.SOLV>
0

>  <SCORE.SYSTEM.norm>
0

>  <SCORE.heavy>
31

>  <SCORE.norm>
-1.25312

>  <RMSD>
5.875

$$$$
lig.pdb
 OpenBabel11021811453D
libRbt.so/2013.1/901 2013/11/27
 31 33  0  0  0  0  0  0  0  0999 V2000
    2.8323    5.9820   -0.0320 O   0  0  0  0  0  0  0  0  0  0  0  0
    2.6983    5.1842    1.1280 C   0  0  0  0  0  0  0  0  0  0  0  0
    1.2253    5.0099    1.5220 C   0  0  1  0  0  0  0  0  0  0  0  0
    0.7208    3.7431    1.1298 O   0  0  0  0  0  0  0  0  0  0  0  0
   -0.3584    3.3730    1.9826 C   0  0  1  0  0  0  0  0  0  0  0  0
   -0.1845    2.0328    2.4271 O   0  0  0  0  0  0  0  0  0  0  0  0
   -0.2958    1.0080    1.4522 C   0  0  2  0  0  0  0  0  0  0  0  0
   -1.7351    1.0294    0.9136 C   0  0  1  0  0  0  0  0  0  0  0  0
   -1.9395    2.2028    0.1423 O   0  0  0  0  0  0  0  0  0  0  0  0
   -2.0882   -0.1708    0.0220 C   0  0  2  0  0  0  0  0  0  0  0  0
   -3.5038   -0.1345   -0.3763 N   0  0  0  0  0  0  0  0  0  0  0  0
   -1.8047   -1.4680    0.7702 C   0  0  0  0  0  0  0  0  0  0  0  0
   -0.3497   -1.4923    1.2221 C   0  0  2  0  0  0  0  0  0  0  0  0
   -0.0914   -2.7726    1.8897 N   0  0  0  0  0  0  0  0  0  0  0  0
   -0.0545   -0.2929    2.1484 C   0  0  1  0  0  0  0  0  0  0  0  0
    1.3255   -0.4268    2.5213 O   0  0  0  0  0  0  0  0  0  0  0  0
    1.8339    0.5017    3.4732 C   0  0  1  0  0  0  0  0  0  0  0  0
    1.1047    0.4202    4.6948 O   0  0  0  0  0  0  0  0  0  0  0  0
    1.2776   -0.7747    5.4536 C   0  0  2  0  0  0  0  0  0  0  0  0
    0.4243   -0.6835    6.7257 C   0  0  0  0  0  0  0  0  0  0  0  0
   -0.8413   -0.0078    6.4776 N   0  0  0  0  0  0  0  0  0  0  0  0
    2.7572   -0.9751    5.8308 C   0  0  1  0  0  0  0  0  0  0  0  0
    2.9116   -2.1961    6.5322 O   0  0  0  0  0  0  0  0  0  0  0  0
    3.5944   -1.0017    4.5460 C   0  0  2  0  0  0  0  0  0  0  0  0
    4.9703   -1.0969    4.8636 O   0  0  0  0  0  0  0  0  0  0  0  0
    3.3290    0.2509    3.7001 C   0  0  1  0  0  0  0  0  0  0  0  0
    4.0378    0.1527    2.4162 N   0  0  0  0  0  0  0  0  0  0  0  0
   -0.3183    4.3231    3.1883 C   0  0  2  0  0  0  0  0  0  0  0  0
   -1.4087    5.2236    3.1265 O   0  0  0  0  0  0  0  0  0  0  0  0
    1.0384    5.0090    3.0359 C   0  0  2  0  0  0  0  0  0  0  0  0
    1.0931    6.2968    3.6169 O   0  0  0  0  0  0  0  0  0  0  0  0
  2  1  1  0  0  0  0
  3  2  1  1  0  0  0
  3 30  1  0  0  0  0
  4  5  1  0  0  0  0
  4  3  1  0  0  0  0
  5 28  1  0  0  0  0
  5  6  1  1  0  0  0
  7  6  1  1  0  0  0
  8  7  1  0  0  0  0
  8  9  1  6  0  0  0
 10 11  1  1  0  0  0
 10  8  1  0  0  0  0
 12 10  1  0  0  0  0
 13 12  1  0  0  0  0
 13 15  1  0  0  0  0
 13 14  1  1  0  0  0
 15  7  1  0  0  0  0
 15 16  1  6  0  0  0
 17 16  1  6  0  0  0
 18 17  1  0  0  0  0
 19 20  1  1  0  0  0
 19 18  1  0  0  0  0
 20 21  1  0  0  0  0
 22 24  1  0  0  0  0
 22 19  1  0  0  0  0
 22 23  1  6  0  0  0
 24 25  1  1  0  0  0
 24 26  1  0  0  0  0
 26 17  1  0  0  0  0
 26 27  1  6  0  0  0
 28 29  1  6  0  0  0
 28 30  1  0  0  0  0
 30 31  1  6  0  0  0
M  END
>  <CHROM.1>
66.28060799,101.66469903,-67.60096136,-63.67833286,-164.74115236,-53.86948511
14.59326801,64.22590144,59.31107026,36.71392572,-149.33676736,-54.33254673
70.97045653,46.76737286,-174.67787297,59.95755458,0.71503813,1.25066559,2.79751907
-1.93911680,0.68954592,2.84482963

>  <Name>
lig.pdb

>  <RI>
1.55206e+07

>  <Rbt.Current_Directory>
/home/itssahil/PROJECTS/Mol_Feturizer/New_Systems/rnas/2n0j

>  <Rbt.Executable>
rbdock ($Id: //depot/dev/client3/rdock/2013.1/src/exe/rbdock.cxx#4 $)

>  <Rbt.Library>
libRbt.so (2013.1, Build901 2013/11/27)

>  <Rbt.Parameter_File>
/export/apps/rDock/src/rDock_2013.1_src/data/scripts/dock_solv.prm

>  <Rbt.Receptor>
prm/blind_docking_80.prm

>  <SCORE>
-36.2505

>  <SCORE.INTER>
-38.2328

>  <SCORE.INTER.CONST>
1

>  <SCORE.INTER.POLAR>
-5.58555

>  <SCORE.INTER.ROT>
6

>  <SCORE.INTER.SOLV>
24.9955

>  <SCORE.INTER.VDW>
-22.8018

>  <SCORE.INTER.norm>
-1.23331

>  <SCORE.INTRA>
0.0369056

>  <SCORE.INTRA.DIHEDRAL>
-13.7398

>  <SCORE.INTRA.DIHEDRAL.0>
28.0161

>  <SCORE.INTRA.POLAR>
0.801384

>  <SCORE.INTRA.POLAR.0>
-1.05798

>  <SCORE.INTRA.REPUL>
0

>  <SCORE.INTRA.REPUL.0>
0

>  <SCORE.INTRA.SOLV>
-0.895688

>  <SCORE.INTRA.SOLV.lig_0>
-42.5945

>  <SCORE.INTRA.VDW>
4.62995

>  <SCORE.INTRA.VDW.0>
-5.13869

>  <SCORE.INTRA.norm>
0.0011905

>  <SCORE.RESTR>
1.94532

>  <SCORE.RESTR.CAVITY>
1.94532

>  <SCORE.RESTR.norm>
0.0627524

>  <SCORE.SYSTEM>
0

>  <SCORE.SYSTEM.CONST>
0

>  <SCORE.SYSTEM.DIHEDRAL>
0

>  <SCORE.SYSTEM.SOLV>
0

>  <SCORE.SYSTEM.norm>
0

>  <SCORE.heavy>
31

>  <SCORE.norm>
-1.16937

>  <RMSD>
5.880

$$$$
lig.pdb
 OpenBabel11021811453D
libRbt.so/2013.1/901 2013/11/27
 31 33  0  0  0  0  0  0  0  0999 V2000
    1.5234    7.0242    1.1747 O   0  0  0  0  0  0  0  0  0  0  0  0
    1.5979    6.1224    2.2615 C   0  0  0  0  0  0  0  0  0  0  0  0
    0.5043    5.0491    2.1760 C   0  0  1  0  0  0  0  0  0  0  0  0
    0.7441    4.1346    1.1181 O   0  0  0  0  0  0  0  0  0  0  0  0
    0.1265    2.8861    1.4155 C   0  0  1  0  0  0  0  0  0  0  0  0
    1.0459    1.8255    1.1837 O   0  0  0  0  0  0  0  0  0  0  0  0
    0.5027    0.5651    0.8241 C   0  0  2  0  0  0  0  0  0  0  0  0
   -0.7498    0.8219   -0.0288 C   0  0  1  0  0  0  0  0  0  0  0  0
   -0.3700    1.3566   -1.2871 O   0  0  0  0  0  0  0  0  0  0  0  0
   -1.5905   -0.4347   -0.3012 C   0  0  2  0  0  0  0  0  0  0  0  0
   -2.8191   -0.0989   -1.0373 N   0  0  0  0  0  0  0  0  0  0  0  0
   -1.9565   -1.1044    1.0181 C   0  0  0  0  0  0  0  0  0  0  0  0
   -0.6889   -1.4166    1.8040 C   0  0  2  0  0  0  0  0  0  0  0  0
   -1.0672   -2.1083    3.0410 N   0  0  0  0  0  0  0  0  0  0  0  0
    0.0990   -0.1201    2.0901 C   0  0  1  0  0  0  0  0  0  0  0  0
    1.2519   -0.5298    2.8416 O   0  0  0  0  0  0  0  0  0  0  0  0
    1.6596    0.3113    3.9153 C   0  0  1  0  0  0  0  0  0  0  0  0
    0.8180    0.1230    5.0497 O   0  0  0  0  0  0  0  0  0  0  0  0
    0.9275   -1.1340    5.7141 C   0  0  2  0  0  0  0  0  0  0  0  0
   -0.0439   -1.1546    6.9018 C   0  0  0  0  0  0  0  0  0  0  0  0
   -1.3842   -1.5512    6.4943 N   0  0  0  0  0  0  0  0  0  0  0  0
    2.3659   -1.3671    6.2122 C   0  0  1  0  0  0  0  0  0  0  0  0
    2.4627   -2.6450    6.8157 O   0  0  0  0  0  0  0  0  0  0  0  0
    3.3220   -1.2810    5.0160 C   0  0  2  0  0  0  0  0  0  0  0  0
    4.6621   -1.4041    5.4542 O   0  0  0  0  0  0  0  0  0  0  0  0
    3.1282    0.0411    4.2614 C   0  0  1  0  0  0  0  0  0  0  0  0
    3.9570    0.0560    3.0475 N   0  0  0  0  0  0  0  0  0  0  0  0
   -0.2528    2.9208    2.9031 C   0  0  2  0  0  0  0  0  0  0  0  0
   -1.6587    3.0152    3.0381 O   0  0  0  0  0  0  0  0  0  0  0  0
    0.4854    4.1574    3.4135 C   0  0  2  0  0  0  0  0  0  0  0  0
   -0.1231    4.7587    4.5392 O   0  0  0  0  0  0  0  0  0  0  0  0
  2  1  1  0  0  0  0
  3  2  1  1  0  0  0
  3 30  1  0  0  0  0
  4  5  1  0  0  0  0
  4  3  1  0  0  0  0
  5 28  1  0  0  0  0
  5  6  1  1  0  0  0
  7  6  1  1  0  0  0
  8  7  1  0  0  0  0
  8  9  1  6  0  0  0
 10 11  1  1  0  0  0
 10  8  1  0  0  0  0
 12 10  1  0  0  0  0
 13 12  1  0  0  0  0
 13 15  1  0  0  0  0
 13 14  1  1  0  0  0
 15  7  1  0  0  0  0
 15 16  1  6  0  0  0
 17 16  1  6  0  0  0
 18 17  1  0  0  0  0
 19 20  1  1  0  0  0
 19 18  1  0  0  0  0
 20 21  1  0  0  0  0
 22 24  1  0  0  0  0
 22 19  1  0  0  0  0
 22 23  1  6  0  0  0
 24 25  1  1  0  0  0
 24 26  1  0  0  0  0
 26 17  1  0  0  0  0
 26 27  1  6  0  0  0
 28 29  1  6  0  0  0
 28 30  1  0  0  0  0
 30 31  1  1  0  0  0
M  END
>  <CHROM.1>
178.23834059,70.45678358,-151.69550360,34.38598569,53.06942988,-92.96738281
-75.81575280,98.83244987,77.44799260,84.73259360,62.96927322,-175.24785692
121.25861481,162.75879451,-53.85854375,63.72334430,0.59373753,0.93499102
2.94314031,-1.98065882,0.90446764,2.77702948

>  <Name>
lig.pdb

>  <RI>
9.20816e+06

>  <Rbt.Current_Directory>
/home/itssahil/PROJECTS/Mol_Feturizer/New_Systems/rnas/2n0j

>  <Rbt.Executable>
rbdock ($Id: //depot/dev/client3/rdock/2013.1/src/exe/rbdock.cxx#4 $)

>  <Rbt.Library>
libRbt.so (2013.1, Build901 2013/11/27)

>  <Rbt.Parameter_File>
/export/apps/rDock/src/rDock_2013.1_src/data/scripts/dock_solv.prm

>  <Rbt.Receptor>
prm/blind_docking_100.prm

>  <SCORE>
-28.0614

>  <SCORE.INTER>
-35.3925

>  <SCORE.INTER.CONST>
1

>  <SCORE.INTER.POLAR>
-4.57637

>  <SCORE.INTER.ROT>
6

>  <SCORE.INTER.SOLV>
24.2451

>  <SCORE.INTER.VDW>
-24.0221

>  <SCORE.INTER.norm>
-1.14169

>  <SCORE.INTRA>
5.50866

>  <SCORE.INTRA.DIHEDRAL>
-1.59216

>  <SCORE.INTRA.DIHEDRAL.0>
28.0161

>  <SCORE.INTRA.POLAR>
1.04508

>  <SCORE.INTRA.POLAR.0>
-1.05798

>  <SCORE.INTRA.REPUL>
0

>  <SCORE.INTRA.REPUL.0>
0

>  <SCORE.INTRA.SOLV>
0.0285209

>  <SCORE.INTRA.SOLV.lig_0>
-42.5945

>  <SCORE.INTRA.VDW>
2.7372

>  <SCORE.INTRA.VDW.0>
-5.13869

>  <SCORE.INTRA.norm>
0.177699

>  <SCORE.RESTR>
1.8225

>  <SCORE.RESTR.CAVITY>
1.8225

>  <SCORE.RESTR.norm>
0.0587902

>  <SCORE.SYSTEM>
0

>  <SCORE.SYSTEM.CONST>
0

>  <SCORE.SYSTEM.DIHEDRAL>
0

>  <SCORE.SYSTEM.SOLV>
0

>  <SCORE.SYSTEM.norm>
0

>  <SCORE.heavy>
31

>  <SCORE.norm>
-0.905205

>  <RMSD>
5.884

$$$$
lig.pdb
 OpenBabel11021811453D
libRbt.so/2013.1/901 2013/11/27
 31 33  0  0  0  0  0  0  0  0999 V2000
    2.8598    6.0450   -0.1132 O   0  0  0  0  0  0  0  0  0  0  0  0
    2.6806    5.2745    1.0592 C   0  0  0  0  0  0  0  0  0  0  0  0
    1.1927    5.0519    1.3623 C   0  0  1  0  0  0  0  0  0  0  0  0
    0.7707    3.7459    1.0028 O   0  0  0  0  0  0  0  0  0  0  0  0
   -0.3480    3.3681    1.7994 C   0  0  1  0  0  0  0  0  0  0  0  0
   -0.1483    2.0603    2.3226 O   0  0  0  0  0  0  0  0  0  0  0  0
   -0.2684    0.9754    1.4163 C   0  0  2  0  0  0  0  0  0  0  0  0
   -1.7004    0.9885    0.8583 C   0  0  1  0  0  0  0  0  0  0  0  0
   -1.8721    2.1118    0.0085 O   0  0  0  0  0  0  0  0  0  0  0  0
   -2.0666   -0.2613    0.0434 C   0  0  2  0  0  0  0  0  0  0  0  0
   -3.4764   -0.2246   -0.3751 N   0  0  0  0  0  0  0  0  0  0  0  0
   -1.8181   -1.5112    0.8796 C   0  0  0  0  0  0  0  0  0  0  0  0
   -0.3693   -1.5332    1.3513 C   0  0  2  0  0  0  0  0  0  0  0  0
   -0.1446   -2.7711    2.1055 N   0  0  0  0  0  0  0  0  0  0  0  0
   -0.0614   -0.2808    2.2001 C   0  0  1  0  0  0  0  0  0  0  0  0
    1.3111   -0.4159    2.5993 O   0  0  0  0  0  0  0  0  0  0  0  0
    1.8381    0.5864    3.4620 C   0  0  1  0  0  0  0  0  0  0  0  0
    1.0560    0.6911    4.6486 O   0  0  0  0  0  0  0  0  0  0  0  0
    1.1217   -0.4148    5.5465 C   0  0  2  0  0  0  0  0  0  0  0  0
    0.2248   -0.1257    6.7575 C   0  0  0  0  0  0  0  0  0  0  0  0
   -1.1492    0.1429    6.3578 N   0  0  0  0  0  0  0  0  0  0  0  0
    2.5690   -0.6555    6.0145 C   0  0  1  0  0  0  0  0  0  0  0  0
    2.6170   -1.7929    6.8575 O   0  0  0  0  0  0  0  0  0  0  0  0
    3.4546   -0.8811    4.7827 C   0  0  2  0  0  0  0  0  0  0  0  0
    4.8076   -1.0184    5.1746 O   0  0  0  0  0  0  0  0  0  0  0  0
    3.3038    0.2772    3.7874 C   0  0  1  0  0  0  0  0  0  0  0  0
    4.0567   -0.0117    2.5585 N   0  0  0  0  0  0  0  0  0  0  0  0
   -0.4317    4.3761    2.9549 C   0  0  2  0  0  0  0  0  0  0  0  0
   -1.5525    5.2216    2.7743 O   0  0  0  0  0  0  0  0  0  0  0  0
    0.9019    5.1154    2.8584 C   0  0  2  0  0  0  0  0  0  0  0  0
    0.8616    6.4309    3.3751 O   0  0  0  0  0  0  0  0  0  0  0  0
  2  1  1  0  0  0  0
  3  2  1  1  0  0  0
  3 30  1  0  0  0  0
  4  5  1  0  0  0  0
  4  3  1  0  0  0  0
  5 28  1  0  0  0  0
  5  6  1  1  0  0  0
  7  6  1  1  0  0  0
  8  7  1  0  0  0  0
  8  9  1  6  0  0  0
 10 11  1  1  0  0  0
 10  8  1  0  0  0  0
 12 10  1  0  0  0  0
 13 12  1  0  0  0  0
 13 15  1  0  0  0  0
 13 14  1  1  0  0  0
 15  7  1  0  0  0  0
 15 16  1  6  0  0  0
 17 16  1  6  0  0  0
 18 17  1  0  0  0  0
 19 20  1  1  0  0  0
 19 18  1  0  0  0  0
 20 21  1  0  0  0  0
 22 24  1  0  0  0  0
 22 19  1  0  0  0  0
 22 23  1  1  0  0  0
 24 25  1  1  0  0  0
 24 26  1  0  0  0  0
 26 17  1  0  0  0  0
 26 27  1  6  0  0  0
 28 29  1  6  0  0  0
 28 30  1  0  0  0  0
 30 31  1  6  0  0  0
M  END
>  <CHROM.1>
-175.90837227,102.91519870,-73.14030992,-61.00720696,-157.08336767,-173.61723310
135.25268921,62.36429740,56.37082403,56.97211108,-171.76560936,59.29278107
178.44375396,42.44001308,64.11220162,165.52311835,0.65194332,1.31759551,2.78907966
-1.91664714,0.70442930,2.79482072

>  <Name>
lig.pdb

>  <RI>
1.79691e+07

>  <Rbt.Current_Directory>
/home/itssahil/PROJECTS/Mol_Feturizer/New_Systems/rnas/2n0j

>  <Rbt.Executable>
rbdock ($Id: //depot/dev/client3/rdock/2013.1/src/exe/rbdock.cxx#4 $)

>  <Rbt.Library>
libRbt.so (2013.1, Build901 2013/11/27)

>  <Rbt.Parameter_File>
/export/apps/rDock/src/rDock_2013.1_src/data/scripts/dock_solv.prm

>  <Rbt.Receptor>
prm/blind_docking_20.prm

>  <SCORE>
-23.2297

>  <SCORE.INTER>
-24.9211

>  <SCORE.INTER.CONST>
1

>  <SCORE.INTER.POLAR>
-4.75088

>  <SCORE.INTER.ROT>
6

>  <SCORE.INTER.SOLV>
24.1047

>  <SCORE.INTER.VDW>
-16.4127

>  <SCORE.INTER.norm>
-0.803905

>  <SCORE.INTRA>
-0.316943

>  <SCORE.INTRA.DIHEDRAL>
-15.0034

>  <SCORE.INTRA.DIHEDRAL.0>
28.0161

>  <SCORE.INTRA.POLAR>
1.04491

>  <SCORE.INTRA.POLAR.0>
-1.05798

>  <SCORE.INTRA.REPUL>
0

>  <SCORE.INTRA.REPUL.0>
0

>  <SCORE.INTRA.SOLV>
-1.0652

>  <SCORE.INTRA.SOLV.lig_0>
-42.5945

>  <SCORE.INTRA.VDW>
4.16466

>  <SCORE.INTRA.VDW.0>
-5.13869

>  <SCORE.INTRA.norm>
-0.010224

>  <SCORE.RESTR>
2.00833

>  <SCORE.RESTR.CAVITY>
2.00833

>  <SCORE.RESTR.norm>
0.0647849

>  <SCORE.SYSTEM>
0

>  <SCORE.SYSTEM.CONST>
0

>  <SCORE.SYSTEM.DIHEDRAL>
0

>  <SCORE.SYSTEM.SOLV>
0

>  <SCORE.SYSTEM.norm>
0

>  <SCORE.heavy>
31

>  <SCORE.norm>
-0.749344

>  <RMSD>
5.884

$$$$
lig.pdb
 OpenBabel11021811453D
libRbt.so/2013.1/901 2013/11/27
 31 33  0  0  0  0  0  0  0  0999 V2000
    1.2703    7.2365    2.9824 O   0  0  0  0  0  0  0  0  0  0  0  0
    1.6438    6.2114    2.0824 C   0  0  0  0  0  0  0  0  0  0  0  0
    0.5733    5.1144    2.0058 C   0  0  1  0  0  0  0  0  0  0  0  0
    0.8881    4.1377    1.0261 O   0  0  0  0  0  0  0  0  0  0  0  0
    0.2731    2.8997    1.3697 C   0  0  1  0  0  0  0  0  0  0  0  0
    1.2203    1.8438    1.2615 O   0  0  0  0  0  0  0  0  0  0  0  0
    0.7283    0.5699    0.8770 C   0  0  2  0  0  0  0  0  0  0  0  0
   -0.5211    0.7933    0.0102 C   0  0  1  0  0  0  0  0  0  0  0  0
   -0.1441    1.3593   -1.2351 O   0  0  0  0  0  0  0  0  0  0  0  0
   -1.3118   -0.4889   -0.2912 C   0  0  2  0  0  0  0  0  0  0  0  0
   -2.5418   -0.1873   -1.0397 N   0  0  0  0  0  0  0  0  0  0  0  0
   -1.6710   -1.1901    1.0135 C   0  0  0  0  0  0  0  0  0  0  0  0
   -0.4036   -1.4675    1.8127 C   0  0  2  0  0  0  0  0  0  0  0  0
   -0.7732   -2.1900    3.0347 N   0  0  0  0  0  0  0  0  0  0  0  0
    0.3327   -0.1475    2.1277 C   0  0  1  0  0  0  0  0  0  0  0  0
    1.4894   -0.5259    2.8895 O   0  0  0  0  0  0  0  0  0  0  0  0
    1.8007    0.2634    4.0326 C   0  0  1  0  0  0  0  0  0  0  0  0
    0.6101    0.6885    4.6901 O   0  0  0  0  0  0  0  0  0  0  0  0
   -0.1499   -0.3294    5.3381 C   0  0  2  0  0  0  0  0  0  0  0  0
   -1.3849    0.3096    5.9871 C   0  0  0  0  0  0  0  0  0  0  0  0
   -1.0180    1.2140    7.0675 N   0  0  0  0  0  0  0  0  0  0  0  0
    0.6929   -1.0435    6.4110 C   0  0  1  0  0  0  0  0  0  0  0  0
   -0.0637   -2.0869    6.9986 O   0  0  0  0  0  0  0  0  0  0  0  0
    1.9499   -1.6200    5.7476 C   0  0  2  0  0  0  0  0  0  0  0  0
    2.7895   -2.2077    6.7238 O   0  0  0  0  0  0  0  0  0  0  0  0
    2.7081   -0.5275    4.9817 C   0  0  1  0  0  0  0  0  0  0  0  0
    3.8370   -1.1164    4.2473 N   0  0  0  0  0  0  0  0  0  0  0  0
   -0.1928    3.0242    2.8276 C   0  0  2  0  0  0  0  0  0  0  0  0
   -1.6054    3.1007    2.8755 O   0  0  0  0  0  0  0  0  0  0  0  0
    0.4958    4.3051    3.2964 C   0  0  2  0  0  0  0  0  0  0  0  0
   -0.1863    4.9669    4.3433 O   0  0  0  0  0  0  0  0  0  0  0  0
  2  1  1  0  0  0  0
  3  2  1  1  0  0  0
  3 30  1  0  0  0  0
  4  5  1  0  0  0  0
  4  3  1  0  0  0  0
  5 28  1  0  0  0  0
  5  6  1  1  0  0  0
  7  6  1  1  0  0  0
  8  7  1  0  0  0  0
  8  9  1  6  0  0  0
 10 11  1  1  0  0  0
 10  8  1  0  0  0  0
 12 10  1  0  0  0  0
 13 12  1  0  0  0  0
 13 15  1  0  0  0  0
 13 14  1  1  0  0  0
 15  7  1  0  0  0  0
 15 16  1  6  0  0  0
 17 16  1  6  0  0  0
 18 17  1  0  0  0  0
 19 20  1  1  0  0  0
 19 18  1  0  0  0  0
 20 21  1  0  0  0  0
 22 24  1  0  0  0  0
 22 19  1  0  0  0  0
 22 23  1  6  0  0  0
 24 25  1  1  0  0  0
 24 26  1  0  0  0  0
 26 17  1  0  0  0  0
 26 27  1  6  0  0  0
 28 29  1  6  0  0  0
 28 30  1  0  0  0  0
 30 31  1  1  0  0  0
M  END
>  <CHROM.1>
-177.71854882,175.22494153,-148.01352666,28.49198319,61.42371038,28.11848438
49.94727779,102.85388454,36.64728126,-65.80882460,-143.89624987,-173.13851329
62.28722307,68.11650748,65.56010411,-38.45247789,0.36206908,1.07155288,3.11146899
-1.93523678,1.24358472,2.85086518

>  <Name>
lig.pdb

>  <RI>
1.55206e+07

>  <Rbt.Current_Directory>
/home/itssahil/PROJECTS/Mol_Feturizer/New_Systems/rnas/2n0j

>  <Rbt.Executable>
rbdock ($Id: //depot/dev/client3/rdock/2013.1/src/exe/rbdock.cxx#4 $)

>  <Rbt.Library>
libRbt.so (2013.1, Build901 2013/11/27)

>  <Rbt.Parameter_File>
/export/apps/rDock/src/rDock_2013.1_src/data/scripts/dock_solv.prm

>  <Rbt.Receptor>
prm/blind_docking_80.prm

>  <SCORE>
-25.1841

>  <SCORE.INTER>
-34.1167

>  <SCORE.INTER.CONST>
1

>  <SCORE.INTER.POLAR>
-4.58678

>  <SCORE.INTER.ROT>
6

>  <SCORE.INTER.SOLV>
22.8373

>  <SCORE.INTER.VDW>
-22.6676

>  <SCORE.INTER.norm>
-1.10054

>  <SCORE.INTRA>
4.96348

>  <SCORE.INTRA.DIHEDRAL>
-4.20398

>  <SCORE.INTRA.DIHEDRAL.0>
28.0161

>  <SCORE.INTRA.POLAR>
0.512105

>  <SCORE.INTRA.POLAR.0>
-1.05798

>  <SCORE.INTRA.REPUL>
0

>  <SCORE.INTRA.REPUL.0>
0

>  <SCORE.INTRA.SOLV>
1.39702

>  <SCORE.INTRA.SOLV.lig_0>
-42.5945

>  <SCORE.INTRA.VDW>
4.6258

>  <SCORE.INTRA.VDW.0>
-5.13869

>  <SCORE.INTRA.norm>
0.160112

>  <SCORE.RESTR>
3.96913

>  <SCORE.RESTR.CAVITY>
3.96913

>  <SCORE.RESTR.norm>
0.128036

>  <SCORE.SYSTEM>
0

>  <SCORE.SYSTEM.CONST>
0

>  <SCORE.SYSTEM.DIHEDRAL>
0

>  <SCORE.SYSTEM.SOLV>
0

>  <SCORE.SYSTEM.norm>
0

>  <SCORE.heavy>
31

>  <SCORE.norm>
-0.812389

>  <RMSD>
5.888

$$$$
lig.pdb
 OpenBabel11021811453D
libRbt.so/2013.1/901 2013/11/27
 31 33  0  0  0  0  0  0  0  0999 V2000
    2.6520    6.3438    2.9000 O   0  0  0  0  0  0  0  0  0  0  0  0
    2.5549    4.9701    2.5779 C   0  0  0  0  0  0  0  0  0  0  0  0
    1.2387    4.6552    1.8542 C   0  0  1  0  0  0  0  0  0  0  0  0
    1.1398    3.2815    1.5132 O   0  0  0  0  0  0  0  0  0  0  0  0
   -0.2319    2.9092    1.4201 C   0  0  1  0  0  0  0  0  0  0  0  0
   -0.4541    1.7017    2.1388 O   0  0  0  0  0  0  0  0  0  0  0  0
   -0.5913    0.5118    1.3783 C   0  0  2  0  0  0  0  0  0  0  0  0
   -1.9008    0.6152    0.5804 C   0  0  1  0  0  0  0  0  0  0  0  0
   -1.7691    1.6043   -0.4285 O   0  0  0  0  0  0  0  0  0  0  0  0
   -2.3170   -0.6914   -0.1122 C   0  0  2  0  0  0  0  0  0  0  0  0
   -3.6230   -0.5459   -0.7735 N   0  0  0  0  0  0  0  0  0  0  0  0
   -2.3904   -1.8163    0.9137 C   0  0  0  0  0  0  0  0  0  0  0  0
   -1.0524   -1.9439    1.6317 C   0  0  2  0  0  0  0  0  0  0  0  0
   -1.1345   -3.0668    2.5719 N   0  0  0  0  0  0  0  0  0  0  0  0
   -0.6980   -0.6222    2.3468 C   0  0  1  0  0  0  0  0  0  0  0  0
    0.5600   -0.8626    2.9957 O   0  0  0  0  0  0  0  0  0  0  0  0
    1.0773    0.1799    3.8156 C   0  0  1  0  0  0  0  0  0  0  0  0
    0.4350    0.1854    5.0876 O   0  0  0  0  0  0  0  0  0  0  0  0
    0.7229   -0.9179    5.9439 C   0  0  2  0  0  0  0  0  0  0  0  0
   -0.0493   -0.7417    7.2582 C   0  0  0  0  0  0  0  0  0  0  0  0
   -0.3289    0.6601    7.5345 N   0  0  0  0  0  0  0  0  0  0  0  0
    2.2328   -1.0075    6.2336 C   0  0  1  0  0  0  0  0  0  0  0  0
    2.5000   -2.1433    7.0367 O   0  0  0  0  0  0  0  0  0  0  0  0
    2.9845   -1.1215    4.9016 C   0  0  2  0  0  0  0  0  0  0  0  0
    4.3814   -1.1175    5.1292 O   0  0  0  0  0  0  0  0  0  0  0  0
    2.5956    0.0260    3.9598 C   0  0  1  0  0  0  0  0  0  0  0  0
    3.2234   -0.1653    2.6446 N   0  0  0  0  0  0  0  0  0  0  0  0
   -1.0452    4.0442    2.0592 C   0  0  2  0  0  0  0  0  0  0  0  0
   -1.7466    4.7558    1.0566 O   0  0  0  0  0  0  0  0  0  0  0  0
    0.0276    4.8819    2.7534 C   0  0  2  0  0  0  0  0  0  0  0  0
   -0.3230    6.2435    2.9036 O   0  0  0  0  0  0  0  0  0  0  0  0
  2  1  1  0  0  0  0
  3  2  1  1  0  0  0
  3 30  1  0  0  0  0
  4  5  1  0  0  0  0
  4  3  1  0  0  0  0
  5 28  1  0  0  0  0
  5  6  1  1  0  0  0
  7  6  1  1  0  0  0
  8  7  1  0  0  0  0
  8  9  1  6  0  0  0
 10 11  1  1  0  0  0
 10  8  1  0  0  0  0
 12 10  1  0  0  0  0
 13 12  1  0  0  0  0
 13 15  1  0  0  0  0
 13 14  1  1  0  0  0
 15  7  1  0  0  0  0
 15 16  1  6  0  0  0
 17 16  1  6  0  0  0
 18 17  1  0  0  0  0
 19 20  1  1  0  0  0
 19 18  1  0  0  0  0
 20 21  1  0  0  0  0
 22 24  1  0  0  0  0
 22 19  1  0  0  0  0
 22 23  1  1  0  0  0
 24 25  1  1  0  0  0
 24 26  1  0  0  0  0
 26 17  1  0  0  0  0
 26 27  1  6  0  0  0
 28 29  1  6  0  0  0
 28 30  1  0  0  0  0
 30 31  1  6  0  0  0
M  END
>  <CHROM.1>
-63.36724205,179.31402329,-103.30289442,-67.45281747,-88.46641764,67.15163163
-60.53928474,63.46992295,79.40155235,-26.07751233,30.99024840,36.47684245
78.09593467,37.41986508,171.83603192,-75.52506283,0.28781451,1.01929024,2.97403045
-2.04157518,0.83881400,2.83409734

>  <Name>
lig.pdb

>  <RI>
9.20816e+06

>  <Rbt.Current_Directory>
/home/itssahil/PROJECTS/Mol_Feturizer/New_Systems/rnas/2n0j

>  <Rbt.Executable>
rbdock ($Id: //depot/dev/client3/rdock/2013.1/src/exe/rbdock.cxx#4 $)

>  <Rbt.Library>
libRbt.so (2013.1, Build901 2013/11/27)

>  <Rbt.Parameter_File>
/export/apps/rDock/src/rDock_2013.1_src/data/scripts/dock_solv.prm

>  <Rbt.Receptor>
prm/blind_docking_100.prm

>  <SCORE>
-30.7915

>  <SCORE.INTER>
-35.7396

>  <SCORE.INTER.CONST>
1

>  <SCORE.INTER.POLAR>
-5.16271

>  <SCORE.INTER.ROT>
6

>  <SCORE.INTER.SOLV>
23.1029

>  <SCORE.INTER.VDW>
-21.9183

>  <SCORE.INTER.norm>
-1.15289

>  <SCORE.INTRA>
3.59859

>  <SCORE.INTRA.DIHEDRAL>
-4.98472

>  <SCORE.INTRA.DIHEDRAL.0>
28.0161

>  <SCORE.INTRA.POLAR>
0.78314

>  <SCORE.INTRA.POLAR.0>
-1.05798

>  <SCORE.INTRA.REPUL>
0

>  <SCORE.INTRA.REPUL.0>
0

>  <SCORE.INTRA.SOLV>
0.363767

>  <SCORE.INTRA.SOLV.lig_0>
-42.5945

>  <SCORE.INTRA.VDW>
3.2464

>  <SCORE.INTRA.VDW.0>
-5.13869

>  <SCORE.INTRA.norm>
0.116084

>  <SCORE.RESTR>
1.3495

>  <SCORE.RESTR.CAVITY>
1.3495

>  <SCORE.RESTR.norm>
0.0435322

>  <SCORE.SYSTEM>
0

>  <SCORE.SYSTEM.CONST>
0

>  <SCORE.SYSTEM.DIHEDRAL>
0

>  <SCORE.SYSTEM.SOLV>
0

>  <SCORE.SYSTEM.norm>
0

>  <SCORE.heavy>
31

>  <SCORE.norm>
-0.993274

>  <RMSD>
5.891

$$$$
lig.pdb
 OpenBabel11021811453D
libRbt.so/2013.1/901 2013/11/27
 31 33  0  0  0  0  0  0  0  0999 V2000
    2.7278    6.6036    2.8140 O   0  0  0  0  0  0  0  0  0  0  0  0
    2.6329    5.2329    2.4790 C   0  0  0  0  0  0  0  0  0  0  0  0
    1.2753    4.9033    1.8436 C   0  0  1  0  0  0  0  0  0  0  0  0
    1.1938    3.5428    1.4494 O   0  0  0  0  0  0  0  0  0  0  0  0
   -0.1686    3.1271    1.4437 C   0  0  1  0  0  0  0  0  0  0  0  0
   -0.2964    1.8830    2.1219 O   0  0  0  0  0  0  0  0  0  0  0  0
   -0.4672    0.7242    1.3215 C   0  0  2  0  0  0  0  0  0  0  0  0
   -1.8433    0.8223    0.6442 C   0  0  1  0  0  0  0  0  0  0  0  0
   -1.8263    1.8584   -0.3251 O   0  0  0  0  0  0  0  0  0  0  0  0
   -2.2831   -0.4647   -0.0702 C   0  0  2  0  0  0  0  0  0  0  0  0
   -3.6450   -0.3302   -0.6099 N   0  0  0  0  0  0  0  0  0  0  0  0
   -2.2370   -1.6353    0.9047 C   0  0  0  0  0  0  0  0  0  0  0  0
   -0.8388   -1.7534    1.4990 C   0  0  2  0  0  0  0  0  0  0  0  0
   -0.8089   -2.9186    2.3895 N   0  0  0  0  0  0  0  0  0  0  0  0
   -0.4591   -0.4542    2.2417 C   0  0  1  0  0  0  0  0  0  0  0  0
    0.8565   -0.6842    2.7688 O   0  0  0  0  0  0  0  0  0  0  0  0
    1.3626    0.2737    3.6923 C   0  0  1  0  0  0  0  0  0  0  0  0
    0.6676    0.1921    4.9336 O   0  0  0  0  0  0  0  0  0  0  0  0
    0.8937   -0.9848    5.7065 C   0  0  2  0  0  0  0  0  0  0  0  0
    0.0710   -0.8964    6.9988 C   0  0  0  0  0  0  0  0  0  0  0  0
    0.6564    0.0412    7.9465 N   0  0  0  0  0  0  0  0  0  0  0  0
    2.3875   -1.1376    6.0481 C   0  0  1  0  0  0  0  0  0  0  0  0
    2.5944   -2.3420    6.7644 O   0  0  0  0  0  0  0  0  0  0  0  0
    3.1920   -1.1621    4.7425 C   0  0  2  0  0  0  0  0  0  0  0  0
    4.5777   -1.2136    5.0255 O   0  0  0  0  0  0  0  0  0  0  0  0
    2.8696    0.0685    3.8840 C   0  0  1  0  0  0  0  0  0  0  0  0
    3.5478   -0.0311    2.5838 N   0  0  0  0  0  0  0  0  0  0  0  0
   -0.9655    4.2047    2.1932 C   0  0  2  0  0  0  0  0  0  0  0  0
   -1.7643    4.9335    1.2799 O   0  0  0  0  0  0  0  0  0  0  0  0
    0.1307    5.0491    2.8413 C   0  0  2  0  0  0  0  0  0  0  0  0
   -0.2500    6.3899    3.0790 O   0  0  0  0  0  0  0  0  0  0  0  0
  2  1  1  0  0  0  0
  3  2  1  1  0  0  0
  3 30  1  0  0  0  0
  4  5  1  0  0  0  0
  4  3  1  0  0  0  0
  5 28  1  0  0  0  0
  5  6  1  1  0  0  0
  7  6  1  1  0  0  0
  8  7  1  0  0  0  0
  8  9  1  6  0  0  0
 10 11  1  1  0  0  0
 10  8  1  0  0  0  0
 12 10  1  0  0  0  0
 13 12  1  0  0  0  0
 13 15  1  0  0  0  0
 13 14  1  1  0  0  0
 15  7  1  0  0  0  0
 15 16  1  6  0  0  0
 17 16  1  6  0  0  0
 18 17  1  0  0  0  0
 19 20  1  1  0  0  0
 19 18  1  0  0  0  0
 20 21  1  0  0  0  0
 22 24  1  0  0  0  0
 22 19  1  0  0  0  0
 22 23  1  6  0  0  0
 24 25  1  1  0  0  0
 24 26  1  0  0  0  0
 26 17  1  0  0  0  0
 26 27  1  6  0  0  0
 28 29  1  6  0  0  0
 28 30  1  0  0  0  0
 30 31  1  6  0  0  0
M  END
>  <CHROM.1>
-171.42528370,177.35828745,-103.89705224,-67.50887197,-96.63348966,174.78313092
176.95630831,69.43169821,70.41997002,-74.51219637,-7.11766917,-62.21219903
-61.96029293,39.01436076,-72.99651785,-65.56671297,0.46204096,1.11776251
2.94359462,-2.04209508,0.80423519,2.87275930

>  <Name>
lig.pdb

>  <RI>
0

>  <Rbt.Current_Directory>
/home/itssahil/PROJECTS/Mol_Feturizer/New_Systems/rnas/2n0j

>  <Rbt.Executable>
rbdock ($Id: //depot/dev/client3/rdock/2013.1/src/exe/rbdock.cxx#4 $)

>  <Rbt.Library>
libRbt.so (2013.1, Build901 2013/11/27)

>  <Rbt.Parameter_File>
/export/apps/rDock/src/rDock_2013.1_src/data/scripts/dock_solv.prm

>  <Rbt.Receptor>
prm/blind_docking_60.prm

>  <SCORE>
-33.2192

>  <SCORE.INTER>
-37.0382

>  <SCORE.INTER.CONST>
1

>  <SCORE.INTER.POLAR>
-4.91153

>  <SCORE.INTER.ROT>
6

>  <SCORE.INTER.SOLV>
24.783

>  <SCORE.INTER.VDW>
-24.1814

>  <SCORE.INTER.norm>
-1.19478

>  <SCORE.INTRA>
2.67693

>  <SCORE.INTRA.DIHEDRAL>
-9.07853

>  <SCORE.INTRA.DIHEDRAL.0>
28.0161

>  <SCORE.INTRA.POLAR>
0.889371

>  <SCORE.INTRA.POLAR.0>
-1.05798

>  <SCORE.INTRA.REPUL>
0

>  <SCORE.INTRA.REPUL.0>
0

>  <SCORE.INTRA.SOLV>
0.505302

>  <SCORE.INTRA.SOLV.lig_0>
-42.5945

>  <SCORE.INTRA.VDW>
3.93968

>  <SCORE.INTRA.VDW.0>
-5.13869

>  <SCORE.INTRA.norm>
0.0863526

>  <SCORE.RESTR>
1.14206

>  <SCORE.RESTR.CAVITY>
1.14206

>  <SCORE.RESTR.norm>
0.0368406

>  <SCORE.SYSTEM>
0

>  <SCORE.SYSTEM.CONST>
0

>  <SCORE.SYSTEM.DIHEDRAL>
0

>  <SCORE.SYSTEM.SOLV>
0

>  <SCORE.SYSTEM.norm>
0

>  <SCORE.heavy>
31

>  <SCORE.norm>
-1.07159

>  <RMSD>
5.891

$$$$
lig.pdb
 OpenBabel11021811453D
libRbt.so/2013.1/901 2013/11/27
 31 33  0  0  0  0  0  0  0  0999 V2000
    1.6307    7.0602    3.0826 O   0  0  0  0  0  0  0  0  0  0  0  0
    2.0012    6.0463    2.1689 C   0  0  0  0  0  0  0  0  0  0  0  0
    0.8587    5.0461    1.9470 C   0  0  1  0  0  0  0  0  0  0  0  0
    1.2284    4.0142    1.0461 O   0  0  0  0  0  0  0  0  0  0  0  0
    0.4568    2.8470    1.3127 C   0  0  1  0  0  0  0  0  0  0  0  0
    1.3081    1.7088    1.3722 O   0  0  0  0  0  0  0  0  0  0  0  0
    0.7598    0.4680    0.9566 C   0  0  2  0  0  0  0  0  0  0  0  0
   -0.4717    0.7686    0.0876 C   0  0  1  0  0  0  0  0  0  0  0  0
   -0.0600    1.3435   -1.1426 O   0  0  0  0  0  0  0  0  0  0  0  0
   -1.3193   -0.4682   -0.2470 C   0  0  2  0  0  0  0  0  0  0  0  0
   -2.5286   -0.0930   -0.9959 N   0  0  0  0  0  0  0  0  0  0  0  0
   -1.7199   -1.1802    1.0397 C   0  0  0  0  0  0  0  0  0  0  0  0
   -0.4725   -1.5340    1.8402 C   0  0  2  0  0  0  0  0  0  0  0  0
   -0.8839   -2.2650    3.0435 N   0  0  0  0  0  0  0  0  0  0  0  0
    0.3225   -0.2572    2.1887 C   0  0  1  0  0  0  0  0  0  0  0  0
    1.4549   -0.7060    2.9488 O   0  0  0  0  0  0  0  0  0  0  0  0
    1.9105    0.1423    3.9973 C   0  0  1  0  0  0  0  0  0  0  0  0
    0.8189    0.8414    4.5893 O   0  0  0  0  0  0  0  0  0  0  0  0
   -0.1011    0.0532    5.3413 C   0  0  2  0  0  0  0  0  0  0  0  0
   -1.1990    0.9683    5.8998 C   0  0  0  0  0  0  0  0  0  0  0  0
   -2.2091    1.2718    4.8961 N   0  0  0  0  0  0  0  0  0  0  0  0
    0.6141   -0.6698    6.4977 C   0  0  1  0  0  0  0  0  0  0  0  0
   -0.3077   -1.4906    7.1927 O   0  0  0  0  0  0  0  0  0  0  0  0
    1.7444   -1.5293    5.9180 C   0  0  2  0  0  0  0  0  0  0  0  0
    2.4775   -2.1391    6.9638 O   0  0  0  0  0  0  0  0  0  0  0  0
    2.6746   -0.6812    5.0403 C   0  0  1  0  0  0  0  0  0  0  0  0
    3.6759   -1.5386    4.3901 N   0  0  0  0  0  0  0  0  0  0  0  0
   -0.2132    3.0591    2.6781 C   0  0  2  0  0  0  0  0  0  0  0  0
   -1.6034    3.2612    2.5046 O   0  0  0  0  0  0  0  0  0  0  0  0
    0.5105    4.2887    3.2245 C   0  0  2  0  0  0  0  0  0  0  0  0
   -0.2598    5.0416    4.1405 O   0  0  0  0  0  0  0  0  0  0  0  0
  2  1  1  0  0  0  0
  3  2  1  1  0  0  0
  3 30  1  0  0  0  0
  4  5  1  0  0  0  0
  4  3  1  0  0  0  0
  5 28  1  0  0  0  0
  5  6  1  1  0  0  0
  7  6  1  1  0  0  0
  8  7  1  0  0  0  0
  8  9  1  6  0  0  0
 10 11  1  1  0  0  0
 10  8  1  0  0  0  0
 12 10  1  0  0  0  0
 13 12  1  0  0  0  0
 13 15  1  0  0  0  0
 13 14  1  1  0  0  0
 15  7  1  0  0  0  0
 15 16  1  6  0  0  0
 17 16  1  6  0  0  0
 18 17  1  0  0  0  0
 19 20  1  1  0  0  0
 19 18  1  0  0  0  0
 20 21  1  0  0  0  0
 22 24  1  0  0  0  0
 22 19  1  0  0  0  0
 22 23  1  6  0  0  0
 24 25  1  1  0  0  0
 24 26  1  0  0  0  0
 26 17  1  0  0  0  0
 26 27  1  6  0  0  0
 28 29  1  6  0  0  0
 28 30  1  0  0  0  0
 30 31  1  1  0  0  0
M  END
>  <CHROM.1>
-61.15062746,-179.15255378,-148.85356562,19.62830553,69.72199745,-88.38622251
-77.65946551,94.23860070,32.94716810,80.11659109,-38.07887272,-171.65995415
-177.30199462,-41.52681280,-170.28870020,-49.72031576,0.34317111,1.09677753
3.04783661,-1.82974162,1.18264502,2.78642911

>  <Name>
lig.pdb

>  <RI>
9.20816e+06

>  <Rbt.Current_Directory>
/home/itssahil/PROJECTS/Mol_Feturizer/New_Systems/rnas/2n0j

>  <Rbt.Executable>
rbdock ($Id: //depot/dev/client3/rdock/2013.1/src/exe/rbdock.cxx#4 $)

>  <Rbt.Library>
libRbt.so (2013.1, Build901 2013/11/27)

>  <Rbt.Parameter_File>
/export/apps/rDock/src/rDock_2013.1_src/data/scripts/dock_solv.prm

>  <Rbt.Receptor>
prm/blind_docking_100.prm

>  <SCORE>
-24.6617

>  <SCORE.INTER>
-36.4684

>  <SCORE.INTER.CONST>
1

>  <SCORE.INTER.POLAR>
-4.56849

>  <SCORE.INTER.ROT>
6

>  <SCORE.INTER.SOLV>
21.6617

>  <SCORE.INTER.VDW>
-23.9045

>  <SCORE.INTER.norm>
-1.1764

>  <SCORE.INTRA>
6.83888

>  <SCORE.INTRA.DIHEDRAL>
-3.70142

>  <SCORE.INTRA.DIHEDRAL.0>
28.0161

>  <SCORE.INTRA.POLAR>
0.736233

>  <SCORE.INTRA.POLAR.0>
-1.05798

>  <SCORE.INTRA.REPUL>
0.0342914

>  <SCORE.INTRA.REPUL.0>
0

>  <SCORE.INTRA.SOLV>
1.74336

>  <SCORE.INTRA.SOLV.lig_0>
-42.5945

>  <SCORE.INTRA.VDW>
5.14326

>  <SCORE.INTRA.VDW.0>
-5.13869

>  <SCORE.INTRA.norm>
0.220609

>  <SCORE.RESTR>
4.96776

>  <SCORE.RESTR.CAVITY>
4.96776

>  <SCORE.RESTR.norm>
0.16025

>  <SCORE.SYSTEM>
0

>  <SCORE.SYSTEM.CONST>
0

>  <SCORE.SYSTEM.DIHEDRAL>
0

>  <SCORE.SYSTEM.SOLV>
0

>  <SCORE.SYSTEM.norm>
0

>  <SCORE.heavy>
31

>  <SCORE.norm>
-0.79554

>  <RMSD>
5.892

$$$$
lig.pdb
 OpenBabel11021811453D
libRbt.so/2013.1/901 2013/11/27
 31 33  0  0  0  0  0  0  0  0999 V2000
   -2.6325    5.1088    2.4510 O   0  0  0  0  0  0  0  0  0  0  0  0
   -1.4560    5.3010    1.6901 C   0  0  0  0  0  0  0  0  0  0  0  0
   -0.2968    4.4488    2.2242 C   0  0  1  0  0  0  0  0  0  0  0  0
   -0.4634    3.0753    1.9099 O   0  0  0  0  0  0  0  0  0  0  0  0
    0.8097    2.4387    1.8570 C   0  0  1  0  0  0  0  0  0  0  0  0
    0.9074    1.6520    0.6757 O   0  0  0  0  0  0  0  0  0  0  0  0
    0.2411    0.3995    0.6754 C   0  0  2  0  0  0  0  0  0  0  0  0
   -1.1578    0.6140    0.0761 C   0  0  1  0  0  0  0  0  0  0  0  0
   -1.0459    0.8964   -1.3100 O   0  0  0  0  0  0  0  0  0  0  0  0
   -2.0940   -0.5952    0.2220 C   0  0  2  0  0  0  0  0  0  0  0  0
   -3.4399   -0.2854   -0.2847 N   0  0  0  0  0  0  0  0  0  0  0  0
   -2.1849   -1.0010    1.6883 C   0  0  0  0  0  0  0  0  0  0  0  0
   -0.7888   -1.2826    2.2302 C   0  0  2  0  0  0  0  0  0  0  0  0
   -0.9112   -1.7228    3.6241 N   0  0  0  0  0  0  0  0  0  0  0  0
    0.1009   -0.0274    2.1014 C   0  0  1  0  0  0  0  0  0  0  0  0
    1.3731   -0.4009    2.6524 O   0  0  0  0  0  0  0  0  0  0  0  0
    1.9566    0.4876    3.5994 C   0  0  1  0  0  0  0  0  0  0  0  0
    1.2789    0.4057    4.8502 O   0  0  0  0  0  0  0  0  0  0  0  0
    1.4403   -0.8110    5.5762 C   0  0  2  0  0  0  0  0  0  0  0  0
    0.6473   -0.7169    6.8865 C   0  0  0  0  0  0  0  0  0  0  0  0
   -0.7856   -0.6310    6.6436 N   0  0  0  0  0  0  0  0  0  0  0  0
    2.9265   -1.0729    5.8832 C   0  0  1  0  0  0  0  0  0  0  0  0
    3.0661   -2.3137    6.5522 O   0  0  0  0  0  0  0  0  0  0  0  0
    3.7053   -1.1016    4.5622 C   0  0  2  0  0  0  0  0  0  0  0  0
    5.0893   -1.2534    4.8164 O   0  0  0  0  0  0  0  0  0  0  0  0
    3.4498    0.1780    3.7545 C   0  0  1  0  0  0  0  0  0  0  0  0
    4.0978    0.0824    2.4387 N   0  0  0  0  0  0  0  0  0  0  0  0
    1.8638    3.5548    1.8193 C   0  0  2  0  0  0  0  0  0  0  0  0
    2.5588    3.6008    3.0515 O   0  0  0  0  0  0  0  0  0  0  0  0
    1.0261    4.8047    1.5535 C   0  0  2  0  0  0  0  0  0  0  0  0
    1.6104    5.9955    2.0431 O   0  0  0  0  0  0  0  0  0  0  0  0
  2  1  1  0  0  0  0
  3  2  1  6  0  0  0
  3 30  1  0  0  0  0
  4  5  1  0  0  0  0
  4  3  1  0  0  0  0
  5 28  1  0  0  0  0
  5  6  1  6  0  0  0
  7  6  1  1  0  0  0
  8  7  1  0  0  0  0
  8  9  1  6  0  0  0
 10 11  1  1  0  0  0
 10  8  1  0  0  0  0
 12 10  1  0  0  0  0
 13 12  1  0  0  0  0
 13 15  1  0  0  0  0
 13 14  1  1  0  0  0
 15  7  1  0  0  0  0
 15 16  1  6  0  0  0
 17 16  1  6  0  0  0
 18 17  1  0  0  0  0
 19 20  1  1  0  0  0
 19 18  1  0  0  0  0
 20 21  1  0  0  0  0
 22 24  1  0  0  0  0
 22 19  1  0  0  0  0
 22 23  1  6  0  0  0
 24 25  1  1  0  0  0
 24 26  1  0  0  0  0
 26 17  1  0  0  0  0
 26 27  1  6  0  0  0
 28 29  1  1  0  0  0
 28 30  1  0  0  0  0
 30 31  1  1  0  0  0
M  END
>  <CHROM.1>
-179.36918609,73.46189584,-77.58951003,93.06609683,-161.56766749,63.65304879
30.03417480,107.86103680,73.91563275,65.36389740,-173.32565038,-54.42683780
70.10639212,-77.40031741,178.45584824,-173.86234932,0.66836389,0.96979866
2.80509370,-2.25136676,0.63220101,2.79244714

>  <Name>
lig.pdb

>  <RI>
1.79691e+07

>  <Rbt.Current_Directory>
/home/itssahil/PROJECTS/Mol_Feturizer/New_Systems/rnas/2n0j

>  <Rbt.Executable>
rbdock ($Id: //depot/dev/client3/rdock/2013.1/src/exe/rbdock.cxx#4 $)

>  <Rbt.Library>
libRbt.so (2013.1, Build901 2013/11/27)

>  <Rbt.Parameter_File>
/export/apps/rDock/src/rDock_2013.1_src/data/scripts/dock_solv.prm

>  <Rbt.Receptor>
prm/blind_docking_20.prm

>  <SCORE>
-39.7378

>  <SCORE.INTER>
-45.0933

>  <SCORE.INTER.CONST>
1

>  <SCORE.INTER.POLAR>
-5.47197

>  <SCORE.INTER.ROT>
6

>  <SCORE.INTER.SOLV>
23.1532

>  <SCORE.INTER.VDW>
-27.14

>  <SCORE.INTER.norm>
-1.45462

>  <SCORE.INTRA>
4.24512

>  <SCORE.INTRA.DIHEDRAL>
-8.92087

>  <SCORE.INTRA.DIHEDRAL.0>
28.0161

>  <SCORE.INTRA.POLAR>
1.05798

>  <SCORE.INTRA.POLAR.0>
-1.05798

>  <SCORE.INTRA.REPUL>
0

>  <SCORE.INTRA.REPUL.0>
0

>  <SCORE.INTRA.SOLV>
0.669265

>  <SCORE.INTRA.SOLV.lig_0>
-42.5945

>  <SCORE.INTRA.VDW>
4.77377

>  <SCORE.INTRA.VDW.0>
-5.13869

>  <SCORE.INTRA.norm>
0.136939

>  <SCORE.RESTR>
1.1104

>  <SCORE.RESTR.CAVITY>
1.1104

>  <SCORE.RESTR.norm>
0.0358193

>  <SCORE.SYSTEM>
0

>  <SCORE.SYSTEM.CONST>
0

>  <SCORE.SYSTEM.DIHEDRAL>
0

>  <SCORE.SYSTEM.SOLV>
0

>  <SCORE.SYSTEM.norm>
0

>  <SCORE.heavy>
31

>  <SCORE.norm>
-1.28186

>  <RMSD>
5.896

$$$$
lig.pdb
 OpenBabel11021811453D
libRbt.so/2013.1/901 2013/11/27
 31 33  0  0  0  0  0  0  0  0999 V2000
   -1.8386    7.5215    3.3482 O   0  0  0  0  0  0  0  0  0  0  0  0
   -1.8834    6.2696    4.0047 C   0  0  0  0  0  0  0  0  0  0  0  0
   -0.7010    5.3800    3.5977 C   0  0  1  0  0  0  0  0  0  0  0  0
   -0.8508    4.0524    4.0751 O   0  0  0  0  0  0  0  0  0  0  0  0
   -0.1315    3.1569    3.2329 C   0  0  1  0  0  0  0  0  0  0  0  0
   -0.9541    2.0467    2.8944 O   0  0  0  0  0  0  0  0  0  0  0  0
   -0.4801    1.1754    1.8800 C   0  0  2  0  0  0  0  0  0  0  0  0
   -1.6408    0.9156    0.9067 C   0  0  1  0  0  0  0  0  0  0  0  0
   -1.9277    2.0989    0.1780 O   0  0  0  0  0  0  0  0  0  0  0  0
   -1.3630   -0.1956   -0.1171 C   0  0  2  0  0  0  0  0  0  0  0  0
   -2.5479   -0.4552   -0.9494 N   0  0  0  0  0  0  0  0  0  0  0  0
   -0.9625   -1.4747    0.6084 C   0  0  0  0  0  0  0  0  0  0  0  0
    0.2392   -1.2014    1.5047 C   0  0  2  0  0  0  0  0  0  0  0  0
    0.6359   -2.4592    2.1469 N   0  0  0  0  0  0  0  0  0  0  0  0
   -0.1016   -0.1103    2.5425 C   0  0  1  0  0  0  0  0  0  0  0  0
    1.0857    0.0506    3.3338 O   0  0  0  0  0  0  0  0  0  0  0  0
    0.9168    0.4990    4.6743 C   0  0  1  0  0  0  0  0  0  0  0  0
   -0.4118    0.2492    5.1249 O   0  0  0  0  0  0  0  0  0  0  0  0
   -0.7663   -1.1190    5.3147 C   0  0  2  0  0  0  0  0  0  0  0  0
   -2.2204   -1.1930    5.7991 C   0  0  0  0  0  0  0  0  0  0  0  0
   -2.7043   -2.5655    5.8419 N   0  0  0  0  0  0  0  0  0  0  0  0
    0.1620   -1.7877    6.3456 C   0  0  1  0  0  0  0  0  0  0  0  0
   -0.1721   -3.1584    6.4729 O   0  0  0  0  0  0  0  0  0  0  0  0
    1.6125   -1.6462    5.8678 C   0  0  2  0  0  0  0  0  0  0  0  0
    2.4980   -2.1743    6.8374 O   0  0  0  0  0  0  0  0  0  0  0  0
    1.9490   -0.1760    5.5846 C   0  0  1  0  0  0  0  0  0  0  0  0
    3.2965   -0.0684    5.0076 N   0  0  0  0  0  0  0  0  0  0  0  0
    0.2285    3.9363    1.9597 C   0  0  2  0  0  0  0  0  0  0  0  0
    1.6197    4.1963    1.9330 O   0  0  0  0  0  0  0  0  0  0  0  0
   -0.6181    5.2020    2.0850 C   0  0  2  0  0  0  0  0  0  0  0  0
   -0.0748    6.3188    1.4093 O   0  0  0  0  0  0  0  0  0  0  0  0
  2  1  1  0  0  0  0
  3  2  1  6  0  0  0
  3 30  1  0  0  0  0
  4  5  1  0  0  0  0
  4  3  1  0  0  0  0
  5 28  1  0  0  0  0
  5  6  1  6  0  0  0
  7  6  1  1  0  0  0
  8  7  1  0  0  0  0
  8  9  1  6  0  0  0
 10 11  1  1  0  0  0
 10  8  1  0  0  0  0
 12 10  1  0  0  0  0
 13 12  1  0  0  0  0
 13 15  1  0  0  0  0
 13 14  1  1  0  0  0
 15  7  1  0  0  0  0
 15 16  1  1  0  0  0
 17 16  1  6  0  0  0
 18 17  1  0  0  0  0
 19 20  1  1  0  0  0
 19 18  1  0  0  0  0
 20 21  1  0  0  0  0
 22 24  1  0  0  0  0
 22 19  1  0  0  0  0
 22 23  1  6  0  0  0
 24 25  1  1  0  0  0
 24 26  1  0  0  0  0
 26 17  1  0  0  0  0
 26 27  1  6  0  0  0
 28 29  1  1  0  0  0
 28 30  1  0  0  0  0
 30 31  1  6  0  0  0
M  END
>  <CHROM.1>
-61.95158936,-170.38413115,169.41751324,-133.22240251,-55.97842726,51.53276969
68.14812023,86.78720879,20.97597063,172.35050864,-68.55870378,-178.00418145
-47.98746200,140.42130372,67.74397695,-153.48141963,-0.25688193,1.07124824
3.34336733,-1.98490249,1.17892330,3.13004651

>  <Name>
lig.pdb

>  <RI>
0

>  <Rbt.Current_Directory>
/home/itssahil/PROJECTS/Mol_Feturizer/New_Systems/rnas/2n0j

>  <Rbt.Executable>
rbdock ($Id: //depot/dev/client3/rdock/2013.1/src/exe/rbdock.cxx#4 $)

>  <Rbt.Library>
libRbt.so (2013.1, Build901 2013/11/27)

>  <Rbt.Parameter_File>
/export/apps/rDock/src/rDock_2013.1_src/data/scripts/dock_solv.prm

>  <Rbt.Receptor>
prm/blind_docking_60.prm

>  <SCORE>
-22.9029

>  <SCORE.INTER>
-27.5594

>  <SCORE.INTER.CONST>
1

>  <SCORE.INTER.POLAR>
-3.70486

>  <SCORE.INTER.ROT>
6

>  <SCORE.INTER.SOLV>
24.2086

>  <SCORE.INTER.VDW>
-21.6929

>  <SCORE.INTER.norm>
-0.889013

>  <SCORE.INTRA>
1.63413

>  <SCORE.INTRA.DIHEDRAL>
-4.88763

>  <SCORE.INTRA.DIHEDRAL.0>
28.0161

>  <SCORE.INTRA.POLAR>
0.370879

>  <SCORE.INTRA.POLAR.0>
-1.05798

>  <SCORE.INTRA.REPUL>
0

>  <SCORE.INTRA.REPUL.0>
0

>  <SCORE.INTRA.SOLV>
0.956283

>  <SCORE.INTRA.SOLV.lig_0>
-42.5945

>  <SCORE.INTRA.VDW>
2.33882

>  <SCORE.INTRA.VDW.0>
-5.13869

>  <SCORE.INTRA.norm>
0.0527138

>  <SCORE.RESTR>
3.02234

>  <SCORE.RESTR.CAVITY>
3.02234

>  <SCORE.RESTR.norm>
0.0974949

>  <SCORE.SYSTEM>
0

>  <SCORE.SYSTEM.CONST>
0

>  <SCORE.SYSTEM.DIHEDRAL>
0

>  <SCORE.SYSTEM.SOLV>
0

>  <SCORE.SYSTEM.norm>
0

>  <SCORE.heavy>
31

>  <SCORE.norm>
-0.738804

>  <RMSD>
5.898

$$$$
lig.pdb
 OpenBabel11021811453D
libRbt.so/2013.1/901 2013/11/27
 31 33  0  0  0  0  0  0  0  0999 V2000
    3.4601    4.2209    2.6230 O   0  0  0  0  0  0  0  0  0  0  0  0
    2.5992    5.3427    2.5974 C   0  0  0  0  0  0  0  0  0  0  0  0
    1.2598    5.0069    1.9276 C   0  0  1  0  0  0  0  0  0  0  0  0
    1.1968    3.6475    1.5262 O   0  0  0  0  0  0  0  0  0  0  0  0
   -0.1622    3.2230    1.4855 C   0  0  1  0  0  0  0  0  0  0  0  0
   -0.2984    1.9755    2.1555 O   0  0  0  0  0  0  0  0  0  0  0  0
   -0.4491    0.8196    1.3467 C   0  0  2  0  0  0  0  0  0  0  0  0
   -1.8454    0.8754    0.7068 C   0  0  1  0  0  0  0  0  0  0  0  0
   -1.8909    1.9216   -0.2508 O   0  0  0  0  0  0  0  0  0  0  0  0
   -2.2579   -0.4190   -0.0105 C   0  0  2  0  0  0  0  0  0  0  0  0
   -3.6376   -0.3279   -0.5127 N   0  0  0  0  0  0  0  0  0  0  0  0
   -2.1443   -1.5973    0.9496 C   0  0  0  0  0  0  0  0  0  0  0  0
   -0.7275   -1.6713    1.5056 C   0  0  2  0  0  0  0  0  0  0  0  0
   -0.6325   -2.8440    2.3817 N   0  0  0  0  0  0  0  0  0  0  0  0
   -0.3746   -0.3672    2.2529 C   0  0  1  0  0  0  0  0  0  0  0  0
    0.9619   -0.5554    2.7427 O   0  0  0  0  0  0  0  0  0  0  0  0
    1.4779    0.4396    3.6203 C   0  0  1  0  0  0  0  0  0  0  0  0
    0.7406    0.4667    4.8395 O   0  0  0  0  0  0  0  0  0  0  0  0
    0.8922   -0.6655    5.6931 C   0  0  2  0  0  0  0  0  0  0  0  0
    0.0330   -0.4605    6.9478 C   0  0  0  0  0  0  0  0  0  0  0  0
   -0.7579   -1.6430    7.2578 N   0  0  0  0  0  0  0  0  0  0  0  0
    2.3666   -0.8551    6.0954 C   0  0  1  0  0  0  0  0  0  0  0  0
    2.4997   -2.0177    6.8937 O   0  0  0  0  0  0  0  0  0  0  0  0
    3.2107   -0.9965    4.8226 C   0  0  2  0  0  0  0  0  0  0  0  0
    4.5833   -1.0846    5.1563 O   0  0  0  0  0  0  0  0  0  0  0  0
    2.9679    0.1875    3.8769 C   0  0  1  0  0  0  0  0  0  0  0  0
    3.6827   -0.0234    2.6100 N   0  0  0  0  0  0  0  0  0  0  0  0
   -0.9842    4.2925    2.2195 C   0  0  2  0  0  0  0  0  0  0  0  0
   -1.7652    5.0198    1.2897 O   0  0  0  0  0  0  0  0  0  0  0  0
    0.0902    5.1412    2.8975 C   0  0  2  0  0  0  0  0  0  0  0  0
   -0.3050    6.4785    3.1311 O   0  0  0  0  0  0  0  0  0  0  0  0
  2  1  1  0  0  0  0
  3  2  1  1  0  0  0
  3 30  1  0  0  0  0
  4  5  1  0  0  0  0
  4  3  1  0  0  0  0
  5 28  1  0  0  0  0
  5  6  1  1  0  0  0
  7  6  1  1  0  0  0
  8  7  1  0  0  0  0
  8  9  1  6  0  0  0
 10 11  1  1  0  0  0
 10  8  1  0  0  0  0
 12 10  1  0  0  0  0
 13 12  1  0  0  0  0
 13 15  1  0  0  0  0
 13 14  1  1  0  0  0
 15  7  1  0  0  0  0
 15 16  1  6  0  0  0
 17 16  1  6  0  0  0
 18 17  1  0  0  0  0
 19 20  1  1  0  0  0
 19 18  1  0  0  0  0
 20 21  1  0  0  0  0
 22 24  1  0  0  0  0
 22 19  1  0  0  0  0
 22 23  1  1  0  0  0
 24 25  1  1  0  0  0
 24 26  1  0  0  0  0
 26 17  1  0  0  0  0
 26 27  1  6  0  0  0
 28 29  1  6  0  0  0
 28 30  1  0  0  0  0
 30 31  1  6  0  0  0
M  END
>  <CHROM.1>
65.54114304,1.41739916,-104.22116220,-70.73312788,-159.57400221,69.34910279
53.22898023,66.90703626,64.89144466,132.58323294,94.85452965,-55.32956990
86.66128545,37.15270932,62.95041731,-75.88162604,0.45061041,1.07335958,2.93968834
-2.05697682,0.72854155,2.81430174

>  <Name>
lig.pdb

>  <RI>
1.55206e+07

>  <Rbt.Current_Directory>
/home/itssahil/PROJECTS/Mol_Feturizer/New_Systems/rnas/2n0j

>  <Rbt.Executable>
rbdock ($Id: //depot/dev/client3/rdock/2013.1/src/exe/rbdock.cxx#4 $)

>  <Rbt.Library>
libRbt.so (2013.1, Build901 2013/11/27)

>  <Rbt.Parameter_File>
/export/apps/rDock/src/rDock_2013.1_src/data/scripts/dock_solv.prm

>  <Rbt.Receptor>
prm/blind_docking_80.prm

>  <SCORE>
-41.8216

>  <SCORE.INTER>
-48.2926

>  <SCORE.INTER.CONST>
1

>  <SCORE.INTER.POLAR>
-7.23541

>  <SCORE.INTER.ROT>
6

>  <SCORE.INTER.SOLV>
24.9987

>  <SCORE.INTER.VDW>
-24.0099

>  <SCORE.INTER.norm>
-1.55783

>  <SCORE.INTRA>
5.62824

>  <SCORE.INTRA.DIHEDRAL>
-0.861051

>  <SCORE.INTRA.DIHEDRAL.0>
28.0161

>  <SCORE.INTRA.POLAR>
1.05798

>  <SCORE.INTRA.POLAR.0>
-1.05798

>  <SCORE.INTRA.REPUL>
0

>  <SCORE.INTRA.REPUL.0>
0

>  <SCORE.INTRA.SOLV>
-0.137872

>  <SCORE.INTRA.SOLV.lig_0>
-42.5945

>  <SCORE.INTRA.VDW>
2.53055

>  <SCORE.INTRA.VDW.0>
-5.13869

>  <SCORE.INTRA.norm>
0.181556

>  <SCORE.RESTR>
0.842829

>  <SCORE.RESTR.CAVITY>
0.842829

>  <SCORE.RESTR.norm>
0.027188

>  <SCORE.SYSTEM>
0

>  <SCORE.SYSTEM.CONST>
0

>  <SCORE.SYSTEM.DIHEDRAL>
0

>  <SCORE.SYSTEM.SOLV>
0

>  <SCORE.SYSTEM.norm>
0

>  <SCORE.heavy>
31

>  <SCORE.norm>
-1.34908

>  <RMSD>
5.899

$$$$
lig.pdb
 OpenBabel11021811453D
libRbt.so/2013.1/901 2013/11/27
 31 33  0  0  0  0  0  0  0  0999 V2000
    1.1218    7.4673    2.3398 O   0  0  0  0  0  0  0  0  0  0  0  0
    0.4731    6.3637    2.9409 C   0  0  0  0  0  0  0  0  0  0  0  0
    1.1220    5.0367    2.5248 C   0  0  1  0  0  0  0  0  0  0  0  0
    0.3565    3.9196    2.9482 O   0  0  0  0  0  0  0  0  0  0  0  0
    0.6083    2.8130    2.0874 C   0  0  1  0  0  0  0  0  0  0  0  0
   -0.6226    2.2207    1.6900 O   0  0  0  0  0  0  0  0  0  0  0  0
   -0.5498    1.0254    0.9293 C   0  0  2  0  0  0  0  0  0  0  0  0
   -1.9573    0.7294    0.3876 C   0  0  1  0  0  0  0  0  0  0  0  0
   -2.3033    1.6920   -0.5958 O   0  0  0  0  0  0  0  0  0  0  0  0
   -2.1009   -0.6566   -0.2592 C   0  0  2  0  0  0  0  0  0  0  0  0
   -3.4921   -0.9082   -0.6659 N   0  0  0  0  0  0  0  0  0  0  0  0
   -1.6580   -1.7320    0.7259 C   0  0  0  0  0  0  0  0  0  0  0  0
   -0.2315   -1.4529    1.1831 C   0  0  2  0  0  0  0  0  0  0  0  0
    0.1869   -2.5309    2.0856 N   0  0  0  0  0  0  0  0  0  0  0  0
   -0.1462   -0.0698    1.8637 C   0  0  1  0  0  0  0  0  0  0  0  0
    1.2249    0.0769    2.2640 O   0  0  0  0  0  0  0  0  0  0  0  0
    1.4827    0.8653    3.4209 C   0  0  1  0  0  0  0  0  0  0  0  0
    0.6492    0.4589    4.5030 O   0  0  0  0  0  0  0  0  0  0  0  0
    0.9202   -0.8259    5.0593 C   0  0  2  0  0  0  0  0  0  0  0  0
   -0.0668   -1.0899    6.2042 C   0  0  0  0  0  0  0  0  0  0  0  0
   -0.1291   -2.5038    6.5459 N   0  0  0  0  0  0  0  0  0  0  0  0
    2.3648   -0.9005    5.5879 C   0  0  1  0  0  0  0  0  0  0  0  0
    2.6277   -2.2020    6.0813 O   0  0  0  0  0  0  0  0  0  0  0  0
    3.3276   -0.5732    4.4398 C   0  0  2  0  0  0  0  0  0  0  0  0
    4.6605   -0.5476    4.9147 O   0  0  0  0  0  0  0  0  0  0  0  0
    2.9660    0.7722    3.7961 C   0  0  1  0  0  0  0  0  0  0  0  0
    3.8134    1.0131    2.6195 N   0  0  0  0  0  0  0  0  0  0  0  0
    1.3342    3.3664    0.8525 C   0  0  2  0  0  0  0  0  0  0  0  0
    2.6872    2.9507    0.8643 O   0  0  0  0  0  0  0  0  0  0  0  0
    1.1671    4.8771    1.0085 C   0  0  2  0  0  0  0  0  0  0  0  0
    2.1902    5.6296    0.3871 O   0  0  0  0  0  0  0  0  0  0  0  0
  2  1  1  0  0  0  0
  3  2  1  6  0  0  0
  3 30  1  0  0  0  0
  4  5  1  0  0  0  0
  4  3  1  0  0  0  0
  5 28  1  0  0  0  0
  5  6  1  6  0  0  0
  7  6  1  1  0  0  0
  8  7  1  0  0  0  0
  8  9  1  6  0  0  0
 10 11  1  1  0  0  0
 10  8  1  0  0  0  0
 12 10  1  0  0  0  0
 13 12  1  0  0  0  0
 13 15  1  0  0  0  0
 13 14  1  1  0  0  0
 15  7  1  0  0  0  0
 15 16  1  6  0  0  0
 17 16  1  6  0  0  0
 18 17  1  0  0  0  0
 19 20  1  1  0  0  0
 19 18  1  0  0  0  0
 20 21  1  0  0  0  0
 22 24  1  0  0  0  0
 22 19  1  0  0  0  0
 22 23  1  6  0  0  0
 24 25  1  1  0  0  0
 24 26  1  0  0  0  0
 26 17  1  0  0  0  0
 26 27  1  6  0  0  0
 28 29  1  1  0  0  0
 28 30  1  0  0  0  0
 30 31  1  1  0  0  0
M  END
>  <CHROM.1>
-175.54702091,-170.72457616,-174.23669846,-169.03387649,-172.13110497,69.30064485
115.04072923,89.19120243,49.82974116,162.54860932,-167.24178347,-177.07100306
-175.94141152,-57.55210148,-80.35026296,-50.48530378,0.73298888,1.14183597
2.54668462,-1.65841911,0.75404136,2.73680626

>  <Name>
lig.pdb

>  <RI>
1.79691e+07

>  <Rbt.Current_Directory>
/home/itssahil/PROJECTS/Mol_Feturizer/New_Systems/rnas/2n0j

>  <Rbt.Executable>
rbdock ($Id: //depot/dev/client3/rdock/2013.1/src/exe/rbdock.cxx#4 $)

>  <Rbt.Library>
libRbt.so (2013.1, Build901 2013/11/27)

>  <Rbt.Parameter_File>
/export/apps/rDock/src/rDock_2013.1_src/data/scripts/dock_solv.prm

>  <Rbt.Receptor>
prm/blind_docking_20.prm

>  <SCORE>
-28.6409

>  <SCORE.INTER>
-30.1308

>  <SCORE.INTER.CONST>
1

>  <SCORE.INTER.POLAR>
-4.26311

>  <SCORE.INTER.ROT>
6

>  <SCORE.INTER.SOLV>
24.7347

>  <SCORE.INTER.VDW>
-21.7217

>  <SCORE.INTER.norm>
-0.97196

>  <SCORE.INTRA>
1.14145

>  <SCORE.INTRA.DIHEDRAL>
-14.6637

>  <SCORE.INTRA.DIHEDRAL.0>
28.0161

>  <SCORE.INTRA.POLAR>
-0.533628

>  <SCORE.INTRA.POLAR.0>
-1.05798

>  <SCORE.INTRA.REPUL>
0

>  <SCORE.INTRA.REPUL.0>
0

>  <SCORE.INTRA.SOLV>
2.19058

>  <SCORE.INTRA.SOLV.lig_0>
-42.5945

>  <SCORE.INTRA.VDW>
9.19234

>  <SCORE.INTRA.VDW.0>
-5.13869

>  <SCORE.INTRA.norm>
0.0368208

>  <SCORE.RESTR>
0.34841

>  <SCORE.RESTR.CAVITY>
0.34841

>  <SCORE.RESTR.norm>
0.011239

>  <SCORE.SYSTEM>
0

>  <SCORE.SYSTEM.CONST>
0

>  <SCORE.SYSTEM.DIHEDRAL>
0

>  <SCORE.SYSTEM.SOLV>
0

>  <SCORE.SYSTEM.norm>
0

>  <SCORE.heavy>
31

>  <SCORE.norm>
-0.9239

>  <RMSD>
5.902

$$$$
lig.pdb
 OpenBabel11021811453D
libRbt.so/2013.1/901 2013/11/27
 31 33  0  0  0  0  0  0  0  0999 V2000
    0.1967    0.6928   10.2418 O   0  0  0  0  0  0  0  0  0  0  0  0
    0.1827    1.5213    9.0957 C   0  0  0  0  0  0  0  0  0  0  0  0
   -1.1335    2.3026    8.9842 C   0  0  1  0  0  0  0  0  0  0  0  0
   -1.1138    3.2174    7.8998 O   0  0  0  0  0  0  0  0  0  0  0  0
   -2.4446    3.4588    7.4532 C   0  0  1  0  0  0  0  0  0  0  0  0
   -2.5054    3.3496    6.0361 O   0  0  0  0  0  0  0  0  0  0  0  0
   -1.9252    4.4008    5.2805 C   0  0  2  0  0  0  0  0  0  0  0  0
   -2.6783    5.6955    5.6253 C   0  0  1  0  0  0  0  0  0  0  0  0
   -2.3801    6.0817    6.9577 O   0  0  0  0  0  0  0  0  0  0  0  0
   -2.3299    6.8839    4.7161 C   0  0  2  0  0  0  0  0  0  0  0  0
   -3.1559    8.0571    5.0406 N   0  0  0  0  0  0  0  0  0  0  0  0
   -2.5484    6.4972    3.2582 C   0  0  0  0  0  0  0  0  0  0  0  0
   -1.7273    5.2568    2.9277 C   0  0  2  0  0  0  0  0  0  0  0  0
   -1.9137    4.9405    1.5075 N   0  0  0  0  0  0  0  0  0  0  0  0
   -2.1422    4.0797    3.8365 C   0  0  1  0  0  0  0  0  0  0  0  0
   -1.3234    2.9731    3.4285 O   0  0  0  0  0  0  0  0  0  0  0  0
   -1.8801    1.6696    3.5620 C   0  0  1  0  0  0  0  0  0  0  0  0
   -3.2413    1.6581    3.1404 O   0  0  0  0  0  0  0  0  0  0  0  0
   -3.4707    1.8429    1.7452 C   0  0  2  0  0  0  0  0  0  0  0  0
   -4.9815    1.7997    1.4799 C   0  0  0  0  0  0  0  0  0  0  0  0
   -5.6496    2.9941    1.9769 N   0  0  0  0  0  0  0  0  0  0  0  0
   -2.7651    0.7476    0.9241 C   0  0  1  0  0  0  0  0  0  0  0  0
   -2.9587    0.9860   -0.4588 O   0  0  0  0  0  0  0  0  0  0  0  0
   -1.2673    0.7723    1.2533 C   0  0  2  0  0  0  0  0  0  0  0  0
   -0.6036   -0.2808    0.5800 O   0  0  0  0  0  0  0  0  0  0  0  0
   -1.0433    0.6607    2.7673 C   0  0  1  0  0  0  0  0  0  0  0  0
    0.3850    0.8137    3.0791 N   0  0  0  0  0  0  0  0  0  0  0  0
   -3.3304    2.3780    8.0900 C   0  0  2  0  0  0  0  0  0  0  0  0
   -4.1534    2.9568    9.0855 O   0  0  0  0  0  0  0  0  0  0  0  0
   -2.3097    1.3899    8.6524 C   0  0  2  0  0  0  0  0  0  0  0  0
   -2.7853    0.6491    9.7588 O   0  0  0  0  0  0  0  0  0  0  0  0
  2  1  1  0  0  0  0
  3  2  1  6  0  0  0
  3 30  1  0  0  0  0
  4  5  1  0  0  0  0
  4  3  1  0  0  0  0
  5 28  1  0  0  0  0
  5  6  1  6  0  0  0
  7  6  1  1  0  0  0
  8  7  1  0  0  0  0
  8  9  1  1  0  0  0
 10 11  1  1  0  0  0
 10  8  1  0  0  0  0
 12 10  1  0  0  0  0
 13 12  1  0  0  0  0
 13 15  1  0  0  0  0
 13 14  1  6  0  0  0
 15  7  1  0  0  0  0
 15 16  1  6  0  0  0
 17 16  1  6  0  0  0
 18 17  1  0  0  0  0
 19 20  1  1  0  0  0
 19 18  1  0  0  0  0
 20 21  1  0  0  0  0
 22 24  1  0  0  0  0
 22 19  1  0  0  0  0
 22 23  1  6  0  0  0
 24 25  1  6  0  0  0
 24 26  1  0  0  0  0
 26 17  1  0  0  0  0
 26 27  1  6  0  0  0
 28 29  1  1  0  0  0
 28 30  1  0  0  0  0
 30 31  1  1  0  0  0
M  END
>  <CHROM.1>
-62.10646539,175.17949783,-73.03260307,-61.38486464,152.43773581,76.78897562
22.07812094,89.99770896,42.32973383,71.86443752,175.91443540,-65.49843581
62.05005704,-176.13649192,-179.58159177,-178.83001041,-2.23501503,2.90996437
4.77914378,-1.23631368,1.28579661,-1.96912985

>  <Name>
lig.pdb

>  <RI>
3.32461e+07

>  <Rbt.Current_Directory>
/home/itssahil/PROJECTS/Mol_Feturizer/New_Systems/rnas/2n0j

>  <Rbt.Executable>
rbdock ($Id: //depot/dev/client3/rdock/2013.1/src/exe/rbdock.cxx#4 $)

>  <Rbt.Library>
libRbt.so (2013.1, Build901 2013/11/27)

>  <Rbt.Parameter_File>
/export/apps/rDock/src/rDock_2013.1_src/data/scripts/dock_solv.prm

>  <Rbt.Receptor>
prm/pocket_docking_7.prm

>  <SCORE>
-36.1705

>  <SCORE.INTER>
-36.8381

>  <SCORE.INTER.CONST>
1

>  <SCORE.INTER.POLAR>
-4.73975

>  <SCORE.INTER.ROT>
6

>  <SCORE.INTER.SOLV>
16.7681

>  <SCORE.INTER.VDW>
-21.9489

>  <SCORE.INTER.norm>
-1.18833

>  <SCORE.INTRA>
0.667582

>  <SCORE.INTRA.DIHEDRAL>
-14.6508

>  <SCORE.INTRA.DIHEDRAL.0>
28.0161

>  <SCORE.INTRA.POLAR>
1.04875

>  <SCORE.INTRA.POLAR.0>
-1.05798

>  <SCORE.INTRA.REPUL>
0.006346

>  <SCORE.INTRA.REPUL.0>
0

>  <SCORE.INTRA.SOLV>
-0.0958703

>  <SCORE.INTRA.SOLV.lig_0>
-42.5945

>  <SCORE.INTRA.VDW>
4.44342

>  <SCORE.INTRA.VDW.0>
-5.13869

>  <SCORE.INTRA.norm>
0.0215349

>  <SCORE.RESTR>
0

>  <SCORE.RESTR.CAVITY>
0

>  <SCORE.RESTR.norm>
0

>  <SCORE.SYSTEM>
0

>  <SCORE.SYSTEM.CONST>
0

>  <SCORE.SYSTEM.DIHEDRAL>
0

>  <SCORE.SYSTEM.SOLV>
0

>  <SCORE.SYSTEM.norm>
0

>  <SCORE.heavy>
31

>  <SCORE.norm>
-1.16679

>  <RMSD>
5.905

$$$$
lig.pdb
 OpenBabel11021811453D
libRbt.so/2013.1/901 2013/11/27
 31 33  0  0  0  0  0  0  0  0999 V2000
    3.0705    6.4891    2.5230 O   0  0  0  0  0  0  0  0  0  0  0  0
    2.8723    5.1512    2.1099 C   0  0  0  0  0  0  0  0  0  0  0  0
    1.4237    4.9104    1.6639 C   0  0  1  0  0  0  0  0  0  0  0  0
    1.2034    3.5585    1.2940 O   0  0  0  0  0  0  0  0  0  0  0  0
   -0.1712    3.2312    1.4734 C   0  0  1  0  0  0  0  0  0  0  0  0
   -0.2864    1.9971    2.1715 O   0  0  0  0  0  0  0  0  0  0  0  0
   -0.4441    0.8236    1.3899 C   0  0  2  0  0  0  0  0  0  0  0  0
   -1.8371    0.8765    0.7427 C   0  0  1  0  0  0  0  0  0  0  0  0
   -1.8692    1.8998   -0.2398 O   0  0  0  0  0  0  0  0  0  0  0  0
   -2.2582   -0.4309    0.0547 C   0  0  2  0  0  0  0  0  0  0  0  0
   -3.6349   -0.3395   -0.4557 N   0  0  0  0  0  0  0  0  0  0  0  0
   -2.1593   -1.5869    1.0431 C   0  0  0  0  0  0  0  0  0  0  0  0
   -0.7456   -1.6603    1.6070 C   0  0  2  0  0  0  0  0  0  0  0  0
   -0.6648   -2.8124    2.5113 N   0  0  0  0  0  0  0  0  0  0  0  0
   -0.3841   -0.3419    2.3245 C   0  0  1  0  0  0  0  0  0  0  0  0
    0.9485   -0.5302    2.8246 O   0  0  0  0  0  0  0  0  0  0  0  0
    1.4571    0.4638    3.7077 C   0  0  1  0  0  0  0  0  0  0  0  0
    0.6679    0.5361    4.8920 O   0  0  0  0  0  0  0  0  0  0  0  0
    0.7448   -0.5848    5.7703 C   0  0  2  0  0  0  0  0  0  0  0  0
   -0.1620   -0.3301    6.9817 C   0  0  0  0  0  0  0  0  0  0  0  0
    0.5869    0.1978    8.1132 N   0  0  0  0  0  0  0  0  0  0  0  0
    2.1931   -0.8135    6.2413 C   0  0  1  0  0  0  0  0  0  0  0  0
    2.2530   -1.9651    7.0640 O   0  0  0  0  0  0  0  0  0  0  0  0
    3.0877   -1.0045    5.0102 C   0  0  2  0  0  0  0  0  0  0  0  0
    4.4406   -1.1299    5.4065 O   0  0  0  0  0  0  0  0  0  0  0  0
    2.9254    0.1693    4.0350 C   0  0  1  0  0  0  0  0  0  0  0  0
    3.6884   -0.0868    2.8050 N   0  0  0  0  0  0  0  0  0  0  0  0
   -0.7902    4.3569    2.3147 C   0  0  2  0  0  0  0  0  0  0  0  0
   -1.6558    5.1367    1.5110 O   0  0  0  0  0  0  0  0  0  0  0  0
    0.4345    5.1281    2.8044 C   0  0  2  0  0  0  0  0  0  0  0  0
    0.1755    6.4903    3.0811 O   0  0  0  0  0  0  0  0  0  0  0  0
  2  1  1  0  0  0  0
  3  2  1  1  0  0  0
  3 30  1  0  0  0  0
  4  5  1  0  0  0  0
  4  3  1  0  0  0  0
  5 28  1  0  0  0  0
  5  6  1  1  0  0  0
  7  6  1  1  0  0  0
  8  7  1  0  0  0  0
  8  9  1  6  0  0  0
 10 11  1  1  0  0  0
 10  8  1  0  0  0  0
 12 10  1  0  0  0  0
 13 12  1  0  0  0  0
 13 15  1  0  0  0  0
 13 14  1  1  0  0  0
 15  7  1  0  0  0  0
 15 16  1  6  0  0  0
 17 16  1  6  0  0  0
 18 17  1  0  0  0  0
 19 20  1  1  0  0  0
 19 18  1  0  0  0  0
 20 21  1  0  0  0  0
 22 24  1  0  0  0  0
 22 19  1  0  0  0  0
 22 23  1  1  0  0  0
 24 25  1  1  0  0  0
 24 26  1  0  0  0  0
 26 17  1  0  0  0  0
 26 27  1  6  0  0  0
 28 29  1  6  0  0  0
 28 30  1  0  0  0  0
 30 31  1  6  0  0  0
M  END
>  <CHROM.1>
44.32637306,-177.84966499,-95.01571564,-69.13280450,-163.44827934,-178.54397847
169.15060861,68.47396508,61.88502874,-96.63906669,-95.19528999,40.97384525
176.94066175,31.14147713,-66.35784711,-162.81218966,0.49920381,1.23623265
3.01017051,-1.98764525,0.80820450,2.80026286

>  <Name>
lig.pdb

>  <RI>
1.55206e+07

>  <Rbt.Current_Directory>
/home/itssahil/PROJECTS/Mol_Feturizer/New_Systems/rnas/2n0j

>  <Rbt.Executable>
rbdock ($Id: //depot/dev/client3/rdock/2013.1/src/exe/rbdock.cxx#4 $)

>  <Rbt.Library>
libRbt.so (2013.1, Build901 2013/11/27)

>  <Rbt.Parameter_File>
/export/apps/rDock/src/rDock_2013.1_src/data/scripts/dock_solv.prm

>  <Rbt.Receptor>
prm/blind_docking_80.prm

>  <SCORE>
-29.2935

>  <SCORE.INTER>
-34.1107

>  <SCORE.INTER.CONST>
1

>  <SCORE.INTER.POLAR>
-5.02658

>  <SCORE.INTER.ROT>
6

>  <SCORE.INTER.SOLV>
23.5354

>  <SCORE.INTER.VDW>
-21.4303

>  <SCORE.INTER.norm>
-1.10034

>  <SCORE.INTRA>
3.23291

>  <SCORE.INTRA.DIHEDRAL>
-8.91376

>  <SCORE.INTRA.DIHEDRAL.0>
28.0161

>  <SCORE.INTRA.POLAR>
0.678967

>  <SCORE.INTRA.POLAR.0>
-1.05798

>  <SCORE.INTRA.REPUL>
0

>  <SCORE.INTRA.REPUL.0>
0

>  <SCORE.INTRA.SOLV>
0.484338

>  <SCORE.INTRA.SOLV.lig_0>
-42.5945

>  <SCORE.INTRA.VDW>
5.13913

>  <SCORE.INTRA.VDW.0>
-5.13869

>  <SCORE.INTRA.norm>
0.104287

>  <SCORE.RESTR>
1.58425

>  <SCORE.RESTR.CAVITY>
1.58425

>  <SCORE.RESTR.norm>
0.0511049

>  <SCORE.SYSTEM>
0

>  <SCORE.SYSTEM.CONST>
0

>  <SCORE.SYSTEM.DIHEDRAL>
0

>  <SCORE.SYSTEM.SOLV>
0

>  <SCORE.SYSTEM.norm>
0

>  <SCORE.heavy>
31

>  <SCORE.norm>
-0.944953

>  <RMSD>
5.906

$$$$
lig.pdb
 OpenBabel11021811453D
libRbt.so/2013.1/901 2013/11/27
 31 33  0  0  0  0  0  0  0  0999 V2000
   -0.8358    6.2879    2.5293 O   0  0  0  0  0  0  0  0  0  0  0  0
    0.5433    6.4105    2.8178 C   0  0  0  0  0  0  0  0  0  0  0  0
    1.2641    5.0611    2.6959 C   0  0  1  0  0  0  0  0  0  0  0  0
    0.6203    4.0487    3.4532 O   0  0  0  0  0  0  0  0  0  0  0  0
    0.8980    2.7740    2.8817 C   0  0  1  0  0  0  0  0  0  0  0  0
   -0.3071    2.0284    2.7561 O   0  0  0  0  0  0  0  0  0  0  0  0
   -0.3669    1.0654    1.7160 C   0  0  2  0  0  0  0  0  0  0  0  0
   -1.7868    1.0990    1.1287 C   0  0  1  0  0  0  0  0  0  0  0  0
   -1.9846    2.3154    0.4253 O   0  0  0  0  0  0  0  0  0  0  0  0
   -2.0880   -0.0479    0.1520 C   0  0  2  0  0  0  0  0  0  0  0  0
   -3.4895   -0.0080   -0.2935 N   0  0  0  0  0  0  0  0  0  0  0  0
   -1.8084   -1.3852    0.8276 C   0  0  0  0  0  0  0  0  0  0  0  0
   -0.3697   -1.4160    1.3287 C   0  0  2  0  0  0  0  0  0  0  0  0
   -0.1127   -2.7318    1.9240 N   0  0  0  0  0  0  0  0  0  0  0  0
   -0.1275   -0.2730    2.3379 C   0  0  1  0  0  0  0  0  0  0  0  0
    1.2409   -0.4092    2.7507 O   0  0  0  0  0  0  0  0  0  0  0  0
    1.7481    0.5698    3.6511 C   0  0  1  0  0  0  0  0  0  0  0  0
    0.9992    0.5744    4.8635 O   0  0  0  0  0  0  0  0  0  0  0  0
    1.1432   -0.5731    5.6977 C   0  0  2  0  0  0  0  0  0  0  0  0
    0.2720   -0.3913    6.9478 C   0  0  0  0  0  0  0  0  0  0  0  0
   -0.5311   -1.5745    7.2210 N   0  0  0  0  0  0  0  0  0  0  0  0
    2.6138   -0.7695    6.1105 C   0  0  1  0  0  0  0  0  0  0  0  0
    2.7399   -1.9463    6.8888 O   0  0  0  0  0  0  0  0  0  0  0  0
    3.4701   -0.8874    4.8435 C   0  0  2  0  0  0  0  0  0  0  0  0
    4.8395   -0.9811    5.1885 O   0  0  0  0  0  0  0  0  0  0  0  0
    3.2357    0.3135    3.9172 C   0  0  1  0  0  0  0  0  0  0  0  0
    3.9626    0.1260    2.6535 N   0  0  0  0  0  0  0  0  0  0  0  0
    1.4905    3.0308    1.4885 C   0  0  2  0  0  0  0  0  0  0  0  0
    2.8696    2.7119    1.4868 O   0  0  0  0  0  0  0  0  0  0  0  0
    1.2162    4.5181    1.2712 C   0  0  2  0  0  0  0  0  0  0  0  0
    2.1313    5.1427    0.3928 O   0  0  0  0  0  0  0  0  0  0  0  0
  2  1  1  0  0  0  0
  3  2  1  6  0  0  0
  3 30  1  0  0  0  0
  4  5  1  0  0  0  0
  4  3  1  0  0  0  0
  5 28  1  0  0  0  0
  5  6  1  6  0  0  0
  7  6  1  1  0  0  0
  8  7  1  0  0  0  0
  8  9  1  6  0  0  0
 10 11  1  1  0  0  0
 10  8  1  0  0  0  0
 12 10  1  0  0  0  0
 13 12  1  0  0  0  0
 13 15  1  0  0  0  0
 13 14  1  1  0  0  0
 15  7  1  0  0  0  0
 15 16  1  6  0  0  0
 17 16  1  6  0  0  0
 18 17  1  0  0  0  0
 19 20  1  1  0  0  0
 19 18  1  0  0  0  0
 20 21  1  0  0  0  0
 22 24  1  0  0  0  0
 22 19  1  0  0  0  0
 22 23  1  1  0  0  0
 24 25  1  1  0  0  0
 24 26  1  0  0  0  0
 26 17  1  0  0  0  0
 26 27  1  6  0  0  0
 28 29  1  1  0  0  0
 28 30  1  0  0  0  0
 30 31  1  6  0  0  0
M  END
>  <CHROM.1>
-177.74119842,-52.04431478,151.92773379,-141.78861675,56.33467542,-176.83635977
6.31068390,56.53078634,59.89650360,132.00932269,-151.50834342,76.50484048
77.45913463,44.75430264,175.10179454,-61.35446648,0.76412473,1.11329144,2.96932563
-2.00174740,0.71655186,2.76802807

>  <Name>
lig.pdb

>  <RI>
0

>  <Rbt.Current_Directory>
/home/itssahil/PROJECTS/Mol_Feturizer/New_Systems/rnas/2n0j

>  <Rbt.Executable>
rbdock ($Id: //depot/dev/client3/rdock/2013.1/src/exe/rbdock.cxx#4 $)

>  <Rbt.Library>
libRbt.so (2013.1, Build901 2013/11/27)

>  <Rbt.Parameter_File>
/export/apps/rDock/src/rDock_2013.1_src/data/scripts/dock_solv.prm

>  <Rbt.Receptor>
prm/blind_docking_40.prm

>  <SCORE>
-27.3527

>  <SCORE.INTER>
-38.0475

>  <SCORE.INTER.CONST>
1

>  <SCORE.INTER.POLAR>
-5.41521

>  <SCORE.INTER.ROT>
6

>  <SCORE.INTER.SOLV>
24.5666

>  <SCORE.INTER.VDW>
-23.1031

>  <SCORE.INTER.norm>
-1.22734

>  <SCORE.INTRA>
9.27934

>  <SCORE.INTRA.DIHEDRAL>
-5.67149

>  <SCORE.INTRA.DIHEDRAL.0>
28.0161

>  <SCORE.INTRA.POLAR>
0.057985

>  <SCORE.INTRA.POLAR.0>
-1.05798

>  <SCORE.INTRA.REPUL>
0

>  <SCORE.INTRA.REPUL.0>
0

>  <SCORE.INTRA.SOLV>
1.62341

>  <SCORE.INTRA.SOLV.lig_0>
-42.5945

>  <SCORE.INTRA.VDW>
11.1062

>  <SCORE.INTRA.VDW.0>
-5.13869

>  <SCORE.INTRA.norm>
0.299333

>  <SCORE.RESTR>
1.4154

>  <SCORE.RESTR.CAVITY>
1.4154

>  <SCORE.RESTR.norm>
0.0456579

>  <SCORE.SYSTEM>
0

>  <SCORE.SYSTEM.CONST>
0

>  <SCORE.SYSTEM.DIHEDRAL>
0

>  <SCORE.SYSTEM.SOLV>
0

>  <SCORE.SYSTEM.norm>
0

>  <SCORE.heavy>
31

>  <SCORE.norm>
-0.882346

>  <RMSD>
5.911

$$$$
lig.pdb
 OpenBabel11021811453D
libRbt.so/2013.1/901 2013/11/27
 31 33  0  0  0  0  0  0  0  0999 V2000
   -7.5334   -0.6724    6.6065 O   0  0  0  0  0  0  0  0  0  0  0  0
   -6.8092   -0.7356    5.3933 C   0  0  0  0  0  0  0  0  0  0  0  0
   -6.4444    0.6654    4.8841 C   0  0  1  0  0  0  0  0  0  0  0  0
   -5.5230    1.3162    5.7447 O   0  0  0  0  0  0  0  0  0  0  0  0
   -4.7689    2.2711    5.0042 C   0  0  1  0  0  0  0  0  0  0  0  0
   -3.3848    2.1269    5.2995 O   0  0  0  0  0  0  0  0  0  0  0  0
   -2.5567    3.2596    5.0890 C   0  0  2  0  0  0  0  0  0  0  0  0
   -3.2104    4.4552    5.7998 C   0  0  1  0  0  0  0  0  0  0  0  0
   -3.1286    4.2789    7.2054 O   0  0  0  0  0  0  0  0  0  0  0  0
   -2.5639    5.8095    5.4707 C   0  0  2  0  0  0  0  0  0  0  0  0
   -3.2986    6.9139    6.1067 N   0  0  0  0  0  0  0  0  0  0  0  0
   -2.5442    6.0163    3.9608 C   0  0  0  0  0  0  0  0  0  0  0  0
   -1.8207    4.8533    3.2930 C   0  0  2  0  0  0  0  0  0  0  0  0
   -1.7690    5.1055    1.8489 N   0  0  0  0  0  0  0  0  0  0  0  0
   -2.5308    3.5213    3.6172 C   0  0  1  0  0  0  0  0  0  0  0  0
   -1.7799    2.5090    2.9295 O   0  0  0  0  0  0  0  0  0  0  0  0
   -0.5583    2.0882    3.5271 C   0  0  1  0  0  0  0  0  0  0  0  0
   -0.8054    1.1483    4.5693 O   0  0  0  0  0  0  0  0  0  0  0  0
   -1.2921   -0.1292    4.1637 C   0  0  2  0  0  0  0  0  0  0  0  0
   -1.4965   -1.0016    5.4095 C   0  0  0  0  0  0  0  0  0  0  0  0
   -2.4736   -0.4205    6.3191 N   0  0  0  0  0  0  0  0  0  0  0  0
   -0.3010   -0.8138    3.2041 C   0  0  1  0  0  0  0  0  0  0  0  0
   -0.8327   -2.0529    2.7701 O   0  0  0  0  0  0  0  0  0  0  0  0
   -0.0676    0.1050    1.9984 C   0  0  2  0  0  0  0  0  0  0  0  0
    0.9067   -0.4572    1.1394 O   0  0  0  0  0  0  0  0  0  0  0  0
    0.3710    1.5019    2.4583 C   0  0  1  0  0  0  0  0  0  0  0  0
    0.4674    2.4066    1.3038 N   0  0  0  0  0  0  0  0  0  0  0  0
   -5.0106    1.9723    3.5174 C   0  0  2  0  0  0  0  0  0  0  0  0
   -5.8116    2.9904    2.9470 O   0  0  0  0  0  0  0  0  0  0  0  0
   -5.7025    0.6105    3.5524 C   0  0  2  0  0  0  0  0  0  0  0  0
   -6.5438    0.3714    2.4415 O   0  0  0  0  0  0  0  0  0  0  0  0
  2  1  1  0  0  0  0
  3  2  1  1  0  0  0
  3 30  1  0  0  0  0
  4  5  1  0  0  0  0
  4  3  1  0  0  0  0
  5 28  1  0  0  0  0
  5  6  1  6  0  0  0
  7  6  1  6  0  0  0
  8  7  1  0  0  0  0
  8  9  1  1  0  0  0
 10 11  1  1  0  0  0
 10  8  1  0  0  0  0
 12 10  1  0  0  0  0
 13 12  1  0  0  0  0
 13 15  1  0  0  0  0
 13 14  1  6  0  0  0
 15  7  1  0  0  0  0
 15 16  1  6  0  0  0
 17 16  1  6  0  0  0
 18 17  1  0  0  0  0
 19 20  1  1  0  0  0
 19 18  1  0  0  0  0
 20 21  1  0  0  0  0
 22 24  1  0  0  0  0
 22 19  1  0  0  0  0
 22 23  1  6  0  0  0
 24 25  1  6  0  0  0
 24 26  1  0  0  0  0
 26 17  1  0  0  0  0
 26 27  1  6  0  0  0
 28 29  1  1  0  0  0
 28 30  1  0  0  0  0
 30 31  1  6  0  0  0
M  END
>  <CHROM.1>
-171.89432674,66.52620079,-156.30888324,50.82959618,-63.72212508,34.99186616
77.62150186,-42.48024586,80.52363908,61.01358327,-100.22053423,-85.59924612
52.19195946,-64.37708627,-57.73036020,-59.02927951,-2.88852161,1.91638176
4.11467449,2.94212596,0.45303955,0.14635850

>  <Name>
lig.pdb

>  <RI>
0

>  <Rbt.Current_Directory>
/home/itssahil/PROJECTS/Mol_Feturizer/New_Systems/rnas/2n0j

>  <Rbt.Executable>
rbdock ($Id: //depot/dev/client3/rdock/2013.1/src/exe/rbdock.cxx#4 $)

>  <Rbt.Library>
libRbt.so (2013.1, Build901 2013/11/27)

>  <Rbt.Parameter_File>
/export/apps/rDock/src/rDock_2013.1_src/data/scripts/dock_solv.prm

>  <Rbt.Receptor>
prm/pocket_docking_8.prm

>  <SCORE>
-35.6779

>  <SCORE.INTER>
-32.9114

>  <SCORE.INTER.CONST>
1

>  <SCORE.INTER.POLAR>
-4.94254

>  <SCORE.INTER.ROT>
6

>  <SCORE.INTER.SOLV>
11.3789

>  <SCORE.INTER.VDW>
-16.8587

>  <SCORE.INTER.norm>
-1.06166

>  <SCORE.INTRA>
-2.76652

>  <SCORE.INTRA.DIHEDRAL>
-13.0358

>  <SCORE.INTRA.DIHEDRAL.0>
28.0161

>  <SCORE.INTRA.POLAR>
0.0208497

>  <SCORE.INTRA.POLAR.0>
-1.05798

>  <SCORE.INTRA.REPUL>
0

>  <SCORE.INTRA.REPUL.0>
0

>  <SCORE.INTRA.SOLV>
0.550639

>  <SCORE.INTRA.SOLV.lig_0>
-42.5945

>  <SCORE.INTRA.VDW>
3.4052

>  <SCORE.INTRA.VDW.0>
-5.13869

>  <SCORE.INTRA.norm>
-0.0892424

>  <SCORE.RESTR>
0

>  <SCORE.RESTR.CAVITY>
0

>  <SCORE.RESTR.norm>
0

>  <SCORE.SYSTEM>
0

>  <SCORE.SYSTEM.CONST>
0

>  <SCORE.SYSTEM.DIHEDRAL>
0

>  <SCORE.SYSTEM.SOLV>
0

>  <SCORE.SYSTEM.norm>
0

>  <SCORE.heavy>
31

>  <SCORE.norm>
-1.1509

>  <RMSD>
5.913

$$$$
lig.pdb
 OpenBabel11021811453D
libRbt.so/2013.1/901 2013/11/27
 31 33  0  0  0  0  0  0  0  0999 V2000
    2.7573    6.5291    2.7508 O   0  0  0  0  0  0  0  0  0  0  0  0
    2.5623    5.1420    2.5552 C   0  0  0  0  0  0  0  0  0  0  0  0
    1.2299    4.8567    1.8492 C   0  0  1  0  0  0  0  0  0  0  0  0
    1.1183    3.4961    1.4628 O   0  0  0  0  0  0  0  0  0  0  0  0
   -0.2564    3.1316    1.3859 C   0  0  1  0  0  0  0  0  0  0  0  0
   -0.4681    1.9005    2.0667 O   0  0  0  0  0  0  0  0  0  0  0  0
   -0.5962    0.7339    1.2695 C   0  0  2  0  0  0  0  0  0  0  0  0
   -1.9769    0.7771    0.5958 C   0  0  1  0  0  0  0  0  0  0  0  0
   -2.0025    1.8107   -0.3760 O   0  0  0  0  0  0  0  0  0  0  0  0
   -2.3684   -0.5277   -0.1143 C   0  0  2  0  0  0  0  0  0  0  0  0
   -3.7360   -0.4474   -0.6504 N   0  0  0  0  0  0  0  0  0  0  0  0
   -2.2745   -1.6932    0.8634 C   0  0  0  0  0  0  0  0  0  0  0  0
   -0.8712   -1.7557    1.4540 C   0  0  2  0  0  0  0  0  0  0  0  0
   -0.7938   -2.9166    2.3472 N   0  0  0  0  0  0  0  0  0  0  0  0
   -0.5400   -0.4409    2.1926 C   0  0  1  0  0  0  0  0  0  0  0  0
    0.7849   -0.6186    2.7165 O   0  0  0  0  0  0  0  0  0  0  0  0
    1.2469    0.3470    3.6550 C   0  0  1  0  0  0  0  0  0  0  0  0
    0.4622    0.3090    4.8439 O   0  0  0  0  0  0  0  0  0  0  0  0
    0.6021   -0.8558    5.6545 C   0  0  2  0  0  0  0  0  0  0  0  0
   -0.3093   -0.7197    6.8815 C   0  0  0  0  0  0  0  0  0  0  0  0
   -0.7415   -2.0185    7.3777 N   0  0  0  0  0  0  0  0  0  0  0  0
    2.0631   -1.0363    6.1070 C   0  0  1  0  0  0  0  0  0  0  0  0
    2.1873   -2.2293    6.8605 O   0  0  0  0  0  0  0  0  0  0  0  0
    2.9589   -1.1083    4.8641 C   0  0  2  0  0  0  0  0  0  0  0  0
    4.3188   -1.1863    5.2482 O   0  0  0  0  0  0  0  0  0  0  0  0
    2.7304    0.1105    3.9600 C   0  0  1  0  0  0  0  0  0  0  0  0
    3.4981   -0.0334    2.7148 N   0  0  0  0  0  0  0  0  0  0  0  0
   -1.0515    4.2463    2.0814 C   0  0  2  0  0  0  0  0  0  0  0  0
   -1.7712    4.9947    1.1194 O   0  0  0  0  0  0  0  0  0  0  0  0
    0.0389    5.0558    2.7813 C   0  0  2  0  0  0  0  0  0  0  0  0
   -0.3030    6.4124    2.9863 O   0  0  0  0  0  0  0  0  0  0  0  0
  2  1  1  0  0  0  0
  3  2  1  1  0  0  0
  3 30  1  0  0  0  0
  4  5  1  0  0  0  0
  4  3  1  0  0  0  0
  5 28  1  0  0  0  0
  5  6  1  1  0  0  0
  7  6  1  1  0  0  0
  8  7  1  0  0  0  0
  8  9  1  6  0  0  0
 10 11  1  1  0  0  0
 10  8  1  0  0  0  0
 12 10  1  0  0  0  0
 13 12  1  0  0  0  0
 13 15  1  0  0  0  0
 13 14  1  1  0  0  0
 15  7  1  0  0  0  0
 15 16  1  6  0  0  0
 17 16  1  6  0  0  0
 18 17  1  0  0  0  0
 19 20  1  1  0  0  0
 19 18  1  0  0  0  0
 20 21  1  0  0  0  0
 22 24  1  0  0  0  0
 22 19  1  0  0  0  0
 22 23  1  6  0  0  0
 24 25  1  1  0  0  0
 24 26  1  0  0  0  0
 26 17  1  0  0  0  0
 26 27  1  6  0  0  0
 28 29  1  6  0  0  0
 28 30  1  0  0  0  0
 30 31  1  6  0  0  0
M  END
>  <CHROM.1>
-56.93602010,170.86482191,-101.93171566,-73.61029984,-85.38087991,64.31753115
175.15321463,70.55304304,64.26795388,151.62996634,72.52204913,170.27397960
84.15343362,32.65993528,178.01938925,-78.69117645,0.28386139,1.04872082,2.90260707
-1.87426403,0.77429621,2.79701375

>  <Name>
lig.pdb

>  <RI>
0

>  <Rbt.Current_Directory>
/home/itssahil/PROJECTS/Mol_Feturizer/New_Systems/rnas/2n0j

>  <Rbt.Executable>
rbdock ($Id: //depot/dev/client3/rdock/2013.1/src/exe/rbdock.cxx#4 $)

>  <Rbt.Library>
libRbt.so (2013.1, Build901 2013/11/27)

>  <Rbt.Parameter_File>
/export/apps/rDock/src/rDock_2013.1_src/data/scripts/dock_solv.prm

>  <Rbt.Receptor>
prm/blind_docking_40.prm

>  <SCORE>
-37.7912

>  <SCORE.INTER>
-40.3026

>  <SCORE.INTER.CONST>
1

>  <SCORE.INTER.POLAR>
-6.12294

>  <SCORE.INTER.ROT>
6

>  <SCORE.INTER.SOLV>
24.2913

>  <SCORE.INTER.VDW>
-22.1557

>  <SCORE.INTER.norm>
-1.30008

>  <SCORE.INTRA>
1.14844

>  <SCORE.INTRA.DIHEDRAL>
-8.46074

>  <SCORE.INTRA.DIHEDRAL.0>
28.0161

>  <SCORE.INTRA.POLAR>
0.931246

>  <SCORE.INTRA.POLAR.0>
-1.05798

>  <SCORE.INTRA.REPUL>
0

>  <SCORE.INTRA.REPUL.0>
0

>  <SCORE.INTRA.SOLV>
0.503194

>  <SCORE.INTRA.SOLV.lig_0>
-42.5945

>  <SCORE.INTRA.VDW>
1.96097

>  <SCORE.INTRA.VDW.0>
-5.13869

>  <SCORE.INTRA.norm>
0.0370463

>  <SCORE.RESTR>
1.36294

>  <SCORE.RESTR.CAVITY>
1.36294

>  <SCORE.RESTR.norm>
0.0439658

>  <SCORE.SYSTEM>
0

>  <SCORE.SYSTEM.CONST>
0

>  <SCORE.SYSTEM.DIHEDRAL>
0

>  <SCORE.SYSTEM.SOLV>
0

>  <SCORE.SYSTEM.norm>
0

>  <SCORE.heavy>
31

>  <SCORE.norm>
-1.21907

>  <RMSD>
5.921

$$$$
lig.pdb
 OpenBabel11021811453D
libRbt.so/2013.1/901 2013/11/27
 31 33  0  0  0  0  0  0  0  0999 V2000
    3.5438    4.2922    2.2313 O   0  0  0  0  0  0  0  0  0  0  0  0
    2.4860    5.1291    2.6565 C   0  0  0  0  0  0  0  0  0  0  0  0
    1.1860    4.8171    1.9030 C   0  0  1  0  0  0  0  0  0  0  0  0
    1.1084    3.4509    1.5283 O   0  0  0  0  0  0  0  0  0  0  0  0
   -0.2572    3.0659    1.4027 C   0  0  1  0  0  0  0  0  0  0  0  0
   -0.4779    1.8394    2.0889 O   0  0  0  0  0  0  0  0  0  0  0  0
   -0.6219    0.6713    1.2966 C   0  0  2  0  0  0  0  0  0  0  0  0
   -1.9665    0.7697    0.5587 C   0  0  1  0  0  0  0  0  0  0  0  0
   -1.8999    1.7930   -0.4221 O   0  0  0  0  0  0  0  0  0  0  0  0
   -2.3839   -0.5236   -0.1579 C   0  0  2  0  0  0  0  0  0  0  0  0
   -3.7200   -0.3873   -0.7581 N   0  0  0  0  0  0  0  0  0  0  0  0
   -2.3886   -1.6817    0.8330 C   0  0  0  0  0  0  0  0  0  0  0  0
   -1.0185   -1.8012    1.4891 C   0  0  2  0  0  0  0  0  0  0  0  0
   -1.0357   -2.9549    2.3949 N   0  0  0  0  0  0  0  0  0  0  0  0
   -0.6623   -0.4950    2.2312 C   0  0  1  0  0  0  0  0  0  0  0  0
    0.6274   -0.7267    2.8181 O   0  0  0  0  0  0  0  0  0  0  0  0
    1.1686    0.3119    3.6274 C   0  0  1  0  0  0  0  0  0  0  0  0
    0.5107    0.3602    4.8906 O   0  0  0  0  0  0  0  0  0  0  0  0
    0.7508   -0.7374    5.7687 C   0  0  2  0  0  0  0  0  0  0  0  0
   -0.0318   -0.5135    7.0695 C   0  0  0  0  0  0  0  0  0  0  0  0
   -0.8378   -1.6744    7.4194 N   0  0  0  0  0  0  0  0  0  0  0  0
    2.2530   -0.8718    6.0799 C   0  0  1  0  0  0  0  0  0  0  0  0
    2.4721   -2.0021    6.9052 O   0  0  0  0  0  0  0  0  0  0  0  0
    3.0175   -1.0332    4.7601 C   0  0  2  0  0  0  0  0  0  0  0  0
    4.4107   -1.0715    5.0062 O   0  0  0  0  0  0  0  0  0  0  0  0
    2.6790    0.1104    3.7943 C   0  0  1  0  0  0  0  0  0  0  0  0
    3.3169   -0.1238    2.4909 N   0  0  0  0  0  0  0  0  0  0  0  0
   -1.0940    4.1765    2.0542 C   0  0  2  0  0  0  0  0  0  0  0  0
   -1.7863    4.9040    1.0566 O   0  0  0  0  0  0  0  0  0  0  0  0
   -0.0428    5.0093    2.7862 C   0  0  2  0  0  0  0  0  0  0  0  0
   -0.4112    6.3629    2.9623 O   0  0  0  0  0  0  0  0  0  0  0  0
  2  1  1  0  0  0  0
  3  2  1  1  0  0  0
  3 30  1  0  0  0  0
  4  5  1  0  0  0  0
  4  3  1  0  0  0  0
  5 28  1  0  0  0  0
  5  6  1  1  0  0  0
  7  6  1  1  0  0  0
  8  7  1  0  0  0  0
  8  9  1  6  0  0  0
 10 11  1  1  0  0  0
 10  8  1  0  0  0  0
 12 10  1  0  0  0  0
 13 12  1  0  0  0  0
 13 15  1  0  0  0  0
 13 14  1  1  0  0  0
 15  7  1  0  0  0  0
 15 16  1  6  0  0  0
 17 16  1  6  0  0  0
 18 17  1  0  0  0  0
 19 20  1  1  0  0  0
 19 18  1  0  0  0  0
 20 21  1  0  0  0  0
 22 24  1  0  0  0  0
 22 19  1  0  0  0  0
 22 23  1  1  0  0  0
 24 25  1  1  0  0  0
 24 26  1  0  0  0  0
 26 17  1  0  0  0  0
 26 27  1  6  0  0  0
 28 29  1  6  0  0  0
 28 30  1  0  0  0  0
 30 31  1  6  0  0  0
M  END
>  <CHROM.1>
66.14372601,30.52105113,-104.83235712,-70.00803063,67.46394496,-52.92486471
-177.79773358,62.26000122,74.75513347,128.62801980,92.05288716,-57.22794828
178.51313446,159.62409664,179.37993183,-75.23416835,0.29883787,0.98123854
2.87030026,-2.04300732,0.75133032,2.76352741

>  <Name>
lig.pdb

>  <RI>
1.55206e+07

>  <Rbt.Current_Directory>
/home/itssahil/PROJECTS/Mol_Feturizer/New_Systems/rnas/2n0j

>  <Rbt.Executable>
rbdock ($Id: //depot/dev/client3/rdock/2013.1/src/exe/rbdock.cxx#4 $)

>  <Rbt.Library>
libRbt.so (2013.1, Build901 2013/11/27)

>  <Rbt.Parameter_File>
/export/apps/rDock/src/rDock_2013.1_src/data/scripts/dock_solv.prm

>  <Rbt.Receptor>
prm/blind_docking_80.prm

>  <SCORE>
-38.6689

>  <SCORE.INTER>
-42.3537

>  <SCORE.INTER.CONST>
1

>  <SCORE.INTER.POLAR>
-5.36211

>  <SCORE.INTER.ROT>
6

>  <SCORE.INTER.SOLV>
24.2068

>  <SCORE.INTER.VDW>
-26.0311

>  <SCORE.INTER.norm>
-1.36625

>  <SCORE.INTRA>
2.34935

>  <SCORE.INTRA.DIHEDRAL>
-7.88578

>  <SCORE.INTRA.DIHEDRAL.0>
28.0161

>  <SCORE.INTRA.POLAR>
1.05237

>  <SCORE.INTRA.POLAR.0>
-1.05798

>  <SCORE.INTRA.REPUL>
0

>  <SCORE.INTRA.REPUL.0>
0

>  <SCORE.INTRA.SOLV>
-0.513863

>  <SCORE.INTRA.SOLV.lig_0>
-42.5945

>  <SCORE.INTRA.VDW>
2.97111

>  <SCORE.INTRA.VDW.0>
-5.13869

>  <SCORE.INTRA.norm>
0.0757855

>  <SCORE.RESTR>
1.33545

>  <SCORE.RESTR.CAVITY>
1.33545

>  <SCORE.RESTR.norm>
0.0430791

>  <SCORE.SYSTEM>
0

>  <SCORE.SYSTEM.CONST>
0

>  <SCORE.SYSTEM.DIHEDRAL>
0

>  <SCORE.SYSTEM.SOLV>
0

>  <SCORE.SYSTEM.norm>
0

>  <SCORE.heavy>
31

>  <SCORE.norm>
-1.24739

>  <RMSD>
5.928

$$$$
lig.pdb
 OpenBabel11021811453D
libRbt.so/2013.1/901 2013/11/27
 31 33  0  0  0  0  0  0  0  0999 V2000
    3.2929    4.2808    2.7992 O   0  0  0  0  0  0  0  0  0  0  0  0
    2.5376    5.4111    2.4091 C   0  0  0  0  0  0  0  0  0  0  0  0
    1.1983    5.0016    1.7815 C   0  0  1  0  0  0  0  0  0  0  0  0
    1.1890    3.6340    1.4037 O   0  0  0  0  0  0  0  0  0  0  0  0
   -0.1491    3.1458    1.4068 C   0  0  1  0  0  0  0  0  0  0  0  0
   -0.2086    1.9050    2.1000 O   0  0  0  0  0  0  0  0  0  0  0  0
   -0.3765    0.7337    1.3172 C   0  0  2  0  0  0  0  0  0  0  0  0
   -1.7119    0.8602    0.5669 C   0  0  1  0  0  0  0  0  0  0  0  0
   -1.6104    1.8722   -0.4225 O   0  0  0  0  0  0  0  0  0  0  0  0
   -2.1570   -0.4284   -0.1413 C   0  0  2  0  0  0  0  0  0  0  0  0
   -3.4841   -0.2629   -0.7541 N   0  0  0  0  0  0  0  0  0  0  0  0
   -2.2002   -1.5767    0.8600 C   0  0  0  0  0  0  0  0  0  0  0  0
   -0.8392   -1.7257    1.5289 C   0  0  2  0  0  0  0  0  0  0  0  0
   -0.8940   -2.8701    2.4450 N   0  0  0  0  0  0  0  0  0  0  0  0
   -0.4551   -0.4224    2.2620 C   0  0  1  0  0  0  0  0  0  0  0  0
    0.8232   -0.6822    2.8619 O   0  0  0  0  0  0  0  0  0  0  0  0
    1.3496    0.3180    3.7275 C   0  0  1  0  0  0  0  0  0  0  0  0
    0.6958    0.2831    4.9931 O   0  0  0  0  0  0  0  0  0  0  0  0
    0.9579   -0.8582    5.8068 C   0  0  2  0  0  0  0  0  0  0  0  0
    0.1765   -0.7221    7.1205 C   0  0  0  0  0  0  0  0  0  0  0  0
   -1.2525   -0.9152    6.9193 N   0  0  0  0  0  0  0  0  0  0  0  0
    2.4634   -0.9841    6.1057 C   0  0  1  0  0  0  0  0  0  0  0  0
    2.7049   -2.1554    6.8648 O   0  0  0  0  0  0  0  0  0  0  0  0
    3.2256   -1.0570    4.7767 C   0  0  2  0  0  0  0  0  0  0  0  0
    4.6201   -1.0850    5.0163 O   0  0  0  0  0  0  0  0  0  0  0  0
    2.8638    0.1335    3.8784 C   0  0  1  0  0  0  0  0  0  0  0  0
    3.5007   -0.0152    2.5621 N   0  0  0  0  0  0  0  0  0  0  0  0
   -1.0010    4.1881    2.1456 C   0  0  2  0  0  0  0  0  0  0  0  0
   -1.8398    4.8620    1.2260 O   0  0  0  0  0  0  0  0  0  0  0  0
    0.0496    5.0977    2.7806 C   0  0  2  0  0  0  0  0  0  0  0  0
   -0.4019    6.4189    3.0034 O   0  0  0  0  0  0  0  0  0  0  0  0
  2  1  1  0  0  0  0
  3  2  1  1  0  0  0
  3 30  1  0  0  0  0
  4  5  1  0  0  0  0
  4  3  1  0  0  0  0
  5 28  1  0  0  0  0
  5  6  1  1  0  0  0
  7  6  1  1  0  0  0
  8  7  1  0  0  0  0
  8  9  1  6  0  0  0
 10 11  1  1  0  0  0
 10  8  1  0  0  0  0
 12 10  1  0  0  0  0
 13 12  1  0  0  0  0
 13 15  1  0  0  0  0
 13 14  1  1  0  0  0
 15  7  1  0  0  0  0
 15 16  1  6  0  0  0
 17 16  1  6  0  0  0
 18 17  1  0  0  0  0
 19 20  1  1  0  0  0
 19 18  1  0  0  0  0
 20 21  1  0  0  0  0
 22 24  1  0  0  0  0
 22 19  1  0  0  0  0
 22 23  1  1  0  0  0
 24 25  1  1  0  0  0
 24 26  1  0  0  0  0
 26 17  1  0  0  0  0
 26 27  1  6  0  0  0
 28 29  1  6  0  0  0
 28 30  1  0  0  0  0
 30 31  1  6  0  0  0
M  END
>  <CHROM.1>
179.11963505,-16.29895630,-106.53355709,-60.91038827,60.54742263,-56.66953008
58.24918513,65.75183145,76.52407340,71.91638095,-175.91624864,-56.13783866
71.27143234,160.29556541,-171.09731072,-80.02018334,0.42836029,1.04657689
2.89482205,-2.07252405,0.75109547,2.81371614

>  <Name>
lig.pdb

>  <RI>
0

>  <Rbt.Current_Directory>
/home/itssahil/PROJECTS/Mol_Feturizer/New_Systems/rnas/2n0j

>  <Rbt.Executable>
rbdock ($Id: //depot/dev/client3/rdock/2013.1/src/exe/rbdock.cxx#4 $)

>  <Rbt.Library>
libRbt.so (2013.1, Build901 2013/11/27)

>  <Rbt.Parameter_File>
/export/apps/rDock/src/rDock_2013.1_src/data/scripts/dock_solv.prm

>  <Rbt.Receptor>
prm/blind_docking_40.prm

>  <SCORE>
-37.9677

>  <SCORE.INTER>
-39.6698

>  <SCORE.INTER.CONST>
1

>  <SCORE.INTER.POLAR>
-5.39701

>  <SCORE.INTER.ROT>
6

>  <SCORE.INTER.SOLV>
24.4856

>  <SCORE.INTER.VDW>
-24.2184

>  <SCORE.INTER.norm>
-1.27967

>  <SCORE.INTRA>
1.14293

>  <SCORE.INTRA.DIHEDRAL>
-11.3042

>  <SCORE.INTRA.DIHEDRAL.0>
28.0161

>  <SCORE.INTRA.POLAR>
1.05475

>  <SCORE.INTRA.POLAR.0>
-1.05798

>  <SCORE.INTRA.REPUL>
0

>  <SCORE.INTRA.REPUL.0>
0

>  <SCORE.INTRA.SOLV>
-0.299541

>  <SCORE.INTRA.SOLV.lig_0>
-42.5945

>  <SCORE.INTRA.VDW>
3.35866

>  <SCORE.INTRA.VDW.0>
-5.13869

>  <SCORE.INTRA.norm>
0.0368687

>  <SCORE.RESTR>
0.559259

>  <SCORE.RESTR.CAVITY>
0.559259

>  <SCORE.RESTR.norm>
0.0180406

>  <SCORE.SYSTEM>
0

>  <SCORE.SYSTEM.CONST>
0

>  <SCORE.SYSTEM.DIHEDRAL>
0

>  <SCORE.SYSTEM.SOLV>
0

>  <SCORE.SYSTEM.norm>
0

>  <SCORE.heavy>
31

>  <SCORE.norm>
-1.22476

>  <RMSD>
5.932

$$$$
lig.pdb
 OpenBabel11021811453D
libRbt.so/2013.1/901 2013/11/27
 31 33  0  0  0  0  0  0  0  0999 V2000
    3.5198    4.2265    2.2319 O   0  0  0  0  0  0  0  0  0  0  0  0
    2.4771    5.1118    2.5910 C   0  0  0  0  0  0  0  0  0  0  0  0
    1.1781    4.7815    1.8434 C   0  0  1  0  0  0  0  0  0  0  0  0
    1.1091    3.4101    1.4864 O   0  0  0  0  0  0  0  0  0  0  0  0
   -0.2541    3.0146    1.3677 C   0  0  1  0  0  0  0  0  0  0  0  0
   -0.4658    1.7956    2.0700 O   0  0  0  0  0  0  0  0  0  0  0  0
   -0.6049    0.6168    1.2929 C   0  0  2  0  0  0  0  0  0  0  0  0
   -1.9260    0.7228    0.5147 C   0  0  1  0  0  0  0  0  0  0  0  0
   -1.8154    1.7285   -0.4802 O   0  0  0  0  0  0  0  0  0  0  0  0
   -2.3424   -0.5758   -0.1926 C   0  0  2  0  0  0  0  0  0  0  0  0
   -3.6584   -0.4297   -0.8335 N   0  0  0  0  0  0  0  0  0  0  0  0
   -2.3935   -1.7170    0.8164 C   0  0  0  0  0  0  0  0  0  0  0  0
   -1.0449   -1.8460    1.5140 C   0  0  2  0  0  0  0  0  0  0  0  0
   -1.1059   -2.9840    2.4375 N   0  0  0  0  0  0  0  0  0  0  0  0
   -0.6901   -0.5331    2.2448 C   0  0  1  0  0  0  0  0  0  0  0  0
    0.5784   -0.7742    2.8725 O   0  0  0  0  0  0  0  0  0  0  0  0
    1.1182    0.2745    3.6697 C   0  0  1  0  0  0  0  0  0  0  0  0
    0.4828    0.3156    4.9446 O   0  0  0  0  0  0  0  0  0  0  0  0
    0.7558   -0.7761    5.8205 C   0  0  2  0  0  0  0  0  0  0  0  0
   -0.0063   -0.5612    7.1349 C   0  0  0  0  0  0  0  0  0  0  0  0
   -1.3959   -0.9818    7.0264 N   0  0  0  0  0  0  0  0  0  0  0  0
    2.2654   -0.8866    6.1044 C   0  0  1  0  0  0  0  0  0  0  0  0
    2.5169   -2.0114    6.9278 O   0  0  0  0  0  0  0  0  0  0  0  0
    3.0081   -1.0392    4.7712 C   0  0  2  0  0  0  0  0  0  0  0  0
    4.4059   -1.0554    4.9918 O   0  0  0  0  0  0  0  0  0  0  0  0
    2.6343    0.0967    3.8094 C   0  0  1  0  0  0  0  0  0  0  0  0
    3.2518   -0.1306    2.4950 N   0  0  0  0  0  0  0  0  0  0  0  0
   -1.0974    4.1280    2.0060 C   0  0  2  0  0  0  0  0  0  0  0  0
   -1.7957    4.8380    1.0001 O   0  0  0  0  0  0  0  0  0  0  0  0
   -0.0507    4.9770    2.7258 C   0  0  2  0  0  0  0  0  0  0  0  0
   -0.4278    6.3304    2.8849 O   0  0  0  0  0  0  0  0  0  0  0  0
  2  1  1  0  0  0  0
  3  2  1  1  0  0  0
  3 30  1  0  0  0  0
  4  5  1  0  0  0  0
  4  3  1  0  0  0  0
  5 28  1  0  0  0  0
  5  6  1  1  0  0  0
  7  6  1  1  0  0  0
  8  7  1  0  0  0  0
  8  9  1  6  0  0  0
 10 11  1  1  0  0  0
 10  8  1  0  0  0  0
 12 10  1  0  0  0  0
 13 12  1  0  0  0  0
 13 15  1  0  0  0  0
 13 14  1  1  0  0  0
 15  7  1  0  0  0  0
 15 16  1  6  0  0  0
 17 16  1  6  0  0  0
 18 17  1  0  0  0  0
 19 20  1  1  0  0  0
 19 18  1  0  0  0  0
 20 21  1  0  0  0  0
 22 24  1  0  0  0  0
 22 19  1  0  0  0  0
 22 23  1  1  0  0  0
 24 25  1  1  0  0  0
 24 26  1  0  0  0  0
 26 17  1  0  0  0  0
 26 27  1  6  0  0  0
 28 29  1  6  0  0  0
 28 30  1  0  0  0  0
 30 31  1  6  0  0  0
M  END
>  <CHROM.1>
-179.13212835,27.11655618,-104.91252611,-67.82554768,173.16938316,-166.84869068
-59.42504362,61.66331203,78.31052482,81.68482358,176.98570931,-60.23991562
177.82071371,158.46315684,176.87946988,-76.57520953,0.27179780,0.97377343
2.84879169,-2.06599760,0.75136222,2.76172388

>  <Name>
lig.pdb

>  <RI>
0

>  <Rbt.Current_Directory>
/home/itssahil/PROJECTS/Mol_Feturizer/New_Systems/rnas/2n0j

>  <Rbt.Executable>
rbdock ($Id: //depot/dev/client3/rdock/2013.1/src/exe/rbdock.cxx#4 $)

>  <Rbt.Library>
libRbt.so (2013.1, Build901 2013/11/27)

>  <Rbt.Parameter_File>
/export/apps/rDock/src/rDock_2013.1_src/data/scripts/dock_solv.prm

>  <Rbt.Receptor>
prm/blind_docking_40.prm

>  <SCORE>
-35.7076

>  <SCORE.INTER>
-37.172

>  <SCORE.INTER.CONST>
1

>  <SCORE.INTER.POLAR>
-4.7127

>  <SCORE.INTER.ROT>
6

>  <SCORE.INTER.SOLV>
23.3488

>  <SCORE.INTER.VDW>
-24.4553

>  <SCORE.INTER.norm>
-1.1991

>  <SCORE.INTRA>
0.537315

>  <SCORE.INTRA.DIHEDRAL>
-12.21

>  <SCORE.INTRA.DIHEDRAL.0>
28.0161

>  <SCORE.INTRA.POLAR>
1.05543

>  <SCORE.INTRA.POLAR.0>
-1.05798

>  <SCORE.INTRA.REPUL>
0

>  <SCORE.INTRA.REPUL.0>
0

>  <SCORE.INTRA.SOLV>
-0.745878

>  <SCORE.INTRA.SOLV.lig_0>
-42.5945

>  <SCORE.INTRA.VDW>
3.4268

>  <SCORE.INTRA.VDW.0>
-5.13869

>  <SCORE.INTRA.norm>
0.0173328

>  <SCORE.RESTR>
0.927155

>  <SCORE.RESTR.CAVITY>
0.927155

>  <SCORE.RESTR.norm>
0.0299082

>  <SCORE.SYSTEM>
0

>  <SCORE.SYSTEM.CONST>
0

>  <SCORE.SYSTEM.DIHEDRAL>
0

>  <SCORE.SYSTEM.SOLV>
0

>  <SCORE.SYSTEM.norm>
0

>  <SCORE.heavy>
31

>  <SCORE.norm>
-1.15186

>  <RMSD>
5.937

$$$$
lig.pdb
 OpenBabel11021811453D
libRbt.so/2013.1/901 2013/11/27
 31 33  0  0  0  0  0  0  0  0999 V2000
   -6.3608   -3.3103    0.5823 O   0  0  0  0  0  0  0  0  0  0  0  0
   -6.5156   -2.0898   -0.1152 C   0  0  0  0  0  0  0  0  0  0  0  0
   -6.2421   -0.8848    0.7949 C   0  0  1  0  0  0  0  0  0  0  0  0
   -4.8950   -0.8540    1.2390 O   0  0  0  0  0  0  0  0  0  0  0  0
   -4.5197    0.4874    1.5368 C   0  0  1  0  0  0  0  0  0  0  0  0
   -3.2634    0.7814    0.9377 O   0  0  0  0  0  0  0  0  0  0  0  0
   -2.1047    0.2793    1.5844 C   0  0  2  0  0  0  0  0  0  0  0  0
   -2.3039   -1.2299    1.7955 C   0  0  1  0  0  0  0  0  0  0  0  0
   -2.2637   -1.8972    0.5439 O   0  0  0  0  0  0  0  0  0  0  0  0
   -1.2431   -1.8820    2.6953 C   0  0  2  0  0  0  0  0  0  0  0  0
   -1.5506   -3.3011    2.9313 N   0  0  0  0  0  0  0  0  0  0  0  0
   -1.1792   -1.1480    4.0296 C   0  0  0  0  0  0  0  0  0  0  0  0
   -0.9025    0.3310    3.7889 C   0  0  2  0  0  0  0  0  0  0  0  0
   -0.7921    1.0010    5.0891 N   0  0  0  0  0  0  0  0  0  0  0  0
   -2.0158    0.9511    2.9172 C   0  0  1  0  0  0  0  0  0  0  0  0
   -1.6627    2.3351    2.7713 O   0  0  0  0  0  0  0  0  0  0  0  0
   -2.6511    3.2036    2.2279 C   0  0  1  0  0  0  0  0  0  0  0  0
   -3.8794    3.0755    2.9390 O   0  0  0  0  0  0  0  0  0  0  0  0
   -3.8856    3.5624    4.2793 C   0  0  2  0  0  0  0  0  0  0  0  0
   -5.2802    3.3439    4.8809 C   0  0  0  0  0  0  0  0  0  0  0  0
   -6.3119    4.0211    4.1084 N   0  0  0  0  0  0  0  0  0  0  0  0
   -3.5283    5.0598    4.3200 C   0  0  1  0  0  0  0  0  0  0  0  0
   -3.4837    5.5053    5.6639 O   0  0  0  0  0  0  0  0  0  0  0  0
   -2.1587    5.2582    3.6587 C   0  0  2  0  0  0  0  0  0  0  0  0
   -1.8408    6.6361    3.6017 O   0  0  0  0  0  0  0  0  0  0  0  0
   -2.1440    4.6500    2.2498 C   0  0  1  0  0  0  0  0  0  0  0  0
   -0.7925    4.7332    1.6779 N   0  0  0  0  0  0  0  0  0  0  0  0
   -5.6012    1.3958    0.9340 C   0  0  2  0  0  0  0  0  0  0  0  0
   -6.3759    1.9721    1.9691 O   0  0  0  0  0  0  0  0  0  0  0  0
   -6.3964    0.4370    0.0493 C   0  0  2  0  0  0  0  0  0  0  0  0
   -7.7414    0.8267   -0.1462 O   0  0  0  0  0  0  0  0  0  0  0  0
  2  1  1  0  0  0  0
  3  2  1  6  0  0  0
  3 30  1  0  0  0  0
  4  5  1  0  0  0  0
  4  3  1  0  0  0  0
  5 28  1  0  0  0  0
  5  6  1  6  0  0  0
  7  6  1  1  0  0  0
  8  7  1  0  0  0  0
  8  9  1  6  0  0  0
 10 11  1  1  0  0  0
 10  8  1  0  0  0  0
 12 10  1  0  0  0  0
 13 12  1  0  0  0  0
 13 15  1  0  0  0  0
 13 14  1  1  0  0  0
 15  7  1  0  0  0  0
 15 16  1  6  0  0  0
 17 16  1  1  0  0  0
 18 17  1  0  0  0  0
 19 20  1  6  0  0  0
 19 18  1  0  0  0  0
 20 21  1  0  0  0  0
 22 24  1  0  0  0  0
 22 19  1  0  0  0  0
 22 23  1  1  0  0  0
 24 25  1  6  0  0  0
 24 26  1  0  0  0  0
 26 17  1  0  0  0  0
 26 27  1  1  0  0  0
 28 29  1  1  0  0  0
 28 30  1  0  0  0  0
 30 31  1  1  0  0  0
M  END
>  <CHROM.1>
-176.82322035,64.23816714,-77.75193634,52.66595723,62.89905656,67.32062689
-172.35289071,71.01967344,52.19291149,-58.71010242,-54.38142978,-175.11831965
139.61260234,-65.50833450,-174.59941455,174.81218131,-3.56191617,1.40812675
2.43921695,1.86878947,0.36877749,-2.82543994

>  <Name>
lig.pdb

>  <RI>
0

>  <Rbt.Current_Directory>
/home/itssahil/PROJECTS/Mol_Feturizer/New_Systems/rnas/2n0j

>  <Rbt.Executable>
rbdock ($Id: //depot/dev/client3/rdock/2013.1/src/exe/rbdock.cxx#4 $)

>  <Rbt.Library>
libRbt.so (2013.1, Build901 2013/11/27)

>  <Rbt.Parameter_File>
/export/apps/rDock/src/rDock_2013.1_src/data/scripts/dock_solv.prm

>  <Rbt.Receptor>
prm/pocket_docking_8.prm

>  <SCORE>
-44.0794

>  <SCORE.INTER>
-37.754

>  <SCORE.INTER.CONST>
1

>  <SCORE.INTER.POLAR>
-5.90703

>  <SCORE.INTER.ROT>
6

>  <SCORE.INTER.SOLV>
15.0224

>  <SCORE.INTER.VDW>
-18.0867

>  <SCORE.INTER.norm>
-1.21787

>  <SCORE.INTRA>
-6.32541

>  <SCORE.INTRA.DIHEDRAL>
-18.5959

>  <SCORE.INTRA.DIHEDRAL.0>
28.0161

>  <SCORE.INTRA.POLAR>
0.0364666

>  <SCORE.INTRA.POLAR.0>
-1.05798

>  <SCORE.INTRA.REPUL>
0

>  <SCORE.INTRA.REPUL.0>
0

>  <SCORE.INTRA.SOLV>
1.56631

>  <SCORE.INTRA.SOLV.lig_0>
-42.5945

>  <SCORE.INTRA.VDW>
2.06539

>  <SCORE.INTRA.VDW.0>
-5.13869

>  <SCORE.INTRA.norm>
-0.204045

>  <SCORE.RESTR>
0

>  <SCORE.RESTR.CAVITY>
0

>  <SCORE.RESTR.norm>
0

>  <SCORE.SYSTEM>
0

>  <SCORE.SYSTEM.CONST>
0

>  <SCORE.SYSTEM.DIHEDRAL>
0

>  <SCORE.SYSTEM.SOLV>
0

>  <SCORE.SYSTEM.norm>
0

>  <SCORE.heavy>
31

>  <SCORE.norm>
-1.42192

>  <RMSD>
5.938

$$$$
lig.pdb
 OpenBabel11021811453D
libRbt.so/2013.1/901 2013/11/27
 31 33  0  0  0  0  0  0  0  0999 V2000
    3.0470    6.2659    2.5970 O   0  0  0  0  0  0  0  0  0  0  0  0
    2.7688    4.8846    2.4752 C   0  0  0  0  0  0  0  0  0  0  0  0
    1.4042    4.6432    1.8158 C   0  0  1  0  0  0  0  0  0  0  0  0
    1.2313    3.2851    1.4432 O   0  0  0  0  0  0  0  0  0  0  0  0
   -0.1575    2.9698    1.4147 C   0  0  1  0  0  0  0  0  0  0  0  0
   -0.3902    1.7513    2.1110 O   0  0  0  0  0  0  0  0  0  0  0  0
   -0.5159    0.5735    1.3302 C   0  0  2  0  0  0  0  0  0  0  0  0
   -1.8009    0.7001    0.4965 C   0  0  1  0  0  0  0  0  0  0  0  0
   -1.6314    1.7019   -0.4940 O   0  0  0  0  0  0  0  0  0  0  0  0
   -2.2086   -0.5928   -0.2262 C   0  0  2  0  0  0  0  0  0  0  0  0
   -3.4936   -0.4259   -0.9226 N   0  0  0  0  0  0  0  0  0  0  0  0
   -2.3215   -1.7310    0.7810 C   0  0  0  0  0  0  0  0  0  0  0  0
   -1.0061   -1.8811    1.5353 C   0  0  2  0  0  0  0  0  0  0  0  0
   -1.1252   -3.0163    2.4567 N   0  0  0  0  0  0  0  0  0  0  0  0
   -0.6607   -0.5729    2.2789 C   0  0  1  0  0  0  0  0  0  0  0  0
    0.5759   -0.8340    2.9602 O   0  0  0  0  0  0  0  0  0  0  0  0
    1.1557    0.2428    3.6889 C   0  0  1  0  0  0  0  0  0  0  0  0
    0.5111    0.4019    4.9498 O   0  0  0  0  0  0  0  0  0  0  0  0
    0.7258   -0.6368    5.9031 C   0  0  2  0  0  0  0  0  0  0  0  0
   -0.0378   -0.2960    7.1897 C   0  0  0  0  0  0  0  0  0  0  0  0
   -0.8118   -1.4306    7.6729 N   0  0  0  0  0  0  0  0  0  0  0  0
    2.2260   -0.7948    6.2128 C   0  0  1  0  0  0  0  0  0  0  0  0
    2.4182   -1.8692    7.1157 O   0  0  0  0  0  0  0  0  0  0  0  0
    2.9732   -1.0740    4.9027 C   0  0  2  0  0  0  0  0  0  0  0  0
    4.3668   -1.1375    5.1413 O   0  0  0  0  0  0  0  0  0  0  0  0
    2.6607    0.0072    3.8595 C   0  0  1  0  0  0  0  0  0  0  0  0
    3.2793   -0.3394    2.5720 N   0  0  0  0  0  0  0  0  0  0  0  0
   -0.8886    4.1166    2.1280 C   0  0  2  0  0  0  0  0  0  0  0  0
   -1.6127    4.8845    1.1849 O   0  0  0  0  0  0  0  0  0  0  0  0
    0.2529    4.8906    2.7854 C   0  0  2  0  0  0  0  0  0  0  0  0
   -0.0333    6.2598    2.9917 O   0  0  0  0  0  0  0  0  0  0  0  0
  2  1  1  0  0  0  0
  3  2  1  1  0  0  0
  3 30  1  0  0  0  0
  4  5  1  0  0  0  0
  4  3  1  0  0  0  0
  5 28  1  0  0  0  0
  5  6  1  1  0  0  0
  7  6  1  1  0  0  0
  8  7  1  0  0  0  0
  8  9  1  6  0  0  0
 10 11  1  1  0  0  0
 10  8  1  0  0  0  0
 12 10  1  0  0  0  0
 13 12  1  0  0  0  0
 13 15  1  0  0  0  0
 13 14  1  1  0  0  0
 15  7  1  0  0  0  0
 15 16  1  6  0  0  0
 17 16  1  1  0  0  0
 18 17  1  0  0  0  0
 19 20  1  1  0  0  0
 19 18  1  0  0  0  0
 20 21  1  0  0  0  0
 22 24  1  0  0  0  0
 22 19  1  0  0  0  0
 22 23  1  1  0  0  0
 24 25  1  1  0  0  0
 24 26  1  0  0  0  0
 26 17  1  0  0  0  0
 26 27  1  6  0  0  0
 28 29  1  6  0  0  0
 28 30  1  0  0  0  0
 30 31  1  6  0  0  0
M  END
>  <CHROM.1>
177.47676916,168.10865697,-98.68753005,-66.49335194,64.68006927,-177.26600793
-59.27004676,56.60649805,79.54578572,132.12728063,-39.20242235,58.18932460
82.60971047,-77.11982335,65.17892310,-77.81575611,0.36171875,1.00114925,2.92634132
-1.91993185,0.82631311,2.73792551

>  <Name>
lig.pdb

>  <RI>
0

>  <Rbt.Current_Directory>
/home/itssahil/PROJECTS/Mol_Feturizer/New_Systems/rnas/2n0j

>  <Rbt.Executable>
rbdock ($Id: //depot/dev/client3/rdock/2013.1/src/exe/rbdock.cxx#4 $)

>  <Rbt.Library>
libRbt.so (2013.1, Build901 2013/11/27)

>  <Rbt.Parameter_File>
/export/apps/rDock/src/rDock_2013.1_src/data/scripts/dock_solv.prm

>  <Rbt.Receptor>
prm/blind_docking_40.prm

>  <SCORE>
-42.6295

>  <SCORE.INTER>
-45.3552

>  <SCORE.INTER.CONST>
1

>  <SCORE.INTER.POLAR>
-6.04651

>  <SCORE.INTER.ROT>
6

>  <SCORE.INTER.SOLV>
23.4598

>  <SCORE.INTER.VDW>
-25.5017

>  <SCORE.INTER.norm>
-1.46307

>  <SCORE.INTRA>
1.4734

>  <SCORE.INTRA.DIHEDRAL>
-9.65156

>  <SCORE.INTRA.DIHEDRAL.0>
28.0161

>  <SCORE.INTRA.POLAR>
1.05515

>  <SCORE.INTRA.POLAR.0>
-1.05798

>  <SCORE.INTRA.REPUL>
0

>  <SCORE.INTRA.REPUL.0>
0

>  <SCORE.INTRA.SOLV>
0.0101739

>  <SCORE.INTRA.SOLV.lig_0>
-42.5945

>  <SCORE.INTRA.VDW>
2.70659

>  <SCORE.INTRA.VDW.0>
-5.13869

>  <SCORE.INTRA.norm>
0.0475289

>  <SCORE.RESTR>
1.2523

>  <SCORE.RESTR.CAVITY>
1.2523

>  <SCORE.RESTR.norm>
0.0403966

>  <SCORE.SYSTEM>
0

>  <SCORE.SYSTEM.CONST>
0

>  <SCORE.SYSTEM.DIHEDRAL>
0

>  <SCORE.SYSTEM.SOLV>
0

>  <SCORE.SYSTEM.norm>
0

>  <SCORE.heavy>
31

>  <SCORE.norm>
-1.37515

>  <RMSD>
5.949

$$$$
lig.pdb
 OpenBabel11021811453D
libRbt.so/2013.1/901 2013/11/27
 31 33  0  0  0  0  0  0  0  0999 V2000
    2.7708    6.4471    2.5625 O   0  0  0  0  0  0  0  0  0  0  0  0
    2.5738    5.0510    2.4515 C   0  0  0  0  0  0  0  0  0  0  0  0
    1.2294    4.7253    1.7869 C   0  0  1  0  0  0  0  0  0  0  0  0
    1.1370    3.3561    1.4266 O   0  0  0  0  0  0  0  0  0  0  0  0
   -0.2311    2.9612    1.3934 C   0  0  1  0  0  0  0  0  0  0  0  0
   -0.3978    1.7380    2.1004 O   0  0  0  0  0  0  0  0  0  0  0  0
   -0.5729    0.5619    1.3264 C   0  0  2  0  0  0  0  0  0  0  0  0
   -1.9123    0.6865    0.5829 C   0  0  1  0  0  0  0  0  0  0  0  0
   -1.8140    1.6916   -0.4139 O   0  0  0  0  0  0  0  0  0  0  0  0
   -2.3644   -0.6057   -0.1140 C   0  0  2  0  0  0  0  0  0  0  0  0
   -3.6946   -0.4412   -0.7204 N   0  0  0  0  0  0  0  0  0  0  0  0
   -2.4047   -1.7471    0.8952 C   0  0  0  0  0  0  0  0  0  0  0  0
   -1.0402   -1.8949    1.5574 C   0  0  2  0  0  0  0  0  0  0  0  0
   -1.0926   -3.0329    2.4814 N   0  0  0  0  0  0  0  0  0  0  0  0
   -0.6489   -0.5876    2.2795 C   0  0  1  0  0  0  0  0  0  0  0  0
    0.6322   -0.8464    2.8739 O   0  0  0  0  0  0  0  0  0  0  0  0
    1.1696    0.1619    3.7231 C   0  0  1  0  0  0  0  0  0  0  0  0
    0.4913    0.1785    4.9762 O   0  0  0  0  0  0  0  0  0  0  0  0
    0.7064   -0.9473    5.8245 C   0  0  2  0  0  0  0  0  0  0  0  0
   -0.0955   -0.7551    7.1185 C   0  0  0  0  0  0  0  0  0  0  0  0
   -1.4997   -0.4833    6.8463 N   0  0  0  0  0  0  0  0  0  0  0  0
    2.2019   -1.1060    6.1559 C   0  0  1  0  0  0  0  0  0  0  0  0
    2.3966   -2.2628    6.9500 O   0  0  0  0  0  0  0  0  0  0  0  0
    2.9867   -1.2350    4.8445 C   0  0  2  0  0  0  0  0  0  0  0  0
    4.3752   -1.2945    5.1120 O   0  0  0  0  0  0  0  0  0  0  0  0
    2.6750   -0.0595    3.9084 C   0  0  1  0  0  0  0  0  0  0  0  0
    3.3323   -0.2606    2.6092 N   0  0  0  0  0  0  0  0  0  0  0  0
   -1.0312    4.0707    2.0913 C   0  0  2  0  0  0  0  0  0  0  0  0
   -1.7925    4.7868    1.1367 O   0  0  0  0  0  0  0  0  0  0  0  0
    0.0598    4.9153    2.7475 C   0  0  2  0  0  0  0  0  0  0  0  0
   -0.3058    6.2677    2.9388 O   0  0  0  0  0  0  0  0  0  0  0  0
  2  1  1  0  0  0  0
  3  2  1  1  0  0  0
  3 30  1  0  0  0  0
  4  5  1  0  0  0  0
  4  3  1  0  0  0  0
  5 28  1  0  0  0  0
  5  6  1  1  0  0  0
  7  6  1  1  0  0  0
  8  7  1  0  0  0  0
  8  9  1  6  0  0  0
 10 11  1  1  0  0  0
 10  8  1  0  0  0  0
 12 10  1  0  0  0  0
 13 12  1  0  0  0  0
 13 15  1  0  0  0  0
 13 14  1  1  0  0  0
 15  7  1  0  0  0  0
 15 16  1  6  0  0  0
 17 16  1  6  0  0  0
 18 17  1  0  0  0  0
 19 20  1  1  0  0  0
 19 18  1  0  0  0  0
 20 21  1  0  0  0  0
 22 24  1  0  0  0  0
 22 19  1  0  0  0  0
 22 23  1  1  0  0  0
 24 25  1  1  0  0  0
 24 26  1  0  0  0  0
 26 17  1  0  0  0  0
 26 27  1  6  0  0  0
 28 29  1  6  0  0  0
 28 30  1  0  0  0  0
 30 31  1  6  0  0  0
M  END
>  <CHROM.1>
63.50111302,168.16835193,-104.27071019,-65.84842306,-175.62604554,71.52873281
-57.95959754,65.37303290,74.40456981,53.42051095,69.20022067,166.87203895
178.67095444,-83.07758538,178.40135181,60.49124091,0.25275214,0.98771357
2.88994049,-1.91389696,0.76750745,2.80174010

>  <Name>
lig.pdb

>  <RI>
1.79691e+07

>  <Rbt.Current_Directory>
/home/itssahil/PROJECTS/Mol_Feturizer/New_Systems/rnas/2n0j

>  <Rbt.Executable>
rbdock ($Id: //depot/dev/client3/rdock/2013.1/src/exe/rbdock.cxx#4 $)

>  <Rbt.Library>
libRbt.so (2013.1, Build901 2013/11/27)

>  <Rbt.Parameter_File>
/export/apps/rDock/src/rDock_2013.1_src/data/scripts/dock_solv.prm

>  <Rbt.Receptor>
prm/blind_docking_20.prm

>  <SCORE>
-29.373

>  <SCORE.INTER>
-28.3631

>  <SCORE.INTER.CONST>
1

>  <SCORE.INTER.POLAR>
-3.24201

>  <SCORE.INTER.ROT>
6

>  <SCORE.INTER.SOLV>
22.3187

>  <SCORE.INTER.VDW>
-23.1416

>  <SCORE.INTER.norm>
-0.914938

>  <SCORE.INTRA>
-2.33092

>  <SCORE.INTRA.DIHEDRAL>
-17.0225

>  <SCORE.INTRA.DIHEDRAL.0>
28.0161

>  <SCORE.INTRA.POLAR>
0.982988

>  <SCORE.INTRA.POLAR.0>
-1.05798

>  <SCORE.INTRA.REPUL>
0

>  <SCORE.INTRA.REPUL.0>
0

>  <SCORE.INTRA.SOLV>
-0.0734947

>  <SCORE.INTRA.SOLV.lig_0>
-42.5945

>  <SCORE.INTRA.VDW>
2.87493

>  <SCORE.INTRA.VDW.0>
-5.13869

>  <SCORE.INTRA.norm>
-0.075191

>  <SCORE.RESTR>
1.32101

>  <SCORE.RESTR.CAVITY>
1.32101

>  <SCORE.RESTR.norm>
0.0426134

>  <SCORE.SYSTEM>
0

>  <SCORE.SYSTEM.CONST>
0

>  <SCORE.SYSTEM.DIHEDRAL>
0

>  <SCORE.SYSTEM.SOLV>
0

>  <SCORE.SYSTEM.norm>
0

>  <SCORE.heavy>
31

>  <SCORE.norm>
-0.947516

>  <RMSD>
5.950

$$$$
lig.pdb
 OpenBabel11021811453D
libRbt.so/2013.1/901 2013/11/27
 31 33  0  0  0  0  0  0  0  0999 V2000
    3.5538    4.0412    2.3446 O   0  0  0  0  0  0  0  0  0  0  0  0
    2.5993    5.0621    2.5605 C   0  0  0  0  0  0  0  0  0  0  0  0
    1.2708    4.7453    1.8604 C   0  0  1  0  0  0  0  0  0  0  0  0
    1.1751    3.3749    1.5058 O   0  0  0  0  0  0  0  0  0  0  0  0
   -0.1954    2.9931    1.4366 C   0  0  1  0  0  0  0  0  0  0  0  0
   -0.3937    1.7759    2.1458 O   0  0  0  0  0  0  0  0  0  0  0  0
   -0.5501    0.5956    1.3743 C   0  0  2  0  0  0  0  0  0  0  0  0
   -1.8784    0.7094    0.6095 C   0  0  1  0  0  0  0  0  0  0  0  0
   -1.7702    1.7107   -0.3900 O   0  0  0  0  0  0  0  0  0  0  0  0
   -2.3123   -0.5884   -0.0888 C   0  0  2  0  0  0  0  0  0  0  0  0
   -3.6337   -0.4340   -0.7166 N   0  0  0  0  0  0  0  0  0  0  0  0
   -2.3619   -1.7257    0.9246 C   0  0  0  0  0  0  0  0  0  0  0  0
   -1.0071   -1.8629    1.6086 C   0  0  2  0  0  0  0  0  0  0  0  0
   -1.0675   -2.9972    2.5367 N   0  0  0  0  0  0  0  0  0  0  0  0
   -0.6345   -0.5503    2.3311 C   0  0  1  0  0  0  0  0  0  0  0  0
    0.6386   -0.7993    2.9465 O   0  0  0  0  0  0  0  0  0  0  0  0
    1.2221    0.2681    3.6859 C   0  0  1  0  0  0  0  0  0  0  0  0
    0.5708    0.4242    4.9437 O   0  0  0  0  0  0  0  0  0  0  0  0
    0.7711   -0.6223    5.8915 C   0  0  2  0  0  0  0  0  0  0  0  0
    0.0021   -0.2838    7.1755 C   0  0  0  0  0  0  0  0  0  0  0  0
   -0.8147   -1.4023    7.6244 N   0  0  0  0  0  0  0  0  0  0  0  0
    2.2681   -0.7943    6.2097 C   0  0  1  0  0  0  0  0  0  0  0  0
    2.4459   -1.8760    7.1068 O   0  0  0  0  0  0  0  0  0  0  0  0
    3.0214   -1.0709    4.9026 C   0  0  2  0  0  0  0  0  0  0  0  0
    4.4129   -1.1471    5.1496 O   0  0  0  0  0  0  0  0  0  0  0  0
    2.7241    0.0195    3.8645 C   0  0  1  0  0  0  0  0  0  0  0  0
    3.3482   -0.3238    2.5787 N   0  0  0  0  0  0  0  0  0  0  0  0
   -1.0037    4.1146    2.1053 C   0  0  2  0  0  0  0  0  0  0  0  0
   -1.7310    4.8321    1.1257 O   0  0  0  0  0  0  0  0  0  0  0  0
    0.0769    4.9526    2.7869 C   0  0  2  0  0  0  0  0  0  0  0  0
   -0.2806    6.3096    2.9599 O   0  0  0  0  0  0  0  0  0  0  0  0
  2  1  1  0  0  0  0
  3  2  1  1  0  0  0
  3 30  1  0  0  0  0
  4  5  1  0  0  0  0
  4  3  1  0  0  0  0
  5 28  1  0  0  0  0
  5  6  1  1  0  0  0
  7  6  1  1  0  0  0
  8  7  1  0  0  0  0
  8  9  1  6  0  0  0
 10 11  1  1  0  0  0
 10  8  1  0  0  0  0
 12 10  1  0  0  0  0
 13 12  1  0  0  0  0
 13 15  1  0  0  0  0
 13 14  1  1  0  0  0
 15  7  1  0  0  0  0
 15 16  1  6  0  0  0
 17 16  1  1  0  0  0
 18 17  1  0  0  0  0
 19 20  1  1  0  0  0
 19 18  1  0  0  0  0
 20 21  1  0  0  0  0
 22 24  1  0  0  0  0
 22 19  1  0  0  0  0
 22 23  1  1  0  0  0
 24 25  1  1  0  0  0
 24 26  1  0  0  0  0
 26 17  1  0  0  0  0
 26 27  1  6  0  0  0
 28 29  1  6  0  0  0
 28 30  1  0  0  0  0
 30 31  1  6  0  0  0
M  END
>  <CHROM.1>
-64.52484779,17.10268807,-103.87333032,-67.10769405,-168.85912318,-64.38479612
179.00387697,58.98452986,75.60456905,130.43550535,80.29514079,60.19582195
84.63297271,37.76168078,-178.67858685,53.57886727,0.34268834,0.94310209,2.94762095
-2.07587441,0.76743500,2.74859485

>  <Name>
lig.pdb

>  <RI>
1.79691e+07

>  <Rbt.Current_Directory>
/home/itssahil/PROJECTS/Mol_Feturizer/New_Systems/rnas/2n0j

>  <Rbt.Executable>
rbdock ($Id: //depot/dev/client3/rdock/2013.1/src/exe/rbdock.cxx#4 $)

>  <Rbt.Library>
libRbt.so (2013.1, Build901 2013/11/27)

>  <Rbt.Parameter_File>
/export/apps/rDock/src/rDock_2013.1_src/data/scripts/dock_solv.prm

>  <Rbt.Receptor>
prm/blind_docking_20.prm

>  <SCORE>
-33.7537

>  <SCORE.INTER>
-38.2039

>  <SCORE.INTER.CONST>
1

>  <SCORE.INTER.POLAR>
-5.041

>  <SCORE.INTER.ROT>
6

>  <SCORE.INTER.SOLV>
23.5957

>  <SCORE.INTER.VDW>
-24.1311

>  <SCORE.INTER.norm>
-1.23238

>  <SCORE.INTRA>
3.65013

>  <SCORE.INTRA.DIHEDRAL>
-5.68504

>  <SCORE.INTRA.DIHEDRAL.0>
28.0161

>  <SCORE.INTRA.POLAR>
1.05798

>  <SCORE.INTRA.POLAR.0>
-1.05798

>  <SCORE.INTRA.REPUL>
0

>  <SCORE.INTRA.REPUL.0>
0

>  <SCORE.INTRA.SOLV>
-0.0942046

>  <SCORE.INTRA.SOLV.lig_0>
-42.5945

>  <SCORE.INTRA.VDW>
2.9426

>  <SCORE.INTRA.VDW.0>
-5.13869

>  <SCORE.INTRA.norm>
0.117746

>  <SCORE.RESTR>
0.800069

>  <SCORE.RESTR.CAVITY>
0.800069

>  <SCORE.RESTR.norm>
0.0258087

>  <SCORE.SYSTEM>
0

>  <SCORE.SYSTEM.CONST>
0

>  <SCORE.SYSTEM.DIHEDRAL>
0

>  <SCORE.SYSTEM.SOLV>
0

>  <SCORE.SYSTEM.norm>
0

>  <SCORE.heavy>
31

>  <SCORE.norm>
-1.08883

>  <RMSD>
5.957

$$$$
lig.pdb
 OpenBabel11021811453D
libRbt.so/2013.1/901 2013/11/27
 31 33  0  0  0  0  0  0  0  0999 V2000
    4.0063    4.2751    0.6286 O   0  0  0  0  0  0  0  0  0  0  0  0
    3.3236    4.2336    1.8665 C   0  0  0  0  0  0  0  0  0  0  0  0
    1.8175    4.4658    1.6846 C   0  0  1  0  0  0  0  0  0  0  0  0
    1.1609    3.3081    1.1930 O   0  0  0  0  0  0  0  0  0  0  0  0
   -0.2059    3.3268    1.5934 C   0  0  1  0  0  0  0  0  0  0  0  0
   -0.5676    2.0619    2.1348 O   0  0  0  0  0  0  0  0  0  0  0  0
   -0.5379    0.9491    1.2552 C   0  0  2  0  0  0  0  0  0  0  0  0
   -1.9522    0.7689    0.6812 C   0  0  1  0  0  0  0  0  0  0  0  0
   -2.2511    1.8410   -0.1990 O   0  0  0  0  0  0  0  0  0  0  0  0
   -2.1473   -0.5362   -0.1055 C   0  0  2  0  0  0  0  0  0  0  0  0
   -3.5445   -0.6868   -0.5405 N   0  0  0  0  0  0  0  0  0  0  0  0
   -1.7562   -1.7245    0.7651 C   0  0  0  0  0  0  0  0  0  0  0  0
   -0.3230   -1.5532    1.2534 C   0  0  2  0  0  0  0  0  0  0  0  0
    0.0442   -2.7346    2.0415 N   0  0  0  0  0  0  0  0  0  0  0  0
   -0.1865   -0.2521    2.0732 C   0  0  1  0  0  0  0  0  0  0  0  0
    1.1863   -0.2042    2.4911 O   0  0  0  0  0  0  0  0  0  0  0  0
    1.4921    0.5995    3.6256 C   0  0  1  0  0  0  0  0  0  0  0  0
    0.7763    0.1459    4.7713 O   0  0  0  0  0  0  0  0  0  0  0  0
    1.1676   -1.1198    5.2987 C   0  0  2  0  0  0  0  0  0  0  0  0
    0.2959   -1.4402    6.5202 C   0  0  0  0  0  0  0  0  0  0  0  0
   -0.7535   -2.3962    6.1969 N   0  0  0  0  0  0  0  0  0  0  0  0
    2.6528   -1.1084    5.7059 C   0  0  1  0  0  0  0  0  0  0  0  0
    3.0318   -2.3915    6.1712 O   0  0  0  0  0  0  0  0  0  0  0  0
    3.4964   -0.7263    4.4833 C   0  0  2  0  0  0  0  0  0  0  0  0
    4.8602   -0.6215    4.8466 O   0  0  0  0  0  0  0  0  0  0  0  0
    3.0043    0.5946    3.8766 C   0  0  1  0  0  0  0  0  0  0  0  0
    3.7358    0.8835    2.6349 N   0  0  0  0  0  0  0  0  0  0  0  0
   -0.3368    4.4060    2.6780 C   0  0  2  0  0  0  0  0  0  0  0  0
   -1.0498    5.5167    2.1667 O   0  0  0  0  0  0  0  0  0  0  0  0
    1.1183    4.7278    3.0148 C   0  0  2  0  0  0  0  0  0  0  0  0
    1.3109    6.0378    3.5108 O   0  0  0  0  0  0  0  0  0  0  0  0
  2  1  1  0  0  0  0
  3  2  1  1  0  0  0
  3 30  1  0  0  0  0
  4  5  1  0  0  0  0
  4  3  1  0  0  0  0
  5 28  1  0  0  0  0
  5  6  1  1  0  0  0
  7  6  1  1  0  0  0
  8  7  1  0  0  0  0
  8  9  1  6  0  0  0
 10 11  1  1  0  0  0
 10  8  1  0  0  0  0
 12 10  1  0  0  0  0
 13 12  1  0  0  0  0
 13 15  1  0  0  0  0
 13 14  1  1  0  0  0
 15  7  1  0  0  0  0
 15 16  1  6  0  0  0
 17 16  1  6  0  0  0
 18 17  1  0  0  0  0
 19 20  1  1  0  0  0
 19 18  1  0  0  0  0
 20 21  1  0  0  0  0
 22 24  1  0  0  0  0
 22 19  1  0  0  0  0
 22 23  1  6  0  0  0
 24 25  1  1  0  0  0
 24 26  1  0  0  0  0
 26 17  1  0  0  0  0
 26 27  1  6  0  0  0
 28 29  1  6  0  0  0
 28 30  1  0  0  0  0
 30 31  1  6  0  0  0
M  END
>  <CHROM.1>
78.45517641,77.16809615,-64.57488956,-93.87217182,71.24901118,177.54164700
128.03962742,81.00465643,59.86659288,102.02423395,43.52020265,-66.48947691
-175.96543315,-57.21085469,58.73470241,58.87330359,0.74847330,0.99111581
2.71637550,-1.81135596,0.63171893,2.73758242

>  <Name>
lig.pdb

>  <RI>
9.20816e+06

>  <Rbt.Current_Directory>
/home/itssahil/PROJECTS/Mol_Feturizer/New_Systems/rnas/2n0j

>  <Rbt.Executable>
rbdock ($Id: //depot/dev/client3/rdock/2013.1/src/exe/rbdock.cxx#4 $)

>  <Rbt.Library>
libRbt.so (2013.1, Build901 2013/11/27)

>  <Rbt.Parameter_File>
/export/apps/rDock/src/rDock_2013.1_src/data/scripts/dock_solv.prm

>  <Rbt.Receptor>
prm/blind_docking_100.prm

>  <SCORE>
-32.8662

>  <SCORE.INTER>
-34.9749

>  <SCORE.INTER.CONST>
1

>  <SCORE.INTER.POLAR>
-4.89324

>  <SCORE.INTER.ROT>
6

>  <SCORE.INTER.SOLV>
25.6262

>  <SCORE.INTER.VDW>
-23.1479

>  <SCORE.INTER.norm>
-1.12822

>  <SCORE.INTRA>
1.18271

>  <SCORE.INTRA.DIHEDRAL>
-9.49558

>  <SCORE.INTRA.DIHEDRAL.0>
28.0161

>  <SCORE.INTRA.POLAR>
1.05217

>  <SCORE.INTRA.POLAR.0>
-1.05798

>  <SCORE.INTRA.REPUL>
0

>  <SCORE.INTRA.REPUL.0>
0

>  <SCORE.INTRA.SOLV>
-0.677209

>  <SCORE.INTRA.SOLV.lig_0>
-42.5945

>  <SCORE.INTRA.VDW>
2.69172

>  <SCORE.INTRA.VDW.0>
-5.13869

>  <SCORE.INTRA.norm>
0.0381518

>  <SCORE.RESTR>
0.926015

>  <SCORE.RESTR.CAVITY>
0.926015

>  <SCORE.RESTR.norm>
0.0298714

>  <SCORE.SYSTEM>
0

>  <SCORE.SYSTEM.CONST>
0

>  <SCORE.SYSTEM.DIHEDRAL>
0

>  <SCORE.SYSTEM.SOLV>
0

>  <SCORE.SYSTEM.norm>
0

>  <SCORE.heavy>
31

>  <SCORE.norm>
-1.0602

>  <RMSD>
5.964

$$$$
lig.pdb
 OpenBabel11021811453D
libRbt.so/2013.1/901 2013/11/27
 31 33  0  0  0  0  0  0  0  0999 V2000
    4.0506    5.2397    2.5005 O   0  0  0  0  0  0  0  0  0  0  0  0
    3.4326    4.1328    1.8735 C   0  0  0  0  0  0  0  0  0  0  0  0
    1.9314    4.3730    1.6636 C   0  0  1  0  0  0  0  0  0  0  0  0
    1.2729    3.2105    1.1859 O   0  0  0  0  0  0  0  0  0  0  0  0
   -0.0996    3.2483    1.5647 C   0  0  1  0  0  0  0  0  0  0  0  0
   -0.4799    1.9979    2.1265 O   0  0  0  0  0  0  0  0  0  0  0  0
   -0.5260    0.8823    1.2512 C   0  0  2  0  0  0  0  0  0  0  0  0
   -1.9478    0.7996    0.6734 C   0  0  1  0  0  0  0  0  0  0  0  0
   -2.1682    1.8867   -0.2116 O   0  0  0  0  0  0  0  0  0  0  0  0
   -2.2319   -0.4916   -0.1090 C   0  0  2  0  0  0  0  0  0  0  0  0
   -3.6350   -0.5454   -0.5478 N   0  0  0  0  0  0  0  0  0  0  0  0
   -1.9277   -1.7010    0.7672 C   0  0  0  0  0  0  0  0  0  0  0  0
   -0.4873   -1.6289    1.2592 C   0  0  2  0  0  0  0  0  0  0  0  0
   -0.2063   -2.8301    2.0529 N   0  0  0  0  0  0  0  0  0  0  0  0
   -0.2621   -0.3373    2.0747 C   0  0  1  0  0  0  0  0  0  0  0  0
    1.1095   -0.3843    2.4966 O   0  0  0  0  0  0  0  0  0  0  0  0
    1.5034    0.5165    3.5261 C   0  0  1  0  0  0  0  0  0  0  0  0
    0.6394    0.4011    4.6535 O   0  0  0  0  0  0  0  0  0  0  0  0
    0.7272   -0.8149    5.3931 C   0  0  2  0  0  0  0  0  0  0  0  0
   -0.2662   -0.7589    6.5613 C   0  0  0  0  0  0  0  0  0  0  0  0
    0.3197   -0.1303    7.7366 N   0  0  0  0  0  0  0  0  0  0  0  0
    2.1544   -1.0271    5.9314 C   0  0  1  0  0  0  0  0  0  0  0  0
    2.2306   -2.2675    6.6113 O   0  0  0  0  0  0  0  0  0  0  0  0
    3.1332   -1.0181    4.7506 C   0  0  2  0  0  0  0  0  0  0  0  0
    4.4640   -1.1233    5.2208 O   0  0  0  0  0  0  0  0  0  0  0  0
    2.9633    0.2581    3.9155 C   0  0  1  0  0  0  0  0  0  0  0  0
    3.8146    0.1957    2.7189 N   0  0  0  0  0  0  0  0  0  0  0  0
   -0.2383    4.3509    2.6245 C   0  0  2  0  0  0  0  0  0  0  0  0
   -0.9342    5.4563    2.0793 O   0  0  0  0  0  0  0  0  0  0  0  0
    1.2141    4.6682    2.9770 C   0  0  2  0  0  0  0  0  0  0  0  0
    1.4098    5.9867    3.4487 O   0  0  0  0  0  0  0  0  0  0  0  0
  2  1  1  0  0  0  0
  3  2  1  1  0  0  0
  3 30  1  0  0  0  0
  4  5  1  0  0  0  0
  4  3  1  0  0  0  0
  5 28  1  0  0  0  0
  5  6  1  1  0  0  0
  7  6  1  1  0  0  0
  8  7  1  0  0  0  0
  8  9  1  6  0  0  0
 10 11  1  1  0  0  0
 10  8  1  0  0  0  0
 12 10  1  0  0  0  0
 13 12  1  0  0  0  0
 13 15  1  0  0  0  0
 13 14  1  1  0  0  0
 15  7  1  0  0  0  0
 15 16  1  6  0  0  0
 17 16  1  6  0  0  0
 18 17  1  0  0  0  0
 19 20  1  1  0  0  0
 19 18  1  0  0  0  0
 20 21  1  0  0  0  0
 22 24  1  0  0  0  0
 22 19  1  0  0  0  0
 22 23  1  6  0  0  0
 24 25  1  1  0  0  0
 24 26  1  0  0  0  0
 26 17  1  0  0  0  0
 26 27  1  6  0  0  0
 28 29  1  6  0  0  0
 28 30  1  0  0  0  0
 30 31  1  6  0  0  0
M  END
>  <CHROM.1>
-61.31604775,-172.85642841,-68.38333379,-90.49597619,74.27606027,-173.59892842
21.81085569,73.79869815,52.64828069,-87.10194610,158.79943818,179.34254772
107.13153790,23.16389007,-179.34556849,63.53908428,0.69872654,1.06573777
2.88216999,-1.96019405,0.75172196,2.73837310

>  <Name>
lig.pdb

>  <RI>
1.55206e+07

>  <Rbt.Current_Directory>
/home/itssahil/PROJECTS/Mol_Feturizer/New_Systems/rnas/2n0j

>  <Rbt.Executable>
rbdock ($Id: //depot/dev/client3/rdock/2013.1/src/exe/rbdock.cxx#4 $)

>  <Rbt.Library>
libRbt.so (2013.1, Build901 2013/11/27)

>  <Rbt.Parameter_File>
/export/apps/rDock/src/rDock_2013.1_src/data/scripts/dock_solv.prm

>  <Rbt.Receptor>
prm/blind_docking_80.prm

>  <SCORE>
-29.6196

>  <SCORE.INTER>
-34.5584

>  <SCORE.INTER.CONST>
1

>  <SCORE.INTER.POLAR>
-4.79272

>  <SCORE.INTER.ROT>
6

>  <SCORE.INTER.SOLV>
24.2845

>  <SCORE.INTER.VDW>
-22.758

>  <SCORE.INTER.norm>
-1.11479

>  <SCORE.INTRA>
3.1604

>  <SCORE.INTRA.DIHEDRAL>
-6.56827

>  <SCORE.INTRA.DIHEDRAL.0>
28.0161

>  <SCORE.INTRA.POLAR>
1.05798

>  <SCORE.INTRA.POLAR.0>
-1.05798

>  <SCORE.INTRA.REPUL>
0

>  <SCORE.INTRA.REPUL.0>
0

>  <SCORE.INTRA.SOLV>
0.593148

>  <SCORE.INTRA.SOLV.lig_0>
-42.5945

>  <SCORE.INTRA.VDW>
2.55081

>  <SCORE.INTRA.VDW.0>
-5.13869

>  <SCORE.INTRA.norm>
0.101948

>  <SCORE.RESTR>
1.77837

>  <SCORE.RESTR.CAVITY>
1.77837

>  <SCORE.RESTR.norm>
0.0573667

>  <SCORE.SYSTEM>
0

>  <SCORE.SYSTEM.CONST>
0

>  <SCORE.SYSTEM.DIHEDRAL>
0

>  <SCORE.SYSTEM.SOLV>
0

>  <SCORE.SYSTEM.norm>
0

>  <SCORE.heavy>
31

>  <SCORE.norm>
-0.955471

>  <RMSD>
5.967

$$$$
lig.pdb
 OpenBabel11021811453D
libRbt.so/2013.1/901 2013/11/27
 31 33  0  0  0  0  0  0  0  0999 V2000
   -2.8657    3.9074    1.7732 O   0  0  0  0  0  0  0  0  0  0  0  0
   -1.9005    4.9410    1.7549 C   0  0  0  0  0  0  0  0  0  0  0  0
   -0.5333    4.4406    2.2405 C   0  0  1  0  0  0  0  0  0  0  0  0
   -0.3538    3.0580    1.9777 O   0  0  0  0  0  0  0  0  0  0  0  0
    1.0363    2.7690    1.8644 C   0  0  1  0  0  0  0  0  0  0  0  0
    1.2725    1.9821    0.7030 O   0  0  0  0  0  0  0  0  0  0  0  0
    0.5062    0.7970    0.5573 C   0  0  2  0  0  0  0  0  0  0  0  0
   -0.7815    1.1627   -0.1978 C   0  0  1  0  0  0  0  0  0  0  0  0
   -0.4706    1.4881   -1.5435 O   0  0  0  0  0  0  0  0  0  0  0  0
   -1.8294    0.0398   -0.2296 C   0  0  2  0  0  0  0  0  0  0  0  0
   -3.0683    0.4917   -0.8814 N   0  0  0  0  0  0  0  0  0  0  0  0
   -2.1404   -0.4135    1.1920 C   0  0  0  0  0  0  0  0  0  0  0  0
   -0.8539   -0.8433    1.8865 C   0  0  2  0  0  0  0  0  0  0  0  0
   -1.1897   -1.3251    3.2307 N   0  0  0  0  0  0  0  0  0  0  0  0
    0.1498    0.3289    1.9318 C   0  0  1  0  0  0  0  0  0  0  0  0
    1.3048   -0.1813    2.6153 O   0  0  0  0  0  0  0  0  0  0  0  0
    1.8493    0.6207    3.6578 C   0  0  1  0  0  0  0  0  0  0  0  0
    1.0001    0.6032    4.8020 O   0  0  0  0  0  0  0  0  0  0  0  0
    0.9193   -0.6330    5.5082 C   0  0  2  0  0  0  0  0  0  0  0  0
   -0.0315   -0.4630    6.7006 C   0  0  0  0  0  0  0  0  0  0  0  0
    0.6703    0.0094    7.8855 N   0  0  0  0  0  0  0  0  0  0  0  0
    2.3089   -1.0711    6.0070 C   0  0  1  0  0  0  0  0  0  0  0  0
    2.2117   -2.3280    6.6530 O   0  0  0  0  0  0  0  0  0  0  0  0
    3.2546   -1.1744    4.8039 C   0  0  2  0  0  0  0  0  0  0  0  0
    4.5636   -1.4904    5.2396 O   0  0  0  0  0  0  0  0  0  0  0  0
    3.2614    0.1364    4.0058 C   0  0  1  0  0  0  0  0  0  0  0  0
    4.0701   -0.0180    2.7881 N   0  0  0  0  0  0  0  0  0  0  0  0
    1.7609    4.1161    1.7280 C   0  0  2  0  0  0  0  0  0  0  0  0
    2.4840    4.3944    2.9125 O   0  0  0  0  0  0  0  0  0  0  0  0
    0.6146    5.0949    1.4783 C   0  0  2  0  0  0  0  0  0  0  0  0
    0.8945    6.4166    1.8952 O   0  0  0  0  0  0  0  0  0  0  0  0
  2  1  1  0  0  0  0
  3  2  1  6  0  0  0
  3 30  1  0  0  0  0
  4  5  1  0  0  0  0
  4  3  1  0  0  0  0
  5 28  1  0  0  0  0
  5  6  1  6  0  0  0
  7  6  1  1  0  0  0
  8  7  1  0  0  0  0
  8  9  1  6  0  0  0
 10 11  1  1  0  0  0
 10  8  1  0  0  0  0
 12 10  1  0  0  0  0
 13 12  1  0  0  0  0
 13 15  1  0  0  0  0
 13 14  1  1  0  0  0
 15  7  1  0  0  0  0
 15 16  1  6  0  0  0
 17 16  1  6  0  0  0
 18 17  1  0  0  0  0
 19 20  1  1  0  0  0
 19 18  1  0  0  0  0
 20 21  1  0  0  0  0
 22 24  1  0  0  0  0
 22 19  1  0  0  0  0
 22 23  1  6  0  0  0
 24 25  1  1  0  0  0
 24 26  1  0  0  0  0
 26 17  1  0  0  0  0
 26 27  1  6  0  0  0
 28 29  1  1  0  0  0
 28 30  1  0  0  0  0
 30 31  1  1  0  0  0
M  END
>  <CHROM.1>
-89.77678562,28.49410744,-52.95975574,89.42985393,30.66542642,163.22529213
-68.46771921,106.98089686,72.25030000,-88.34650859,146.67422808,-61.36609813
-176.01259554,33.70063850,64.36142812,65.63748355,0.59370228,1.18839390,2.76061088
2.26038556,-0.80726595,-0.34835249

>  <Name>
lig.pdb

>  <RI>
1.55206e+07

>  <Rbt.Current_Directory>
/home/itssahil/PROJECTS/Mol_Feturizer/New_Systems/rnas/2n0j

>  <Rbt.Executable>
rbdock ($Id: //depot/dev/client3/rdock/2013.1/src/exe/rbdock.cxx#4 $)

>  <Rbt.Library>
libRbt.so (2013.1, Build901 2013/11/27)

>  <Rbt.Parameter_File>
/export/apps/rDock/src/rDock_2013.1_src/data/scripts/dock_solv.prm

>  <Rbt.Receptor>
prm/blind_docking_80.prm

>  <SCORE>
-27.0305

>  <SCORE.INTER>
-39.3512

>  <SCORE.INTER.CONST>
1

>  <SCORE.INTER.POLAR>
-4.65777

>  <SCORE.INTER.ROT>
6

>  <SCORE.INTER.SOLV>
25.0294

>  <SCORE.INTER.VDW>
-26.6514

>  <SCORE.INTER.norm>
-1.26939

>  <SCORE.INTRA>
10.4973

>  <SCORE.INTRA.DIHEDRAL>
0.0493898

>  <SCORE.INTRA.DIHEDRAL.0>
28.0161

>  <SCORE.INTRA.POLAR>
1.01281

>  <SCORE.INTRA.POLAR.0>
-1.05798

>  <SCORE.INTRA.REPUL>
0

>  <SCORE.INTRA.REPUL.0>
0

>  <SCORE.INTRA.SOLV>
0.649013

>  <SCORE.INTRA.SOLV.lig_0>
-42.5945

>  <SCORE.INTRA.VDW>
6.70453

>  <SCORE.INTRA.VDW.0>
-5.13869

>  <SCORE.INTRA.norm>
0.338623

>  <SCORE.RESTR>
1.8234

>  <SCORE.RESTR.CAVITY>
1.8234

>  <SCORE.RESTR.norm>
0.0588193

>  <SCORE.SYSTEM>
0

>  <SCORE.SYSTEM.CONST>
0

>  <SCORE.SYSTEM.DIHEDRAL>
0

>  <SCORE.SYSTEM.SOLV>
0

>  <SCORE.SYSTEM.norm>
0

>  <SCORE.heavy>
31

>  <SCORE.norm>
-0.871952

>  <RMSD>
5.968

$$$$
lig.pdb
 OpenBabel11021811453D
libRbt.so/2013.1/901 2013/11/27
 31 33  0  0  0  0  0  0  0  0999 V2000
   -0.7029    6.3964    2.2032 O   0  0  0  0  0  0  0  0  0  0  0  0
    0.5832    6.4068    2.7915 C   0  0  0  0  0  0  0  0  0  0  0  0
    1.2863    5.0525    2.6272 C   0  0  1  0  0  0  0  0  0  0  0  0
    0.6258    4.0244    3.3480 O   0  0  0  0  0  0  0  0  0  0  0  0
    0.8886    2.7656    2.7354 C   0  0  1  0  0  0  0  0  0  0  0  0
   -0.3259    2.0411    2.5808 O   0  0  0  0  0  0  0  0  0  0  0  0
   -0.3658    1.0546    1.5619 C   0  0  2  0  0  0  0  0  0  0  0  0
   -1.7750    1.0725    0.9487 C   0  0  1  0  0  0  0  0  0  0  0  0
   -1.9616    2.2722    0.2143 O   0  0  0  0  0  0  0  0  0  0  0  0
   -2.0571   -0.0969   -0.0068 C   0  0  2  0  0  0  0  0  0  0  0  0
   -3.4504   -0.0695   -0.4782 N   0  0  0  0  0  0  0  0  0  0  0  0
   -1.7880   -1.4180    0.7040 C   0  0  0  0  0  0  0  0  0  0  0  0
   -0.3585   -1.4350    1.2313 C   0  0  2  0  0  0  0  0  0  0  0  0
   -0.1105   -2.7364    1.8610 N   0  0  0  0  0  0  0  0  0  0  0  0
   -0.1359   -0.2689    2.2184 C   0  0  1  0  0  0  0  0  0  0  0  0
    1.2250   -0.3934    2.6587 O   0  0  0  0  0  0  0  0  0  0  0  0
    1.6542    0.4811    3.6968 C   0  0  1  0  0  0  0  0  0  0  0  0
    0.8317    0.3337    4.8511 O   0  0  0  0  0  0  0  0  0  0  0  0
    0.9483   -0.9011    5.5548 C   0  0  2  0  0  0  0  0  0  0  0  0
   -0.0025   -0.8786    6.7590 C   0  0  0  0  0  0  0  0  0  0  0  0
   -0.6029    0.4345    6.9463 N   0  0  0  0  0  0  0  0  0  0  0  0
    2.3943   -1.1235    6.0355 C   0  0  1  0  0  0  0  0  0  0  0  0
    2.4971   -2.3812    6.6791 O   0  0  0  0  0  0  0  0  0  0  0  0
    3.3299   -1.0808    4.8209 C   0  0  2  0  0  0  0  0  0  0  0  0
    4.6769   -1.1947    5.2398 O   0  0  0  0  0  0  0  0  0  0  0  0
    3.1276    0.2165    4.0263 C   0  0  1  0  0  0  0  0  0  0  0  0
    3.9353    0.1879    2.7986 N   0  0  0  0  0  0  0  0  0  0  0  0
    1.4900    3.0606    1.3536 C   0  0  2  0  0  0  0  0  0  0  0  0
    2.8647    2.7232    1.3462 O   0  0  0  0  0  0  0  0  0  0  0  0
    1.2367    4.5579    1.1851 C   0  0  2  0  0  0  0  0  0  0  0  0
    2.1636    5.1989    0.3312 O   0  0  0  0  0  0  0  0  0  0  0  0
  2  1  1  0  0  0  0
  3  2  1  6  0  0  0
  3 30  1  0  0  0  0
  4  5  1  0  0  0  0
  4  3  1  0  0  0  0
  5 28  1  0  0  0  0
  5  6  1  6  0  0  0
  7  6  1  1  0  0  0
  8  7  1  0  0  0  0
  8  9  1  6  0  0  0
 10 11  1  1  0  0  0
 10  8  1  0  0  0  0
 12 10  1  0  0  0  0
 13 12  1  0  0  0  0
 13 15  1  0  0  0  0
 13 14  1  1  0  0  0
 15  7  1  0  0  0  0
 15 16  1  6  0  0  0
 17 16  1  6  0  0  0
 18 17  1  0  0  0  0
 19 20  1  1  0  0  0
 19 18  1  0  0  0  0
 20 21  1  0  0  0  0
 22 24  1  0  0  0  0
 22 19  1  0  0  0  0
 22 23  1  6  0  0  0
 24 25  1  1  0  0  0
 24 26  1  0  0  0  0
 26 17  1  0  0  0  0
 26 27  1  6  0  0  0
 28 29  1  1  0  0  0
 28 30  1  0  0  0  0
 30 31  1  6  0  0  0
M  END
>  <CHROM.1>
-74.72490742,-65.86870765,155.77733706,-143.49789216,-164.12313337,-167.98866714
6.49895181,65.84629415,57.21790556,-7.79397032,-96.31913528,178.17520830
80.36194849,160.64191670,153.64171146,-44.72599588,0.72142566,1.11581764
2.86415839,-2.00174007,0.75645753,2.79550803

>  <Name>
lig.pdb

>  <RI>
9.20816e+06

>  <Rbt.Current_Directory>
/home/itssahil/PROJECTS/Mol_Feturizer/New_Systems/rnas/2n0j

>  <Rbt.Executable>
rbdock ($Id: //depot/dev/client3/rdock/2013.1/src/exe/rbdock.cxx#4 $)

>  <Rbt.Library>
libRbt.so (2013.1, Build901 2013/11/27)

>  <Rbt.Parameter_File>
/export/apps/rDock/src/rDock_2013.1_src/data/scripts/dock_solv.prm

>  <Rbt.Receptor>
prm/blind_docking_100.prm

>  <SCORE>
-32.4231

>  <SCORE.INTER>
-41.091

>  <SCORE.INTER.CONST>
1

>  <SCORE.INTER.POLAR>
-5.8751

>  <SCORE.INTER.ROT>
6

>  <SCORE.INTER.SOLV>
23.9766

>  <SCORE.INTER.VDW>
-23.4025

>  <SCORE.INTER.norm>
-1.32552

>  <SCORE.INTRA>
7.63134

>  <SCORE.INTRA.DIHEDRAL>
0.0586357

>  <SCORE.INTRA.DIHEDRAL.0>
28.0161

>  <SCORE.INTRA.POLAR>
-0.203541

>  <SCORE.INTRA.POLAR.0>
-1.05798

>  <SCORE.INTRA.REPUL>
0

>  <SCORE.INTRA.REPUL.0>
0

>  <SCORE.INTRA.SOLV>
1.45765

>  <SCORE.INTRA.SOLV.lig_0>
-42.5945

>  <SCORE.INTRA.VDW>
7.56523

>  <SCORE.INTRA.VDW.0>
-5.13869

>  <SCORE.INTRA.norm>
0.246172

>  <SCORE.RESTR>
1.03653

>  <SCORE.RESTR.CAVITY>
1.03653

>  <SCORE.RESTR.norm>
0.0334365

>  <SCORE.SYSTEM>
0

>  <SCORE.SYSTEM.CONST>
0

>  <SCORE.SYSTEM.DIHEDRAL>
0

>  <SCORE.SYSTEM.SOLV>
0

>  <SCORE.SYSTEM.norm>
0

>  <SCORE.heavy>
31

>  <SCORE.norm>
-1.04591

>  <RMSD>
5.969

$$$$
lig.pdb
 OpenBabel11021811453D
libRbt.so/2013.1/901 2013/11/27
 31 33  0  0  0  0  0  0  0  0999 V2000
    1.6706    7.0564    2.9188 O   0  0  0  0  0  0  0  0  0  0  0  0
    2.1073    5.9171    2.2038 C   0  0  0  0  0  0  0  0  0  0  0  0
    0.9559    4.9320    1.9604 C   0  0  1  0  0  0  0  0  0  0  0  0
    1.3054    3.9360    1.0123 O   0  0  0  0  0  0  0  0  0  0  0  0
    0.5319    2.7626    1.2438 C   0  0  1  0  0  0  0  0  0  0  0  0
    1.3780    1.6189    1.2430 O   0  0  0  0  0  0  0  0  0  0  0  0
    0.7889    0.3784    0.8866 C   0  0  2  0  0  0  0  0  0  0  0  0
   -0.4754    0.6796    0.0663 C   0  0  1  0  0  0  0  0  0  0  0  0
   -0.1100    1.2137   -1.1965 O   0  0  0  0  0  0  0  0  0  0  0  0
   -1.3595   -0.5491   -0.1958 C   0  0  2  0  0  0  0  0  0  0  0  0
   -2.5948   -0.1706   -0.8992 N   0  0  0  0  0  0  0  0  0  0  0  0
   -1.7138   -1.2190    1.1267 C   0  0  0  0  0  0  0  0  0  0  0  0
   -0.4377   -1.5755    1.8792 C   0  0  2  0  0  0  0  0  0  0  0  0
   -0.8068   -2.2664    3.1195 N   0  0  0  0  0  0  0  0  0  0  0  0
    0.3953   -0.3055    2.1565 C   0  0  1  0  0  0  0  0  0  0  0  0
    1.5530   -0.7557    2.8766 O   0  0  0  0  0  0  0  0  0  0  0  0
    2.0446    0.0907    3.9103 C   0  0  1  0  0  0  0  0  0  0  0  0
    0.9693    0.7422    4.5812 O   0  0  0  0  0  0  0  0  0  0  0  0
    0.1248   -0.0894    5.3741 C   0  0  2  0  0  0  0  0  0  0  0  0
   -0.9660    0.7783    6.0160 C   0  0  0  0  0  0  0  0  0  0  0  0
   -1.7923    0.0105    6.9365 N   0  0  0  0  0  0  0  0  0  0  0  0
    0.9346   -0.8058    6.4708 C   0  0  1  0  0  0  0  0  0  0  0  0
    0.0858   -1.6690    7.2064 O   0  0  0  0  0  0  0  0  0  0  0  0
    2.0546   -1.6164    5.8068 C   0  0  2  0  0  0  0  0  0  0  0  0
    2.8715   -2.2172    6.7940 O   0  0  0  0  0  0  0  0  0  0  0  0
    2.8994   -0.7226    4.8888 C   0  0  1  0  0  0  0  0  0  0  0  0
    3.8863   -1.5344    4.1624 N   0  0  0  0  0  0  0  0  0  0  0  0
   -0.1146    2.9220    2.6276 C   0  0  2  0  0  0  0  0  0  0  0  0
   -1.5063    3.1376    2.4855 O   0  0  0  0  0  0  0  0  0  0  0  0
    0.6245    4.1250    3.2116 C   0  0  2  0  0  0  0  0  0  0  0  0
   -0.1267    4.8435    4.1700 O   0  0  0  0  0  0  0  0  0  0  0  0
  2  1  1  0  0  0  0
  3  2  1  1  0  0  0
  3 30  1  0  0  0  0
  4  5  1  0  0  0  0
  4  3  1  0  0  0  0
  5 28  1  0  0  0  0
  5  6  1  1  0  0  0
  7  6  1  1  0  0  0
  8  7  1  0  0  0  0
  8  9  1  6  0  0  0
 10 11  1  1  0  0  0
 10  8  1  0  0  0  0
 12 10  1  0  0  0  0
 13 12  1  0  0  0  0
 13 15  1  0  0  0  0
 13 14  1  1  0  0  0
 15  7  1  0  0  0  0
 15 16  1  6  0  0  0
 17 16  1  6  0  0  0
 18 17  1  0  0  0  0
 19 20  1  1  0  0  0
 19 18  1  0  0  0  0
 20 21  1  0  0  0  0
 22 24  1  0  0  0  0
 22 19  1  0  0  0  0
 22 23  1  6  0  0  0
 24 25  1  1  0  0  0
 24 26  1  0  0  0  0
 26 17  1  0  0  0  0
 26 27  1  6  0  0  0
 28 29  1  6  0  0  0
 28 30  1  0  0  0  0
 30 31  1  1  0  0  0
M  END
>  <CHROM.1>
-178.00453215,167.48408780,-153.65847262,22.13027448,-53.16118438,26.34356690
162.86951569,96.28380477,35.62902922,-174.83923454,45.41088328,69.38562947
71.63810163,-43.02527214,63.25971533,-176.70506441,0.47510694,0.95677834
3.09570496,-1.82183628,1.17777992,2.70042519

>  <Name>
lig.pdb

>  <RI>
9.20816e+06

>  <Rbt.Current_Directory>
/home/itssahil/PROJECTS/Mol_Feturizer/New_Systems/rnas/2n0j

>  <Rbt.Executable>
rbdock ($Id: //depot/dev/client3/rdock/2013.1/src/exe/rbdock.cxx#4 $)

>  <Rbt.Library>
libRbt.so (2013.1, Build901 2013/11/27)

>  <Rbt.Parameter_File>
/export/apps/rDock/src/rDock_2013.1_src/data/scripts/dock_solv.prm

>  <Rbt.Receptor>
prm/blind_docking_100.prm

>  <SCORE>
-23.1501

>  <SCORE.INTER>
-30.2012

>  <SCORE.INTER.CONST>
1

>  <SCORE.INTER.POLAR>
-3.62908

>  <SCORE.INTER.ROT>
6

>  <SCORE.INTER.SOLV>
23.0203

>  <SCORE.INTER.VDW>
-23.3106

>  <SCORE.INTER.norm>
-0.974231

>  <SCORE.INTRA>
4.22921

>  <SCORE.INTRA.DIHEDRAL>
-6.40872

>  <SCORE.INTRA.DIHEDRAL.0>
28.0161

>  <SCORE.INTRA.POLAR>
0.352057

>  <SCORE.INTRA.POLAR.0>
-1.05798

>  <SCORE.INTRA.REPUL>
0

>  <SCORE.INTRA.REPUL.0>
0

>  <SCORE.INTRA.SOLV>
1.40735

>  <SCORE.INTRA.SOLV.lig_0>
-42.5945

>  <SCORE.INTRA.VDW>
5.5329

>  <SCORE.INTRA.VDW.0>
-5.13869

>  <SCORE.INTRA.norm>
0.136426

>  <SCORE.RESTR>
2.82188

>  <SCORE.RESTR.CAVITY>
2.82188

>  <SCORE.RESTR.norm>
0.0910285

>  <SCORE.SYSTEM>
0

>  <SCORE.SYSTEM.CONST>
0

>  <SCORE.SYSTEM.DIHEDRAL>
0

>  <SCORE.SYSTEM.SOLV>
0

>  <SCORE.SYSTEM.norm>
0

>  <SCORE.heavy>
31

>  <SCORE.norm>
-0.746776

>  <RMSD>
5.975

$$$$
lig.pdb
 OpenBabel11021811453D
libRbt.so/2013.1/901 2013/11/27
 31 33  0  0  0  0  0  0  0  0999 V2000
    2.0846    5.9446    0.0773 O   0  0  0  0  0  0  0  0  0  0  0  0
    0.8479    6.2481    0.6924 C   0  0  0  0  0  0  0  0  0  0  0  0
    0.3294    5.0665    1.5231 C   0  0  1  0  0  0  0  0  0  0  0  0
    0.0381    3.9391    0.7123 O   0  0  0  0  0  0  0  0  0  0  0  0
    0.1528    2.7497    1.4875 C   0  0  1  0  0  0  0  0  0  0  0  0
    0.9237    1.7854    0.7807 O   0  0  0  0  0  0  0  0  0  0  0  0
    0.3385    0.5083    0.5821 C   0  0  2  0  0  0  0  0  0  0  0  0
   -0.9978    0.7149   -0.1485 C   0  0  1  0  0  0  0  0  0  0  0  0
   -0.7540    1.1450   -1.4786 O   0  0  0  0  0  0  0  0  0  0  0  0
   -1.8694   -0.5477   -0.2291 C   0  0  2  0  0  0  0  0  0  0  0  0
   -3.1689   -0.2536   -0.8527 N   0  0  0  0  0  0  0  0  0  0  0  0
   -2.0936   -1.1077    1.1706 C   0  0  0  0  0  0  0  0  0  0  0  0
   -0.7499   -1.3749    1.8377 C   0  0  2  0  0  0  0  0  0  0  0  0
   -0.9953   -1.9632    3.1588 N   0  0  0  0  0  0  0  0  0  0  0  0
    0.0710   -0.0709    1.9343 C   0  0  1  0  0  0  0  0  0  0  0  0
    1.2964   -0.4364    2.5871 O   0  0  0  0  0  0  0  0  0  0  0  0
    1.8312    0.4878    3.5287 C   0  0  1  0  0  0  0  0  0  0  0  0
    1.0518    0.4987    4.7216 O   0  0  0  0  0  0  0  0  0  0  0  0
    1.1118   -0.6781    5.5247 C   0  0  2  0  0  0  0  0  0  0  0  0
    0.2187   -0.4846    6.7574 C   0  0  0  0  0  0  0  0  0  0  0  0
   -0.4760   -1.7125    7.1170 N   0  0  0  0  0  0  0  0  0  0  0  0
    2.5582   -0.9658    5.9681 C   0  0  1  0  0  0  0  0  0  0  0  0
    2.6003   -2.1693    6.7140 O   0  0  0  0  0  0  0  0  0  0  0  0
    3.4403   -1.0941    4.7199 C   0  0  2  0  0  0  0  0  0  0  0  0
    4.7931   -1.2719    5.0962 O   0  0  0  0  0  0  0  0  0  0  0  0
    3.2954    0.1435    3.8242 C   0  0  1  0  0  0  0  0  0  0  0  0
    4.0445   -0.0474    2.5740 N   0  0  0  0  0  0  0  0  0  0  0  0
    0.8763    3.1336    2.7865 C   0  0  2  0  0  0  0  0  0  0  0  0
   -0.0306    3.0893    3.8724 O   0  0  0  0  0  0  0  0  0  0  0  0
    1.3886    4.5415    2.4870 C   0  0  2  0  0  0  0  0  0  0  0  0
    1.5564    5.3427    3.6398 O   0  0  0  0  0  0  0  0  0  0  0  0
  2  1  1  0  0  0  0
  3  2  1  6  0  0  0
  3 30  1  0  0  0  0
  4  5  1  0  0  0  0
  4  3  1  0  0  0  0
  5 28  1  0  0  0  0
  5  6  1  6  0  0  0
  7  6  1  1  0  0  0
  8  7  1  0  0  0  0
  8  9  1  6  0  0  0
 10 11  1  1  0  0  0
 10  8  1  0  0  0  0
 12 10  1  0  0  0  0
 13 12  1  0  0  0  0
 13 15  1  0  0  0  0
 13 14  1  1  0  0  0
 15  7  1  0  0  0  0
 15 16  1  6  0  0  0
 17 16  1  6  0  0  0
 18 17  1  0  0  0  0
 19 20  1  1  0  0  0
 19 18  1  0  0  0  0
 20 21  1  0  0  0  0
 22 24  1  0  0  0  0
 22 19  1  0  0  0  0
 22 23  1  6  0  0  0
 24 25  1  1  0  0  0
 24 26  1  0  0  0  0
 26 17  1  0  0  0  0
 26 27  1  6  0  0  0
 28 29  1  1  0  0  0
 28 30  1  0  0  0  0
 30 31  1  1  0  0  0
M  END
>  <CHROM.1>
-57.73899027,-64.24230480,-125.61658399,56.74447717,-41.43327591,51.69661255
-81.06752485,98.05999729,72.58162208,142.27710307,-157.27123788,-65.66094454
101.86862219,39.43031008,78.85482683,-61.47786931,0.77697449,0.99934184,2.70127839
-1.94818967,0.83102055,2.62434074

>  <Name>
lig.pdb

>  <RI>
1.79691e+07

>  <Rbt.Current_Directory>
/home/itssahil/PROJECTS/Mol_Feturizer/New_Systems/rnas/2n0j

>  <Rbt.Executable>
rbdock ($Id: //depot/dev/client3/rdock/2013.1/src/exe/rbdock.cxx#4 $)

>  <Rbt.Library>
libRbt.so (2013.1, Build901 2013/11/27)

>  <Rbt.Parameter_File>
/export/apps/rDock/src/rDock_2013.1_src/data/scripts/dock_solv.prm

>  <Rbt.Receptor>
prm/blind_docking_20.prm

>  <SCORE>
-25.4873

>  <SCORE.INTER>
-29.9776

>  <SCORE.INTER.CONST>
1

>  <SCORE.INTER.POLAR>
-6.1214

>  <SCORE.INTER.ROT>
6

>  <SCORE.INTER.SOLV>
27.3276

>  <SCORE.INTER.VDW>
-16.2896

>  <SCORE.INTER.norm>
-0.967019

>  <SCORE.INTRA>
4.3453

>  <SCORE.INTRA.DIHEDRAL>
1.17717

>  <SCORE.INTRA.DIHEDRAL.0>
28.0161

>  <SCORE.INTRA.POLAR>
0.267286

>  <SCORE.INTRA.POLAR.0>
-1.05798

>  <SCORE.INTRA.REPUL>
0

>  <SCORE.INTRA.REPUL.0>
0

>  <SCORE.INTRA.SOLV>
1.28373

>  <SCORE.INTRA.SOLV.lig_0>
-42.5945

>  <SCORE.INTRA.VDW>
2.20608

>  <SCORE.INTRA.VDW.0>
-5.13869

>  <SCORE.INTRA.norm>
0.140171

>  <SCORE.RESTR>
0.145008

>  <SCORE.RESTR.CAVITY>
0.145008

>  <SCORE.RESTR.norm>
0.00467769

>  <SCORE.SYSTEM>
0

>  <SCORE.SYSTEM.CONST>
0

>  <SCORE.SYSTEM.DIHEDRAL>
0

>  <SCORE.SYSTEM.SOLV>
0

>  <SCORE.SYSTEM.norm>
0

>  <SCORE.heavy>
31

>  <SCORE.norm>
-0.822171

>  <RMSD>
5.979

$$$$
lig.pdb
 OpenBabel11021811453D
libRbt.so/2013.1/901 2013/11/27
 31 33  0  0  0  0  0  0  0  0999 V2000
   -0.9777    7.0556    3.0882 O   0  0  0  0  0  0  0  0  0  0  0  0
   -0.2654    6.5571    1.9728 C   0  0  0  0  0  0  0  0  0  0  0  0
    0.7628    5.4976    2.3915 C   0  0  1  0  0  0  0  0  0  0  0  0
    0.2364    4.6060    3.3615 O   0  0  0  0  0  0  0  0  0  0  0  0
    0.9170    3.3572    3.2829 C   0  0  1  0  0  0  0  0  0  0  0  0
   -0.0269    2.2929    3.2723 O   0  0  0  0  0  0  0  0  0  0  0  0
   -0.1749    1.5711    2.0599 C   0  0  2  0  0  0  0  0  0  0  0  0
   -1.5828    1.8576    1.5139 C   0  0  1  0  0  0  0  0  0  0  0  0
   -1.6602    3.2045    1.0744 O   0  0  0  0  0  0  0  0  0  0  0  0
   -1.9889    0.9665    0.3302 C   0  0  2  0  0  0  0  0  0  0  0  0
   -3.3783    1.2287   -0.0759 N   0  0  0  0  0  0  0  0  0  0  0  0
   -1.8415   -0.5004    0.7167 C   0  0  0  0  0  0  0  0  0  0  0  0
   -0.4143   -0.7684    1.1785 C   0  0  2  0  0  0  0  0  0  0  0  0
   -0.2871   -2.1959    1.4912 N   0  0  0  0  0  0  0  0  0  0  0  0
   -0.0675    0.1178    2.3942 C   0  0  1  0  0  0  0  0  0  0  0  0
    1.2799   -0.2284    2.7494 O   0  0  0  0  0  0  0  0  0  0  0  0
    1.9123    0.5646    3.7482 C   0  0  1  0  0  0  0  0  0  0  0  0
    1.1911    0.4974    4.9754 O   0  0  0  0  0  0  0  0  0  0  0  0
    1.2176   -0.7563    5.6544 C   0  0  2  0  0  0  0  0  0  0  0  0
    0.3959   -0.6400    6.9450 C   0  0  0  0  0  0  0  0  0  0  0  0
   -0.5177   -1.7623    7.1046 N   0  0  0  0  0  0  0  0  0  0  0  0
    2.6632   -1.1667    5.9912 C   0  0  1  0  0  0  0  0  0  0  0  0
    2.6676   -2.4401    6.6115 O   0  0  0  0  0  0  0  0  0  0  0  0
    3.4772   -1.2161    4.6922 C   0  0  2  0  0  0  0  0  0  0  0  0
    4.8328   -1.5054    4.9780 O   0  0  0  0  0  0  0  0  0  0  0  0
    3.3654    0.1121    3.9316 C   0  0  1  0  0  0  0  0  0  0  0  0
    4.0428    0.0080    2.6313 N   0  0  0  0  0  0  0  0  0  0  0  0
    1.7017    3.3607    1.9629 C   0  0  2  0  0  0  0  0  0  0  0  0
    3.0880    3.4665    2.2287 O   0  0  0  0  0  0  0  0  0  0  0  0
    1.1340    4.5771    1.2332 C   0  0  2  0  0  0  0  0  0  0  0  0
    2.0342    5.1580    0.3105 O   0  0  0  0  0  0  0  0  0  0  0  0
  2  1  1  0  0  0  0
  3  2  1  6  0  0  0
  3 30  1  0  0  0  0
  4  5  1  0  0  0  0
  4  3  1  0  0  0  0
  5 28  1  0  0  0  0
  5  6  1  6  0  0  0
  7  6  1  1  0  0  0
  8  7  1  0  0  0  0
  8  9  1  6  0  0  0
 10 11  1  1  0  0  0
 10  8  1  0  0  0  0
 12 10  1  0  0  0  0
 13 12  1  0  0  0  0
 13 15  1  0  0  0  0
 13 14  1  1  0  0  0
 15  7  1  0  0  0  0
 15 16  1  6  0  0  0
 17 16  1  6  0  0  0
 18 17  1  0  0  0  0
 19 20  1  1  0  0  0
 19 18  1  0  0  0  0
 20 21  1  0  0  0  0
 22 24  1  0  0  0  0
 22 19  1  0  0  0  0
 22 23  1  6  0  0  0
 24 25  1  1  0  0  0
 24 26  1  0  0  0  0
 26 17  1  0  0  0  0
 26 27  1  6  0  0  0
 28 29  1  1  0  0  0
 28 30  1  0  0  0  0
 30 31  1  6  0  0  0
M  END
>  <CHROM.1>
56.93553817,42.15614762,110.16467677,-113.07177639,-59.52769698,-83.65649691
137.81946941,51.66927266,60.36827325,132.90981538,-23.53895261,-61.88789442
-69.07058296,-83.64853062,59.80638810,60.48385143,0.77490464,1.38111512,3.04068838
-1.99718154,0.62265657,2.83713926

>  <Name>
lig.pdb

>  <RI>
1.55206e+07

>  <Rbt.Current_Directory>
/home/itssahil/PROJECTS/Mol_Feturizer/New_Systems/rnas/2n0j

>  <Rbt.Executable>
rbdock ($Id: //depot/dev/client3/rdock/2013.1/src/exe/rbdock.cxx#4 $)

>  <Rbt.Library>
libRbt.so (2013.1, Build901 2013/11/27)

>  <Rbt.Parameter_File>
/export/apps/rDock/src/rDock_2013.1_src/data/scripts/dock_solv.prm

>  <Rbt.Receptor>
prm/blind_docking_80.prm

>  <SCORE>
-34.724

>  <SCORE.INTER>
-47.6724

>  <SCORE.INTER.CONST>
1

>  <SCORE.INTER.POLAR>
-5.99868

>  <SCORE.INTER.ROT>
6

>  <SCORE.INTER.SOLV>
26.4922

>  <SCORE.INTER.VDW>
-28.2167

>  <SCORE.INTER.norm>
-1.53782

>  <SCORE.INTRA>
10.883

>  <SCORE.INTRA.DIHEDRAL>
0.167231

>  <SCORE.INTRA.DIHEDRAL.0>
28.0161

>  <SCORE.INTRA.POLAR>
0.985059

>  <SCORE.INTRA.POLAR.0>
-1.05798

>  <SCORE.INTRA.REPUL>
0.00370335

>  <SCORE.INTRA.REPUL.0>
0

>  <SCORE.INTRA.SOLV>
1.04331

>  <SCORE.INTRA.SOLV.lig_0>
-42.5945

>  <SCORE.INTRA.VDW>
6.91004

>  <SCORE.INTRA.VDW.0>
-5.13869

>  <SCORE.INTRA.norm>
0.351065

>  <SCORE.RESTR>
2.06532

>  <SCORE.RESTR.CAVITY>
2.06532

>  <SCORE.RESTR.norm>
0.0666232

>  <SCORE.SYSTEM>
0

>  <SCORE.SYSTEM.CONST>
0

>  <SCORE.SYSTEM.DIHEDRAL>
0

>  <SCORE.SYSTEM.SOLV>
0

>  <SCORE.SYSTEM.norm>
0

>  <SCORE.heavy>
31

>  <SCORE.norm>
-1.12013

>  <RMSD>
5.984

$$$$
lig.pdb
 OpenBabel11021811453D
libRbt.so/2013.1/901 2013/11/27
 31 33  0  0  0  0  0  0  0  0999 V2000
   -0.7203    6.3391    2.1634 O   0  0  0  0  0  0  0  0  0  0  0  0
    0.5814    6.4265    2.7095 C   0  0  0  0  0  0  0  0  0  0  0  0
    1.3067    5.0753    2.6503 C   0  0  1  0  0  0  0  0  0  0  0  0
    0.6383    4.0839    3.4140 O   0  0  0  0  0  0  0  0  0  0  0  0
    0.9358    2.7938    2.8887 C   0  0  1  0  0  0  0  0  0  0  0  0
   -0.2640    2.0432    2.7440 O   0  0  0  0  0  0  0  0  0  0  0  0
   -0.3131    1.0990    1.6862 C   0  0  2  0  0  0  0  0  0  0  0  0
   -1.7116    1.1779    1.0536 C   0  0  1  0  0  0  0  0  0  0  0  0
   -1.8559    2.4101    0.3649 O   0  0  0  0  0  0  0  0  0  0  0  0
   -2.0085    0.0549    0.0482 C   0  0  2  0  0  0  0  0  0  0  0  0
   -3.3930    0.1373   -0.4421 N   0  0  0  0  0  0  0  0  0  0  0  0
   -1.7844   -1.2998    0.7097 C   0  0  0  0  0  0  0  0  0  0  0  0
   -0.3643   -1.3750    1.2569 C   0  0  2  0  0  0  0  0  0  0  0  0
   -0.1596   -2.7063    1.8378 N   0  0  0  0  0  0  0  0  0  0  0  0
   -0.1275   -0.2549    2.2928 C   0  0  1  0  0  0  0  0  0  0  0  0
    1.2227   -0.4323    2.7477 O   0  0  0  0  0  0  0  0  0  0  0  0
    1.7186    0.5098    3.6928 C   0  0  1  0  0  0  0  0  0  0  0  0
    0.9233    0.5025    4.8752 O   0  0  0  0  0  0  0  0  0  0  0  0
    1.0061   -0.6694    5.6834 C   0  0  2  0  0  0  0  0  0  0  0  0
    0.0915   -0.4973    6.9035 C   0  0  0  0  0  0  0  0  0  0  0  0
   -0.6530   -1.7143    7.1941 N   0  0  0  0  0  0  0  0  0  0  0  0
    2.4541   -0.9144    6.1469 C   0  0  1  0  0  0  0  0  0  0  0  0
    2.5204   -2.1138    6.8977 O   0  0  0  0  0  0  0  0  0  0  0  0
    3.3560   -1.0218    4.9110 C   0  0  2  0  0  0  0  0  0  0  0  0
    4.7081   -1.1598    5.3056 O   0  0  0  0  0  0  0  0  0  0  0  0
    3.1879    0.2083    4.0088 C   0  0  1  0  0  0  0  0  0  0  0  0
    3.9586    0.0346    2.7693 N   0  0  0  0  0  0  0  0  0  0  0  0
    1.5745    3.0119    1.5093 C   0  0  2  0  0  0  0  0  0  0  0  0
    2.9531    2.6951    1.5630 O   0  0  0  0  0  0  0  0  0  0  0  0
    1.3069    4.4919    1.2408 C   0  0  2  0  0  0  0  0  0  0  0  0
    2.2505    5.0928    0.3762 O   0  0  0  0  0  0  0  0  0  0  0  0
  2  1  1  0  0  0  0
  3  2  1  6  0  0  0
  3 30  1  0  0  0  0
  4  5  1  0  0  0  0
  4  3  1  0  0  0  0
  5 28  1  0  0  0  0
  5  6  1  6  0  0  0
  7  6  1  1  0  0  0
  8  7  1  0  0  0  0
  8  9  1  6  0  0  0
 10 11  1  1  0  0  0
 10  8  1  0  0  0  0
 12 10  1  0  0  0  0
 13 12  1  0  0  0  0
 13 15  1  0  0  0  0
 13 14  1  1  0  0  0
 15  7  1  0  0  0  0
 15 16  1  6  0  0  0
 17 16  1  6  0  0  0
 18 17  1  0  0  0  0
 19 20  1  1  0  0  0
 19 18  1  0  0  0  0
 20 21  1  0  0  0  0
 22 24  1  0  0  0  0
 22 19  1  0  0  0  0
 22 23  1  6  0  0  0
 24 25  1  1  0  0  0
 24 26  1  0  0  0  0
 26 17  1  0  0  0  0
 26 27  1  6  0  0  0
 28 29  1  1  0  0  0
 28 30  1  0  0  0  0
 30 31  1  6  0  0  0
M  END
>  <CHROM.1>
-78.38712040,-62.06036557,148.76512867,-139.37024289,-162.55239909,-178.27193734
1.70952225,57.25532880,59.51806935,137.74798827,87.42640899,15.49133121,-175.47971472
-79.56718751,178.41509616,53.16825464,0.75870956,1.09033968,2.93947465,-1.94582325
0.71918541,2.72718634

>  <Name>
lig.pdb

>  <RI>
1.79691e+07

>  <Rbt.Current_Directory>
/home/itssahil/PROJECTS/Mol_Feturizer/New_Systems/rnas/2n0j

>  <Rbt.Executable>
rbdock ($Id: //depot/dev/client3/rdock/2013.1/src/exe/rbdock.cxx#4 $)

>  <Rbt.Library>
libRbt.so (2013.1, Build901 2013/11/27)

>  <Rbt.Parameter_File>
/export/apps/rDock/src/rDock_2013.1_src/data/scripts/dock_solv.prm

>  <Rbt.Receptor>
prm/blind_docking_20.prm

>  <SCORE>
-33.7535

>  <SCORE.INTER>
-47.2798

>  <SCORE.INTER.CONST>
1

>  <SCORE.INTER.POLAR>
-6.07098

>  <SCORE.INTER.ROT>
6

>  <SCORE.INTER.SOLV>
25.1102

>  <SCORE.INTER.VDW>
-27.2533

>  <SCORE.INTER.norm>
-1.52516

>  <SCORE.INTRA>
11.9907

>  <SCORE.INTRA.DIHEDRAL>
1.27259

>  <SCORE.INTRA.DIHEDRAL.0>
28.0161

>  <SCORE.INTRA.POLAR>
0.103179

>  <SCORE.INTRA.POLAR.0>
-1.05798

>  <SCORE.INTRA.REPUL>
0

>  <SCORE.INTRA.REPUL.0>
0

>  <SCORE.INTRA.SOLV>
1.57586

>  <SCORE.INTRA.SOLV.lig_0>
-42.5945

>  <SCORE.INTRA.VDW>
10.2157

>  <SCORE.INTRA.VDW.0>
-5.13869

>  <SCORE.INTRA.norm>
0.386798

>  <SCORE.RESTR>
1.53559

>  <SCORE.RESTR.CAVITY>
1.53559

>  <SCORE.RESTR.norm>
0.049535

>  <SCORE.SYSTEM>
0

>  <SCORE.SYSTEM.CONST>
0

>  <SCORE.SYSTEM.DIHEDRAL>
0

>  <SCORE.SYSTEM.SOLV>
0

>  <SCORE.SYSTEM.norm>
0

>  <SCORE.heavy>
31

>  <SCORE.norm>
-1.08882

>  <RMSD>
5.988

$$$$
lig.pdb
 OpenBabel11021811453D
libRbt.so/2013.1/901 2013/11/27
 31 33  0  0  0  0  0  0  0  0999 V2000
   -6.1160    4.8362    2.7157 O   0  0  0  0  0  0  0  0  0  0  0  0
   -5.1575    3.8802    2.3063 C   0  0  0  0  0  0  0  0  0  0  0  0
   -3.9996    3.7819    3.3087 C   0  0  1  0  0  0  0  0  0  0  0  0
   -3.3250    2.5372    3.2151 O   0  0  0  0  0  0  0  0  0  0  0  0
   -1.9810    2.6864    3.6624 C   0  0  1  0  0  0  0  0  0  0  0  0
   -1.0920    2.0851    2.7287 O   0  0  0  0  0  0  0  0  0  0  0  0
    0.0732    1.4664    3.2505 C   0  0  2  0  0  0  0  0  0  0  0  0
    1.2925    2.1862    2.6528 C   0  0  1  0  0  0  0  0  0  0  0  0
    1.3827    3.4977    3.1869 O   0  0  0  0  0  0  0  0  0  0  0  0
    2.6316    1.4864    2.9311 C   0  0  2  0  0  0  0  0  0  0  0  0
    3.7389    2.1749    2.2500 N   0  0  0  0  0  0  0  0  0  0  0  0
    2.5643    0.0400    2.4553 C   0  0  0  0  0  0  0  0  0  0  0  0
    1.3928   -0.6669    3.1260 C   0  0  2  0  0  0  0  0  0  0  0  0
    1.3854   -2.0683    2.6927 N   0  0  0  0  0  0  0  0  0  0  0  0
    0.0671    0.0462    2.7829 C   0  0  1  0  0  0  0  0  0  0  0  0
   -0.9575   -0.7082    3.4480 O   0  0  0  0  0  0  0  0  0  0  0  0
   -2.3083   -0.3815    3.1393 C   0  0  1  0  0  0  0  0  0  0  0  0
   -2.4406   -0.0361    1.7631 O   0  0  0  0  0  0  0  0  0  0  0  0
   -2.2617   -1.0967    0.8269 C   0  0  2  0  0  0  0  0  0  0  0  0
   -2.4411   -0.5423   -0.5926 C   0  0  0  0  0  0  0  0  0  0  0  0
   -1.8105    0.7611   -0.7452 N   0  0  0  0  0  0  0  0  0  0  0  0
   -3.2774   -2.2267    1.0782 C   0  0  1  0  0  0  0  0  0  0  0  0
   -3.0419   -3.2922    0.1750 O   0  0  0  0  0  0  0  0  0  0  0  0
   -3.1182   -2.7209    2.5214 C   0  0  2  0  0  0  0  0  0  0  0  0
   -4.0976   -3.7006    2.8111 O   0  0  0  0  0  0  0  0  0  0  0  0
   -3.2263   -1.5519    3.5097 C   0  0  1  0  0  0  0  0  0  0  0  0
   -2.9456   -2.0175    4.8753 N   0  0  0  0  0  0  0  0  0  0  0  0
   -1.7026    4.1947    3.7385 C   0  0  2  0  0  0  0  0  0  0  0  0
   -1.6098    4.5982    5.0921 O   0  0  0  0  0  0  0  0  0  0  0  0
   -2.9026    4.7991    3.0111 C   0  0  2  0  0  0  0  0  0  0  0  0
   -3.2168    6.1134    3.4270 O   0  0  0  0  0  0  0  0  0  0  0  0
  2  1  1  0  0  0  0
  3  2  1  6  0  0  0
  3 30  1  0  0  0  0
  4  5  1  0  0  0  0
  4  3  1  0  0  0  0
  5 28  1  0  0  0  0
  5  6  1  6  0  0  0
  7  6  1  6  0  0  0
  8  7  1  0  0  0  0
  8  9  1  1  0  0  0
 10 11  1  6  0  0  0
 10  8  1  0  0  0  0
 12 10  1  0  0  0  0
 13 12  1  0  0  0  0
 13 15  1  0  0  0  0
 13 14  1  6  0  0  0
 15  7  1  0  0  0  0
 15 16  1  1  0  0  0
 17 16  1  6  0  0  0
 18 17  1  0  0  0  0
 19 20  1  6  0  0  0
 19 18  1  0  0  0  0
 20 21  1  0  0  0  0
 22 24  1  0  0  0  0
 22 19  1  0  0  0  0
 22 23  1  6  0  0  0
 24 25  1  1  0  0  0
 24 26  1  0  0  0  0
 26 17  1  0  0  0  0
 26 27  1  1  0  0  0
 28 29  1  1  0  0  0
 28 30  1  0  0  0  0
 30 31  1  1  0  0  0
M  END
>  <CHROM.1>
-157.74710827,157.51899461,-145.51489526,-119.25638354,47.69993756,-175.96881348
167.47731975,68.15833429,36.47658399,41.09556732,-155.23528641,-173.50674997
-56.76666218,-49.65179359,-177.46462026,-84.33492414,-1.58435002,0.98590446
2.62188576,1.70894134,-0.05564426,0.20657842

>  <Name>
lig.pdb

>  <RI>
0

>  <Rbt.Current_Directory>
/home/itssahil/PROJECTS/Mol_Feturizer/New_Systems/rnas/2n0j

>  <Rbt.Executable>
rbdock ($Id: //depot/dev/client3/rdock/2013.1/src/exe/rbdock.cxx#4 $)

>  <Rbt.Library>
libRbt.so (2013.1, Build901 2013/11/27)

>  <Rbt.Parameter_File>
/export/apps/rDock/src/rDock_2013.1_src/data/scripts/dock_solv.prm

>  <Rbt.Receptor>
prm/pocket_docking_5.prm

>  <SCORE>
-40.3756

>  <SCORE.INTER>
-44.4623

>  <SCORE.INTER.CONST>
1

>  <SCORE.INTER.POLAR>
-6.00146

>  <SCORE.INTER.ROT>
6

>  <SCORE.INTER.SOLV>
19.2564

>  <SCORE.INTER.VDW>
-23.6554

>  <SCORE.INTER.norm>
-1.43427

>  <SCORE.INTRA>
4.08663

>  <SCORE.INTRA.DIHEDRAL>
-2.89592

>  <SCORE.INTRA.DIHEDRAL.0>
28.0161

>  <SCORE.INTRA.POLAR>
0.810322

>  <SCORE.INTRA.POLAR.0>
-1.05798

>  <SCORE.INTRA.REPUL>
0.296812

>  <SCORE.INTRA.REPUL.0>
0

>  <SCORE.INTRA.SOLV>
0.246018

>  <SCORE.INTRA.SOLV.lig_0>
-42.5945

>  <SCORE.INTRA.VDW>
1.17242

>  <SCORE.INTRA.VDW.0>
-5.13869

>  <SCORE.INTRA.norm>
0.131827

>  <SCORE.RESTR>
0

>  <SCORE.RESTR.CAVITY>
0

>  <SCORE.RESTR.norm>
0

>  <SCORE.SYSTEM>
0

>  <SCORE.SYSTEM.CONST>
0

>  <SCORE.SYSTEM.DIHEDRAL>
0

>  <SCORE.SYSTEM.SOLV>
0

>  <SCORE.SYSTEM.norm>
0

>  <SCORE.heavy>
31

>  <SCORE.norm>
-1.30244

>  <RMSD>
5.990

$$$$
lig.pdb
 OpenBabel11021811453D
libRbt.so/2013.1/901 2013/11/27
 31 33  0  0  0  0  0  0  0  0999 V2000
   -3.2164    7.5086    4.2063 O   0  0  0  0  0  0  0  0  0  0  0  0
   -2.6825    6.2208    4.4443 C   0  0  0  0  0  0  0  0  0  0  0  0
   -1.2649    6.0865    3.8718 C   0  0  1  0  0  0  0  0  0  0  0  0
   -0.7129    4.8043    4.1253 O   0  0  0  0  0  0  0  0  0  0  0  0
    0.2607    4.4976    3.1320 C   0  0  1  0  0  0  0  0  0  0  0  0
    0.0415    3.1845    2.6305 O   0  0  0  0  0  0  0  0  0  0  0  0
    0.6157    2.1099    3.3575 C   0  0  2  0  0  0  0  0  0  0  0  0
    1.9638    1.7697    2.7026 C   0  0  1  0  0  0  0  0  0  0  0  0
    2.8880    2.8205    2.9374 O   0  0  0  0  0  0  0  0  0  0  0  0
    2.6037    0.4736    3.2229 C   0  0  2  0  0  0  0  0  0  0  0  0
    3.8379    0.1610    2.4859 N   0  0  0  0  0  0  0  0  0  0  0  0
    1.6191   -0.6806    3.0762 C   0  0  0  0  0  0  0  0  0  0  0  0
    0.3225   -0.3444    3.8026 C   0  0  2  0  0  0  0  0  0  0  0  0
   -0.5839   -1.4924    3.6915 N   0  0  0  0  0  0  0  0  0  0  0  0
   -0.3041    0.9395    3.2173 C   0  0  1  0  0  0  0  0  0  0  0  0
   -1.5157    1.1477    3.9591 O   0  0  0  0  0  0  0  0  0  0  0  0
   -2.3808    2.1859    3.5116 C   0  0  1  0  0  0  0  0  0  0  0  0
   -3.2349    1.7162    2.4721 O   0  0  0  0  0  0  0  0  0  0  0  0
   -4.2271    0.7653    2.8528 C   0  0  2  0  0  0  0  0  0  0  0  0
   -5.0463    0.3789    1.6142 C   0  0  0  0  0  0  0  0  0  0  0  0
   -5.7067   -0.9073    1.7854 N   0  0  0  0  0  0  0  0  0  0  0  0
   -5.1575    1.3470    3.9334 C   0  0  1  0  0  0  0  0  0  0  0  0
   -6.0960    0.3655    4.3363 O   0  0  0  0  0  0  0  0  0  0  0  0
   -4.3078    1.7809    5.1343 C   0  0  2  0  0  0  0  0  0  0  0  0
   -5.1246    2.4006    6.1099 O   0  0  0  0  0  0  0  0  0  0  0  0
   -3.1908    2.7354    4.6913 C   0  0  1  0  0  0  0  0  0  0  0  0
   -2.3087    3.0418    5.8264 N   0  0  0  0  0  0  0  0  0  0  0  0
    0.0764    5.5174    1.9988 C   0  0  2  0  0  0  0  0  0  0  0  0
    1.1628    6.4246    1.9877 O   0  0  0  0  0  0  0  0  0  0  0  0
   -1.2560    6.1779    2.3492 C   0  0  2  0  0  0  0  0  0  0  0  0
   -1.3834    7.4974    1.8574 O   0  0  0  0  0  0  0  0  0  0  0  0
  2  1  1  0  0  0  0
  3  2  1  6  0  0  0
  3 30  1  0  0  0  0
  4  5  1  0  0  0  0
  4  3  1  0  0  0  0
  5 28  1  0  0  0  0
  5  6  1  6  0  0  0
  7  6  1  6  0  0  0
  8  7  1  0  0  0  0
  8  9  1  1  0  0  0
 10 11  1  6  0  0  0
 10  8  1  0  0  0  0
 12 10  1  0  0  0  0
 13 12  1  0  0  0  0
 13 15  1  0  0  0  0
 13 14  1  6  0  0  0
 15  7  1  0  0  0  0
 15 16  1  1  0  0  0
 17 16  1  1  0  0  0
 18 17  1  0  0  0  0
 19 20  1  6  0  0  0
 19 18  1  0  0  0  0
 20 21  1  0  0  0  0
 22 24  1  0  0  0  0
 22 19  1  0  0  0  0
 22 23  1  1  0  0  0
 24 25  1  1  0  0  0
 24 26  1  0  0  0  0
 26 17  1  0  0  0  0
 26 27  1  1  0  0  0
 28 29  1  1  0  0  0
 28 30  1  0  0  0  0
 30 31  1  1  0  0  0
M  END
>  <CHROM.1>
176.50474285,179.03499599,-85.03920569,-95.45026940,-62.58114760,-36.89208568
176.66366701,66.57445183,84.48831054,158.22113552,175.30550144,-172.40366397
177.82405094,-60.71850555,-175.52967301,-81.32539557,-1.45532534,2.61661884
3.40544747,0.44224371,0.16769375,0.00350314

>  <Name>
lig.pdb

>  <RI>
3.32461e+07

>  <Rbt.Current_Directory>
/home/itssahil/PROJECTS/Mol_Feturizer/New_Systems/rnas/2n0j

>  <Rbt.Executable>
rbdock ($Id: //depot/dev/client3/rdock/2013.1/src/exe/rbdock.cxx#4 $)

>  <Rbt.Library>
libRbt.so (2013.1, Build901 2013/11/27)

>  <Rbt.Parameter_File>
/export/apps/rDock/src/rDock_2013.1_src/data/scripts/dock_solv.prm

>  <Rbt.Receptor>
prm/pocket_docking_7.prm

>  <SCORE>
-45.0251

>  <SCORE.INTER>
-37.9975

>  <SCORE.INTER.CONST>
1

>  <SCORE.INTER.POLAR>
-5.46117

>  <SCORE.INTER.ROT>
6

>  <SCORE.INTER.SOLV>
14.961

>  <SCORE.INTER.VDW>
-19.7148

>  <SCORE.INTER.norm>
-1.22573

>  <SCORE.INTRA>
-7.02761

>  <SCORE.INTRA.DIHEDRAL>
-12.2905

>  <SCORE.INTRA.DIHEDRAL.0>
28.0161

>  <SCORE.INTRA.POLAR>
-0.526911

>  <SCORE.INTRA.POLAR.0>
-1.05798

>  <SCORE.INTRA.REPUL>
0

>  <SCORE.INTRA.REPUL.0>
0

>  <SCORE.INTRA.SOLV>
0.85884

>  <SCORE.INTRA.SOLV.lig_0>
-42.5945

>  <SCORE.INTRA.VDW>
0.479721

>  <SCORE.INTRA.VDW.0>
-5.13869

>  <SCORE.INTRA.norm>
-0.226697

>  <SCORE.RESTR>
0

>  <SCORE.RESTR.CAVITY>
0

>  <SCORE.RESTR.norm>
0

>  <SCORE.SYSTEM>
0

>  <SCORE.SYSTEM.CONST>
0

>  <SCORE.SYSTEM.DIHEDRAL>
0

>  <SCORE.SYSTEM.SOLV>
0

>  <SCORE.SYSTEM.norm>
0

>  <SCORE.heavy>
31

>  <SCORE.norm>
-1.45242

>  <RMSD>
5.992

$$$$
lig.pdb
 OpenBabel11021811453D
libRbt.so/2013.1/901 2013/11/27
 31 33  0  0  0  0  0  0  0  0999 V2000
   -3.3675    6.5208    5.4396 O   0  0  0  0  0  0  0  0  0  0  0  0
   -2.8481    5.8526    4.3066 C   0  0  0  0  0  0  0  0  0  0  0  0
   -1.4327    6.3397    3.9679 C   0  0  1  0  0  0  0  0  0  0  0  0
   -0.4749    5.2994    4.0837 O   0  0  0  0  0  0  0  0  0  0  0  0
    0.6333    5.5721    3.2315 C   0  0  1  0  0  0  0  0  0  0  0  0
    0.9610    4.4101    2.4791 O   0  0  0  0  0  0  0  0  0  0  0  0
    2.1472    3.7196    2.8385 C   0  0  2  0  0  0  0  0  0  0  0  0
    3.2722    4.2099    1.9132 C   0  0  1  0  0  0  0  0  0  0  0  0
    3.5986    5.5543    2.2283 O   0  0  0  0  0  0  0  0  0  0  0  0
    4.5673    3.3897    2.0129 C   0  0  2  0  0  0  0  0  0  0  0  0
    5.5626    3.8529    1.0336 N   0  0  0  0  0  0  0  0  0  0  0  0
    4.2629    1.9164    1.7686 C   0  0  0  0  0  0  0  0  0  0  0  0
    3.2013    1.4417    2.7533 C   0  0  2  0  0  0  0  0  0  0  0  0
    2.9684    0.0104    2.5319 N   0  0  0  0  0  0  0  0  0  0  0  0
    1.9064    2.2657    2.5862 C   0  0  1  0  0  0  0  0  0  0  0  0
    0.9818    1.7255    3.5426 O   0  0  0  0  0  0  0  0  0  0  0  0
    0.0153    0.7987    3.0595 C   0  0  1  0  0  0  0  0  0  0  0  0
   -0.2165   -0.2314    4.0164 O   0  0  0  0  0  0  0  0  0  0  0  0
   -0.8816    0.1600    5.2155 C   0  0  2  0  0  0  0  0  0  0  0  0
   -1.0446   -1.0704    6.1178 C   0  0  0  0  0  0  0  0  0  0  0  0
    0.1883   -1.8397    6.2069 N   0  0  0  0  0  0  0  0  0  0  0  0
   -2.2630    0.7651    4.9035 C   0  0  1  0  0  0  0  0  0  0  0  0
   -2.8780    1.1991    6.1035 O   0  0  0  0  0  0  0  0  0  0  0  0
   -2.0772    1.9541    3.9526 C   0  0  2  0  0  0  0  0  0  0  0  0
   -3.3370    2.4783    3.5769 O   0  0  0  0  0  0  0  0  0  0  0  0
   -1.2831    1.5341    2.7084 C   0  0  1  0  0  0  0  0  0  0  0  0
   -1.0024    2.7073    1.8686 N   0  0  0  0  0  0  0  0  0  0  0  0
    0.1960    6.6943    2.2788 C   0  0  2  0  0  0  0  0  0  0  0  0
    0.8686    7.8948    2.6100 O   0  0  0  0  0  0  0  0  0  0  0  0
   -1.3128    6.7664    2.5083 C   0  0  2  0  0  0  0  0  0  0  0  0
   -1.8687    8.0384    2.2396 O   0  0  0  0  0  0  0  0  0  0  0  0
  2  1  1  0  0  0  0
  3  2  1  6  0  0  0
  3 30  1  0  0  0  0
  4  5  1  0  0  0  0
  4  3  1  0  0  0  0
  5 28  1  0  0  0  0
  5  6  1  6  0  0  0
  7  6  1  6  0  0  0
  8  7  1  0  0  0  0
  8  9  1  1  0  0  0
 10 11  1  6  0  0  0
 10  8  1  0  0  0  0
 12 10  1  0  0  0  0
 13 12  1  0  0  0  0
 13 15  1  0  0  0  0
 13 14  1  6  0  0  0
 15  7  1  0  0  0  0
 15 16  1  1  0  0  0
 17 16  1  1  0  0  0
 18 17  1  0  0  0  0
 19 20  1  1  0  0  0
 19 18  1  0  0  0  0
 20 21  1  0  0  0  0
 22 24  1  0  0  0  0
 22 19  1  0  0  0  0
 22 23  1  1  0  0  0
 24 25  1  6  0  0  0
 24 26  1  0  0  0  0
 26 17  1  0  0  0  0
 26 27  1  1  0  0  0
 28 29  1  1  0  0  0
 28 30  1  0  0  0  0
 30 31  1  1  0  0  0
M  END
>  <CHROM.1>
161.35912101,117.05796560,-107.44739888,-95.93634211,65.77487091,-50.74611180
83.29855815,139.99707835,142.77963524,46.20877667,147.27944763,-62.63206174
176.00816457,-58.79353872,66.88976124,-88.17675366,0.27471174,3.24043936
3.36704256,1.38878323,0.39099489,-0.25098399

>  <Name>
lig.pdb

>  <RI>
3.32461e+07

>  <Rbt.Current_Directory>
/home/itssahil/PROJECTS/Mol_Feturizer/New_Systems/rnas/2n0j

>  <Rbt.Executable>
rbdock ($Id: //depot/dev/client3/rdock/2013.1/src/exe/rbdock.cxx#4 $)

>  <Rbt.Library>
libRbt.so (2013.1, Build901 2013/11/27)

>  <Rbt.Parameter_File>
/export/apps/rDock/src/rDock_2013.1_src/data/scripts/dock_solv.prm

>  <Rbt.Receptor>
prm/pocket_docking_7.prm

>  <SCORE>
-33.7316

>  <SCORE.INTER>
-39.9925

>  <SCORE.INTER.CONST>
1

>  <SCORE.INTER.POLAR>
-4.83922

>  <SCORE.INTER.ROT>
6

>  <SCORE.INTER.SOLV>
18.3928

>  <SCORE.INTER.VDW>
-24.2619

>  <SCORE.INTER.norm>
-1.29008

>  <SCORE.INTRA>
6.26096

>  <SCORE.INTRA.DIHEDRAL>
8.32831

>  <SCORE.INTRA.DIHEDRAL.0>
28.0161

>  <SCORE.INTRA.POLAR>
0.057985

>  <SCORE.INTRA.POLAR.0>
-1.05798

>  <SCORE.INTRA.REPUL>
0

>  <SCORE.INTRA.REPUL.0>
0

>  <SCORE.INTRA.SOLV>
0.133949

>  <SCORE.INTRA.SOLV.lig_0>
-42.5945

>  <SCORE.INTRA.VDW>
1.83268

>  <SCORE.INTRA.VDW.0>
-5.13869

>  <SCORE.INTRA.norm>
0.201966

>  <SCORE.RESTR>
0

>  <SCORE.RESTR.CAVITY>
0

>  <SCORE.RESTR.norm>
0

>  <SCORE.SYSTEM>
0

>  <SCORE.SYSTEM.CONST>
0

>  <SCORE.SYSTEM.DIHEDRAL>
0

>  <SCORE.SYSTEM.SOLV>
0

>  <SCORE.SYSTEM.norm>
0

>  <SCORE.heavy>
31

>  <SCORE.norm>
-1.08812

>  <RMSD>
6.005

$$$$
lig.pdb
 OpenBabel11021811453D
libRbt.so/2013.1/901 2013/11/27
 31 33  0  0  0  0  0  0  0  0999 V2000
    3.2408    5.3807    2.6226 O   0  0  0  0  0  0  0  0  0  0  0  0
    2.1056    6.0140    2.0655 C   0  0  0  0  0  0  0  0  0  0  0  0
    0.9447    5.0267    1.8846 C   0  0  1  0  0  0  0  0  0  0  0  0
    1.2748    3.9841    0.9807 O   0  0  0  0  0  0  0  0  0  0  0  0
    0.4969    2.8286    1.2782 C   0  0  1  0  0  0  0  0  0  0  0  0
    1.3354    1.6802    1.3209 O   0  0  0  0  0  0  0  0  0  0  0  0
    0.7564    0.4416    0.9422 C   0  0  2  0  0  0  0  0  0  0  0  0
   -0.5146    0.7474    0.1339 C   0  0  1  0  0  0  0  0  0  0  0  0
   -0.1602    1.3103   -1.1195 O   0  0  0  0  0  0  0  0  0  0  0  0
   -1.3885   -0.4841   -0.1489 C   0  0  2  0  0  0  0  0  0  0  0  0
   -2.6306   -0.1031   -0.8390 N   0  0  0  0  0  0  0  0  0  0  0  0
   -1.7301   -1.1839    1.1612 C   0  0  0  0  0  0  0  0  0  0  0  0
   -0.4472   -1.5434    1.9006 C   0  0  2  0  0  0  0  0  0  0  0  0
   -0.8039   -2.2626    3.1283 N   0  0  0  0  0  0  0  0  0  0  0  0
    0.3752   -0.2715    2.1998 C   0  0  1  0  0  0  0  0  0  0  0  0
    1.5405   -0.7252    2.9053 O   0  0  0  0  0  0  0  0  0  0  0  0
    2.0325    0.1078    3.9496 C   0  0  1  0  0  0  0  0  0  0  0  0
    0.9581    0.7559    4.6250 O   0  0  0  0  0  0  0  0  0  0  0  0
    0.1082   -0.0811    5.4064 C   0  0  2  0  0  0  0  0  0  0  0  0
   -0.9809    0.7835    6.0551 C   0  0  0  0  0  0  0  0  0  0  0  0
   -2.1348    0.9410    5.1814 N   0  0  0  0  0  0  0  0  0  0  0  0
    0.9123   -0.8129    6.4971 C   0  0  1  0  0  0  0  0  0  0  0  0
    0.0583   -1.6809    7.2208 O   0  0  0  0  0  0  0  0  0  0  0  0
    2.0310   -1.6204    5.8270 C   0  0  2  0  0  0  0  0  0  0  0  0
    2.8429   -2.2354    6.8096 O   0  0  0  0  0  0  0  0  0  0  0  0
    2.8816   -0.7197    4.9212 C   0  0  1  0  0  0  0  0  0  0  0  0
    3.8673   -1.5272    4.1884 N   0  0  0  0  0  0  0  0  0  0  0  0
   -0.1298    3.0585    2.6612 C   0  0  2  0  0  0  0  0  0  0  0  0
   -1.5219    3.2770    2.5272 O   0  0  0  0  0  0  0  0  0  0  0  0
    0.6249    4.2827    3.1772 C   0  0  2  0  0  0  0  0  0  0  0  0
   -0.1086    5.0514    4.1100 O   0  0  0  0  0  0  0  0  0  0  0  0
  2  1  1  0  0  0  0
  3  2  1  1  0  0  0
  3 30  1  0  0  0  0
  4  5  1  0  0  0  0
  4  3  1  0  0  0  0
  5 28  1  0  0  0  0
  5  6  1  1  0  0  0
  7  6  1  1  0  0  0
  8  7  1  0  0  0  0
  8  9  1  6  0  0  0
 10 11  1  1  0  0  0
 10  8  1  0  0  0  0
 12 10  1  0  0  0  0
 13 12  1  0  0  0  0
 13 15  1  0  0  0  0
 13 14  1  1  0  0  0
 15  7  1  0  0  0  0
 15 16  1  6  0  0  0
 17 16  1  6  0  0  0
 18 17  1  0  0  0  0
 19 20  1  1  0  0  0
 19 18  1  0  0  0  0
 20 21  1  0  0  0  0
 22 24  1  0  0  0  0
 22 19  1  0  0  0  0
 22 23  1  6  0  0  0
 24 25  1  1  0  0  0
 24 26  1  0  0  0  0
 26 17  1  0  0  0  0
 26 27  1  6  0  0  0
 28 29  1  6  0  0  0
 28 30  1  0  0  0  0
 30 31  1  1  0  0  0
M  END
>  <CHROM.1>
61.01612725,-62.36470894,-149.40850509,18.78002178,-175.25116151,42.93762134
-78.93977703,96.00624534,34.77484270,87.40691910,58.30996836,64.79285217
65.74779244,-45.45475456,177.47807292,-57.06269979,0.49905518,0.98044132
3.03425201,-1.79877407,1.03436031,2.64286489

>  <Name>
lig.pdb

>  <RI>
0

>  <Rbt.Current_Directory>
/home/itssahil/PROJECTS/Mol_Feturizer/New_Systems/rnas/2n0j

>  <Rbt.Executable>
rbdock ($Id: //depot/dev/client3/rdock/2013.1/src/exe/rbdock.cxx#4 $)

>  <Rbt.Library>
libRbt.so (2013.1, Build901 2013/11/27)

>  <Rbt.Parameter_File>
/export/apps/rDock/src/rDock_2013.1_src/data/scripts/dock_solv.prm

>  <Rbt.Receptor>
prm/blind_docking_40.prm

>  <SCORE>
-20.2342

>  <SCORE.INTER>
-29.9382

>  <SCORE.INTER.CONST>
1

>  <SCORE.INTER.POLAR>
-4.02942

>  <SCORE.INTER.ROT>
6

>  <SCORE.INTER.SOLV>
22.3415

>  <SCORE.INTER.VDW>
-21.5746

>  <SCORE.INTER.norm>
-0.965749

>  <SCORE.INTRA>
5.86664

>  <SCORE.INTRA.DIHEDRAL>
-6.23765

>  <SCORE.INTRA.DIHEDRAL.0>
28.0161

>  <SCORE.INTRA.POLAR>
0.973778

>  <SCORE.INTRA.POLAR.0>
-1.05798

>  <SCORE.INTRA.REPUL>
0.0124208

>  <SCORE.INTRA.REPUL.0>
0

>  <SCORE.INTRA.SOLV>
1.41091

>  <SCORE.INTRA.SOLV.lig_0>
-42.5945

>  <SCORE.INTRA.VDW>
4.90706

>  <SCORE.INTRA.VDW.0>
-5.13869

>  <SCORE.INTRA.norm>
0.189246

>  <SCORE.RESTR>
3.83741

>  <SCORE.RESTR.CAVITY>
3.83741

>  <SCORE.RESTR.norm>
0.123787

>  <SCORE.SYSTEM>
0

>  <SCORE.SYSTEM.CONST>
0

>  <SCORE.SYSTEM.DIHEDRAL>
0

>  <SCORE.SYSTEM.SOLV>
0

>  <SCORE.SYSTEM.norm>
0

>  <SCORE.heavy>
31

>  <SCORE.norm>
-0.652715

>  <RMSD>
6.006

$$$$
lig.pdb
 OpenBabel11021811453D
libRbt.so/2013.1/901 2013/11/27
 31 33  0  0  0  0  0  0  0  0999 V2000
    3.8295    4.0420    1.5955 O   0  0  0  0  0  0  0  0  0  0  0  0
    2.8452    4.6688    2.3945 C   0  0  0  0  0  0  0  0  0  0  0  0
    1.4452    4.5127    1.7853 C   0  0  1  0  0  0  0  0  0  0  0  0
    1.1894    3.1753    1.3867 O   0  0  0  0  0  0  0  0  0  0  0  0
   -0.2135    2.9300    1.4068 C   0  0  1  0  0  0  0  0  0  0  0  0
   -0.4798    1.7064    2.0819 O   0  0  0  0  0  0  0  0  0  0  0  0
   -0.6062    0.5407    1.2830 C   0  0  2  0  0  0  0  0  0  0  0  0
   -1.9018    0.6714    0.4667 C   0  0  1  0  0  0  0  0  0  0  0  0
   -1.7514    1.6907   -0.5089 O   0  0  0  0  0  0  0  0  0  0  0  0
   -2.3085   -0.6124   -0.2726 C   0  0  2  0  0  0  0  0  0  0  0  0
   -3.6029   -0.4437   -0.9510 N   0  0  0  0  0  0  0  0  0  0  0  0
   -2.4012   -1.7680    0.7168 C   0  0  0  0  0  0  0  0  0  0  0  0
   -1.0758   -1.9206    1.4530 C   0  0  2  0  0  0  0  0  0  0  0  0
   -1.1757   -3.0717    2.3568 N   0  0  0  0  0  0  0  0  0  0  0  0
   -0.7313   -0.6223    2.2142 C   0  0  1  0  0  0  0  0  0  0  0  0
    0.5152   -0.8853    2.8766 O   0  0  0  0  0  0  0  0  0  0  0  0
    1.0326    0.1402    3.7176 C   0  0  1  0  0  0  0  0  0  0  0  0
    0.4139    0.0988    5.0006 O   0  0  0  0  0  0  0  0  0  0  0  0
    0.7332   -1.0249    5.8185 C   0  0  2  0  0  0  0  0  0  0  0  0
   -0.0171   -0.8988    7.1511 C   0  0  0  0  0  0  0  0  0  0  0  0
    0.6162    0.0684    8.0360 N   0  0  0  0  0  0  0  0  0  0  0  0
    2.2492   -1.1006    6.0782 C   0  0  1  0  0  0  0  0  0  0  0  0
    2.5474   -2.2555    6.8423 O   0  0  0  0  0  0  0  0  0  0  0  0
    2.9779   -1.1642    4.7300 C   0  0  2  0  0  0  0  0  0  0  0  0
    4.3785   -1.1462    4.9325 O   0  0  0  0  0  0  0  0  0  0  0  0
    2.5553    0.0046    3.8298 C   0  0  1  0  0  0  0  0  0  0  0  0
    3.1615   -0.1386    2.4984 N   0  0  0  0  0  0  0  0  0  0  0  0
   -0.8571    4.0921    2.1772 C   0  0  2  0  0  0  0  0  0  0  0  0
   -1.5781    4.9197    1.2835 O   0  0  0  0  0  0  0  0  0  0  0  0
    0.3469    4.7910    2.8066 C   0  0  2  0  0  0  0  0  0  0  0  0
    0.1386    6.1667    3.0579 O   0  0  0  0  0  0  0  0  0  0  0  0
  2  1  1  0  0  0  0
  3  2  1  1  0  0  0
  3 30  1  0  0  0  0
  4  5  1  0  0  0  0
  4  3  1  0  0  0  0
  5 28  1  0  0  0  0
  5  6  1  1  0  0  0
  7  6  1  1  0  0  0
  8  7  1  0  0  0  0
  8  9  1  6  0  0  0
 10 11  1  1  0  0  0
 10  8  1  0  0  0  0
 12 10  1  0  0  0  0
 13 12  1  0  0  0  0
 13 15  1  0  0  0  0
 13 14  1  1  0  0  0
 15  7  1  0  0  0  0
 15 16  1  6  0  0  0
 17 16  1  6  0  0  0
 18 17  1  0  0  0  0
 19 20  1  1  0  0  0
 19 18  1  0  0  0  0
 20 21  1  0  0  0  0
 22 24  1  0  0  0  0
 22 19  1  0  0  0  0
 22 23  1  1  0  0  0
 24 25  1  1  0  0  0
 24 26  1  0  0  0  0
 26 17  1  0  0  0  0
 26 27  1  6  0  0  0
 28 29  1  6  0  0  0
 28 30  1  0  0  0  0
 30 31  1  6  0  0  0
M  END
>  <CHROM.1>
-179.08407400,47.21506577,-94.55696283,-68.82963639,62.23724682,-60.07832055
60.95151090,62.35150316,81.89975497,-77.03394533,103.71671741,-63.66456047
-56.48464245,-82.87538920,60.77091425,-81.66493703,0.41984455,0.88859172
2.85884837,-2.16020348,0.80422159,2.73075150

>  <Name>
lig.pdb

>  <RI>
1.55206e+07

>  <Rbt.Current_Directory>
/home/itssahil/PROJECTS/Mol_Feturizer/New_Systems/rnas/2n0j

>  <Rbt.Executable>
rbdock ($Id: //depot/dev/client3/rdock/2013.1/src/exe/rbdock.cxx#4 $)

>  <Rbt.Library>
libRbt.so (2013.1, Build901 2013/11/27)

>  <Rbt.Parameter_File>
/export/apps/rDock/src/rDock_2013.1_src/data/scripts/dock_solv.prm

>  <Rbt.Receptor>
prm/blind_docking_80.prm

>  <SCORE>
-37.941

>  <SCORE.INTER>
-40.3886

>  <SCORE.INTER.CONST>
1

>  <SCORE.INTER.POLAR>
-4.69003

>  <SCORE.INTER.ROT>
6

>  <SCORE.INTER.SOLV>
23.3404

>  <SCORE.INTER.VDW>
-26.6724

>  <SCORE.INTER.norm>
-1.30286

>  <SCORE.INTRA>
1.54178

>  <SCORE.INTRA.DIHEDRAL>
-12.831

>  <SCORE.INTRA.DIHEDRAL.0>
28.0161

>  <SCORE.INTRA.POLAR>
1.05349

>  <SCORE.INTRA.POLAR.0>
-1.05798

>  <SCORE.INTRA.REPUL>
0

>  <SCORE.INTRA.REPUL.0>
0

>  <SCORE.INTRA.SOLV>
-0.272855

>  <SCORE.INTRA.SOLV.lig_0>
-42.5945

>  <SCORE.INTRA.VDW>
4.51182

>  <SCORE.INTRA.VDW.0>
-5.13869

>  <SCORE.INTRA.norm>
0.0497349

>  <SCORE.RESTR>
0.905749

>  <SCORE.RESTR.CAVITY>
0.905749

>  <SCORE.RESTR.norm>
0.0292177

>  <SCORE.SYSTEM>
0

>  <SCORE.SYSTEM.CONST>
0

>  <SCORE.SYSTEM.DIHEDRAL>
0

>  <SCORE.SYSTEM.SOLV>
0

>  <SCORE.SYSTEM.norm>
0

>  <SCORE.heavy>
31

>  <SCORE.norm>
-1.2239

>  <RMSD>
6.008

$$$$
lig.pdb
 OpenBabel11021811453D
libRbt.so/2013.1/901 2013/11/27
 31 33  0  0  0  0  0  0  0  0999 V2000
   -1.0684    6.6722    2.3597 O   0  0  0  0  0  0  0  0  0  0  0  0
    0.2867    6.9422    2.6610 C   0  0  0  0  0  0  0  0  0  0  0  0
    1.1533    5.6828    2.5254 C   0  0  1  0  0  0  0  0  0  0  0  0
    0.7373    4.6580    3.4141 O   0  0  0  0  0  0  0  0  0  0  0  0
    1.1048    3.3876    2.8851 C   0  0  1  0  0  0  0  0  0  0  0  0
   -0.0023    2.4970    2.9553 O   0  0  0  0  0  0  0  0  0  0  0  0
   -0.2109    1.6352    1.8478 C   0  0  2  0  0  0  0  0  0  0  0  0
   -1.6563    1.8353    1.3653 C   0  0  1  0  0  0  0  0  0  0  0  0
   -1.7906    3.1198    0.7774 O   0  0  0  0  0  0  0  0  0  0  0  0
   -2.1170    0.8052    0.3229 C   0  0  2  0  0  0  0  0  0  0  0  0
   -3.5347    0.9978   -0.0195 N   0  0  0  0  0  0  0  0  0  0  0  0
   -1.9136   -0.6037    0.8676 C   0  0  0  0  0  0  0  0  0  0  0  0
   -0.4546   -0.7951    1.2634 C   0  0  2  0  0  0  0  0  0  0  0  0
   -0.2768   -2.1738    1.7317 N   0  0  0  0  0  0  0  0  0  0  0  0
   -0.0510    0.2332    2.3419 C   0  0  1  0  0  0  0  0  0  0  0  0
    1.3234   -0.0496    2.6463 O   0  0  0  0  0  0  0  0  0  0  0  0
    1.9326    0.7222    3.6758 C   0  0  1  0  0  0  0  0  0  0  0  0
    1.1764    0.6399    4.8808 O   0  0  0  0  0  0  0  0  0  0  0  0
    1.1752   -0.6250    5.5391 C   0  0  2  0  0  0  0  0  0  0  0  0
    0.3180   -0.5241    6.8079 C   0  0  0  0  0  0  0  0  0  0  0  0
   -0.4218   -1.7532    7.0569 N   0  0  0  0  0  0  0  0  0  0  0  0
    2.6078   -1.0513    5.9097 C   0  0  1  0  0  0  0  0  0  0  0  0
    2.5860   -2.3348    6.5086 O   0  0  0  0  0  0  0  0  0  0  0  0
    3.4580   -1.0852    4.6336 C   0  0  2  0  0  0  0  0  0  0  0  0
    4.8030   -1.3888    4.9527 O   0  0  0  0  0  0  0  0  0  0  0  0
    3.3767    0.2562    3.8925 C   0  0  1  0  0  0  0  0  0  0  0  0
    4.0901    0.1688    2.6103 N   0  0  0  0  0  0  0  0  0  0  0  0
    1.4906    3.6124    1.4159 C   0  0  2  0  0  0  0  0  0  0  0  0
    2.8890    3.4604    1.2579 O   0  0  0  0  0  0  0  0  0  0  0  0
    1.0062    5.0371    1.1513 C   0  0  2  0  0  0  0  0  0  0  0  0
    1.7240    5.7015    0.1303 O   0  0  0  0  0  0  0  0  0  0  0  0
  2  1  1  0  0  0  0
  3  2  1  6  0  0  0
  3 30  1  0  0  0  0
  4  5  1  0  0  0  0
  4  3  1  0  0  0  0
  5 28  1  0  0  0  0
  5  6  1  6  0  0  0
  7  6  1  1  0  0  0
  8  7  1  0  0  0  0
  8  9  1  6  0  0  0
 10 11  1  1  0  0  0
 10  8  1  0  0  0  0
 12 10  1  0  0  0  0
 13 12  1  0  0  0  0
 13 15  1  0  0  0  0
 13 14  1  1  0  0  0
 15  7  1  0  0  0  0
 15 16  1  6  0  0  0
 17 16  1  6  0  0  0
 18 17  1  0  0  0  0
 19 20  1  1  0  0  0
 19 18  1  0  0  0  0
 20 21  1  0  0  0  0
 22 24  1  0  0  0  0
 22 19  1  0  0  0  0
 22 23  1  6  0  0  0
 24 25  1  1  0  0  0
 24 26  1  0  0  0  0
 26 17  1  0  0  0  0
 26 27  1  6  0  0  0
 28 29  1  1  0  0  0
 28 30  1  0  0  0  0
 30 31  1  6  0  0  0
M  END
>  <CHROM.1>
-177.43012068,-60.81727747,139.75925983,-125.82122404,26.32197154,-82.67215645
-105.14647808,62.28927199,54.93035780,143.70105720,-149.67253357,-169.57525225
98.36098801,-117.08989290,55.64945594,61.67131468,0.77422706,1.46266173,2.91727325
-1.93534696,0.59213723,2.78640539

>  <Name>
lig.pdb

>  <RI>
1.79691e+07

>  <Rbt.Current_Directory>
/home/itssahil/PROJECTS/Mol_Feturizer/New_Systems/rnas/2n0j

>  <Rbt.Executable>
rbdock ($Id: //depot/dev/client3/rdock/2013.1/src/exe/rbdock.cxx#4 $)

>  <Rbt.Library>
libRbt.so (2013.1, Build901 2013/11/27)

>  <Rbt.Parameter_File>
/export/apps/rDock/src/rDock_2013.1_src/data/scripts/dock_solv.prm

>  <Rbt.Receptor>
prm/blind_docking_20.prm

>  <SCORE>
-27.7175

>  <SCORE.INTER>
-44.1321

>  <SCORE.INTER.CONST>
1

>  <SCORE.INTER.POLAR>
-6.70477

>  <SCORE.INTER.ROT>
6

>  <SCORE.INTER.SOLV>
25.836

>  <SCORE.INTER.VDW>
-23.2842

>  <SCORE.INTER.norm>
-1.42362

>  <SCORE.INTRA>
14.3438

>  <SCORE.INTRA.DIHEDRAL>
7.92344

>  <SCORE.INTRA.DIHEDRAL.0>
28.0161

>  <SCORE.INTRA.POLAR>
1.00122

>  <SCORE.INTRA.POLAR.0>
-1.05798

>  <SCORE.INTRA.REPUL>
0

>  <SCORE.INTRA.REPUL.0>
0

>  <SCORE.INTRA.SOLV>
1.27689

>  <SCORE.INTRA.SOLV.lig_0>
-42.5945

>  <SCORE.INTRA.VDW>
6.33949

>  <SCORE.INTRA.VDW.0>
-5.13869

>  <SCORE.INTRA.norm>
0.462703

>  <SCORE.RESTR>
2.07081

>  <SCORE.RESTR.CAVITY>
2.07081

>  <SCORE.RESTR.norm>
0.0668002

>  <SCORE.SYSTEM>
0

>  <SCORE.SYSTEM.CONST>
0

>  <SCORE.SYSTEM.DIHEDRAL>
0

>  <SCORE.SYSTEM.SOLV>
0

>  <SCORE.SYSTEM.norm>
0

>  <SCORE.heavy>
31

>  <SCORE.norm>
-0.894113

>  <RMSD>
6.009

$$$$
lig.pdb
 OpenBabel11021811453D
libRbt.so/2013.1/901 2013/11/27
 31 33  0  0  0  0  0  0  0  0999 V2000
    3.1154    6.0877    2.6392 O   0  0  0  0  0  0  0  0  0  0  0  0
    2.9040    4.7535    2.2205 C   0  0  0  0  0  0  0  0  0  0  0  0
    1.4966    4.5643    1.6386 C   0  0  1  0  0  0  0  0  0  0  0  0
    1.2502    3.2133    1.2823 O   0  0  0  0  0  0  0  0  0  0  0  0
   -0.1492    2.9529    1.3319 C   0  0  1  0  0  0  0  0  0  0  0  0
   -0.3906    1.7461    2.0455 O   0  0  0  0  0  0  0  0  0  0  0  0
   -0.5599    0.5640    1.2795 C   0  0  2  0  0  0  0  0  0  0  0  0
   -1.8973    0.6794    0.5310 C   0  0  1  0  0  0  0  0  0  0  0  0
   -1.7988    1.6777   -0.4727 O   0  0  0  0  0  0  0  0  0  0  0  0
   -2.3435   -0.6190   -0.1582 C   0  0  2  0  0  0  0  0  0  0  0  0
   -3.6723   -0.4627   -0.7698 N   0  0  0  0  0  0  0  0  0  0  0  0
   -2.3837   -1.7533    0.8591 C   0  0  0  0  0  0  0  0  0  0  0  0
   -1.0209   -1.8925    1.5265 C   0  0  2  0  0  0  0  0  0  0  0  0
   -1.0728   -3.0240    2.4584 N   0  0  0  0  0  0  0  0  0  0  0  0
   -0.6356   -0.5789    2.2405 C   0  0  1  0  0  0  0  0  0  0  0  0
    0.6444   -0.8298    2.8407 O   0  0  0  0  0  0  0  0  0  0  0  0
    1.1842    0.1933    3.6704 C   0  0  1  0  0  0  0  0  0  0  0  0
    0.5416    0.2011    4.9423 O   0  0  0  0  0  0  0  0  0  0  0  0
    0.8046   -0.9163    5.7883 C   0  0  2  0  0  0  0  0  0  0  0  0
    0.0358   -0.7354    7.1039 C   0  0  0  0  0  0  0  0  0  0  0  0
   -0.8900   -1.8336    7.3419 N   0  0  0  0  0  0  0  0  0  0  0  0
    2.3120   -1.0419    6.0776 C   0  0  1  0  0  0  0  0  0  0  0  0
    2.5536   -2.1908    6.8701 O   0  0  0  0  0  0  0  0  0  0  0  0
    3.0617   -1.1600    4.7448 C   0  0  2  0  0  0  0  0  0  0  0  0
    4.4582   -1.1889    4.9728 O   0  0  0  0  0  0  0  0  0  0  0  0
    2.6986    0.0046    3.8136 C   0  0  1  0  0  0  0  0  0  0  0  0
    3.3228   -0.1882    2.4969 N   0  0  0  0  0  0  0  0  0  0  0  0
   -0.7942    4.1291    2.0792 C   0  0  2  0  0  0  0  0  0  0  0  0
   -1.5389    4.9228    1.1742 O   0  0  0  0  0  0  0  0  0  0  0  0
    0.4114    4.8592    2.6692 C   0  0  2  0  0  0  0  0  0  0  0  0
    0.1909    6.2391    2.8848 O   0  0  0  0  0  0  0  0  0  0  0  0
  2  1  1  0  0  0  0
  3  2  1  1  0  0  0
  3 30  1  0  0  0  0
  4  5  1  0  0  0  0
  4  3  1  0  0  0  0
  5 28  1  0  0  0  0
  5  6  1  1  0  0  0
  7  6  1  1  0  0  0
  8  7  1  0  0  0  0
  8  9  1  6  0  0  0
 10 11  1  1  0  0  0
 10  8  1  0  0  0  0
 12 10  1  0  0  0  0
 13 12  1  0  0  0  0
 13 15  1  0  0  0  0
 13 14  1  1  0  0  0
 15  7  1  0  0  0  0
 15 16  1  6  0  0  0
 17 16  1  6  0  0  0
 18 17  1  0  0  0  0
 19 20  1  1  0  0  0
 19 18  1  0  0  0  0
 20 21  1  0  0  0  0
 22 24  1  0  0  0  0
 22 19  1  0  0  0  0
 22 23  1  1  0  0  0
 24 25  1  1  0  0  0
 24 26  1  0  0  0  0
 26 17  1  0  0  0  0
 26 27  1  6  0  0  0
 28 29  1  6  0  0  0
 28 30  1  0  0  0  0
 30 31  1  6  0  0  0
M  END
>  <CHROM.1>
175.44114953,-176.83458091,-96.58944234,-69.33220699,-176.32836859,72.20542402
-179.55140103,64.57958219,76.74394055,120.86556451,-25.42562498,-62.62208691
-179.63444505,159.22917389,64.16830576,71.53767416,0.38601011,0.92241823
2.85119439,-1.86060618,0.75254662,2.71932333

>  <Name>
lig.pdb

>  <RI>
1.55206e+07

>  <Rbt.Current_Directory>
/home/itssahil/PROJECTS/Mol_Feturizer/New_Systems/rnas/2n0j

>  <Rbt.Executable>
rbdock ($Id: //depot/dev/client3/rdock/2013.1/src/exe/rbdock.cxx#4 $)

>  <Rbt.Library>
libRbt.so (2013.1, Build901 2013/11/27)

>  <Rbt.Parameter_File>
/export/apps/rDock/src/rDock_2013.1_src/data/scripts/dock_solv.prm

>  <Rbt.Receptor>
prm/blind_docking_80.prm

>  <SCORE>
-37.5639

>  <SCORE.INTER>
-39.781

>  <SCORE.INTER.CONST>
1

>  <SCORE.INTER.POLAR>
-5.03764

>  <SCORE.INTER.ROT>
6

>  <SCORE.INTER.SOLV>
24.4898

>  <SCORE.INTER.VDW>
-25.4918

>  <SCORE.INTER.norm>
-1.28326

>  <SCORE.INTRA>
0.629639

>  <SCORE.INTRA.DIHEDRAL>
-11.2504

>  <SCORE.INTRA.DIHEDRAL.0>
28.0161

>  <SCORE.INTRA.POLAR>
0.979825

>  <SCORE.INTRA.POLAR.0>
-1.05798

>  <SCORE.INTRA.REPUL>
0

>  <SCORE.INTRA.REPUL.0>
0

>  <SCORE.INTRA.SOLV>
-0.150033

>  <SCORE.INTRA.SOLV.lig_0>
-42.5945

>  <SCORE.INTRA.VDW>
2.99845

>  <SCORE.INTRA.VDW.0>
-5.13869

>  <SCORE.INTRA.norm>
0.0203109

>  <SCORE.RESTR>
1.58747

>  <SCORE.RESTR.CAVITY>
1.58747

>  <SCORE.RESTR.norm>
0.0512087

>  <SCORE.SYSTEM>
0

>  <SCORE.SYSTEM.CONST>
0

>  <SCORE.SYSTEM.DIHEDRAL>
0

>  <SCORE.SYSTEM.SOLV>
0

>  <SCORE.SYSTEM.norm>
0

>  <SCORE.heavy>
31

>  <SCORE.norm>
-1.21174

>  <RMSD>
6.011

$$$$
lig.pdb
 OpenBabel11021811453D
libRbt.so/2013.1/901 2013/11/27
 31 33  0  0  0  0  0  0  0  0999 V2000
    3.1154    4.8862    2.9931 O   0  0  0  0  0  0  0  0  0  0  0  0
    2.8291    4.8408    1.6088 C   0  0  0  0  0  0  0  0  0  0  0  0
    1.3329    4.6155    1.3524 C   0  0  1  0  0  0  0  0  0  0  0  0
    1.0530    3.2663    1.0141 O   0  0  0  0  0  0  0  0  0  0  0  0
   -0.2906    2.9530    1.3683 C   0  0  1  0  0  0  0  0  0  0  0  0
   -0.3280    1.7193    2.0757 O   0  0  0  0  0  0  0  0  0  0  0  0
   -0.4671    0.5357    1.3059 C   0  0  2  0  0  0  0  0  0  0  0  0
   -1.7475    0.6715    0.4666 C   0  0  1  0  0  0  0  0  0  0  0  0
   -1.5612    1.6613   -0.5329 O   0  0  0  0  0  0  0  0  0  0  0  0
   -2.1702   -0.6227   -0.2449 C   0  0  2  0  0  0  0  0  0  0  0  0
   -3.4506   -0.4453   -0.9472 N   0  0  0  0  0  0  0  0  0  0  0  0
   -2.3018   -1.7495    0.7729 C   0  0  0  0  0  0  0  0  0  0  0  0
   -0.9909   -1.9100    1.5330 C   0  0  2  0  0  0  0  0  0  0  0  0
   -1.1284   -3.0344    2.4650 N   0  0  0  0  0  0  0  0  0  0  0  0
   -0.6304   -0.5994    2.2651 C   0  0  1  0  0  0  0  0  0  0  0  0
    0.6003   -0.8704    2.9532 O   0  0  0  0  0  0  0  0  0  0  0  0
    1.1204    0.1616    3.7844 C   0  0  1  0  0  0  0  0  0  0  0  0
    0.4674    0.1647    5.0510 O   0  0  0  0  0  0  0  0  0  0  0  0
    0.7376   -0.9470    5.9022 C   0  0  2  0  0  0  0  0  0  0  0  0
   -0.0441   -0.7723    7.2111 C   0  0  0  0  0  0  0  0  0  0  0  0
   -1.4699   -0.6047    6.9684 N   0  0  0  0  0  0  0  0  0  0  0  0
    2.2440   -1.0528    6.2041 C   0  0  1  0  0  0  0  0  0  0  0  0
    2.4936   -2.1965    7.0017 O   0  0  0  0  0  0  0  0  0  0  0  0
    3.0060   -1.1651    4.8778 C   0  0  2  0  0  0  0  0  0  0  0  0
    4.4008   -1.1758    5.1172 O   0  0  0  0  0  0  0  0  0  0  0  0
    2.6359   -0.0077    3.9404 C   0  0  1  0  0  0  0  0  0  0  0  0
    3.2732   -0.1961    2.6293 N   0  0  0  0  0  0  0  0  0  0  0  0
   -0.7849    4.0840    2.2819 C   0  0  2  0  0  0  0  0  0  0  0  0
   -1.7383    4.8736    1.5957 O   0  0  0  0  0  0  0  0  0  0  0  0
    0.5004    4.8420    2.6103 C   0  0  2  0  0  0  0  0  0  0  0  0
    0.2931    6.2065    2.9176 O   0  0  0  0  0  0  0  0  0  0  0  0
  2  1  1  0  0  0  0
  3  2  1  1  0  0  0
  3 30  1  0  0  0  0
  4  5  1  0  0  0  0
  4  3  1  0  0  0  0
  5 28  1  0  0  0  0
  5  6  1  1  0  0  0
  7  6  1  1  0  0  0
  8  7  1  0  0  0  0
  8  9  1  6  0  0  0
 10 11  1  1  0  0  0
 10  8  1  0  0  0  0
 12 10  1  0  0  0  0
 13 12  1  0  0  0  0
 13 15  1  0  0  0  0
 13 14  1  1  0  0  0
 15  7  1  0  0  0  0
 15 16  1  6  0  0  0
 17 16  1  6  0  0  0
 18 17  1  0  0  0  0
 19 20  1  1  0  0  0
 19 18  1  0  0  0  0
 20 21  1  0  0  0  0
 22 24  1  0  0  0  0
 22 19  1  0  0  0  0
 22 23  1  1  0  0  0
 24 25  1  1  0  0  0
 24 26  1  0  0  0  0
 26 17  1  0  0  0  0
 26 27  1  6  0  0  0
 28 29  1  6  0  0  0
 28 30  1  0  0  0  0
 30 31  1  6  0  0  0
M  END
>  <CHROM.1>
179.99177271,-101.20308893,-89.05863307,-56.73193607,63.03256681,-53.26987174
-58.98768545,62.90839526,81.13127021,55.76755535,79.69359079,158.54687314
74.71772734,-82.86106539,178.92697634,-164.51027967,0.36310347,0.91567254
2.87140441,-1.96772180,0.79212490,2.72128904

>  <Name>
lig.pdb

>  <RI>
1.79691e+07

>  <Rbt.Current_Directory>
/home/itssahil/PROJECTS/Mol_Feturizer/New_Systems/rnas/2n0j

>  <Rbt.Executable>
rbdock ($Id: //depot/dev/client3/rdock/2013.1/src/exe/rbdock.cxx#4 $)

>  <Rbt.Library>
libRbt.so (2013.1, Build901 2013/11/27)

>  <Rbt.Parameter_File>
/export/apps/rDock/src/rDock_2013.1_src/data/scripts/dock_solv.prm

>  <Rbt.Receptor>
prm/blind_docking_20.prm

>  <SCORE>
-29.815

>  <SCORE.INTER>
-33.2016

>  <SCORE.INTER.CONST>
1

>  <SCORE.INTER.POLAR>
-4.51858

>  <SCORE.INTER.ROT>
6

>  <SCORE.INTER.SOLV>
23.3577

>  <SCORE.INTER.VDW>
-22.4584

>  <SCORE.INTER.norm>
-1.07102

>  <SCORE.INTRA>
2.46556

>  <SCORE.INTRA.DIHEDRAL>
-11.7505

>  <SCORE.INTRA.DIHEDRAL.0>
28.0161

>  <SCORE.INTRA.POLAR>
0.99526

>  <SCORE.INTRA.POLAR.0>
-1.05798

>  <SCORE.INTRA.REPUL>
0

>  <SCORE.INTRA.REPUL.0>
0

>  <SCORE.INTRA.SOLV>
0.166475

>  <SCORE.INTRA.SOLV.lig_0>
-42.5945

>  <SCORE.INTRA.VDW>
4.87367

>  <SCORE.INTRA.VDW.0>
-5.13869

>  <SCORE.INTRA.norm>
0.0795341

>  <SCORE.RESTR>
0.92108

>  <SCORE.RESTR.CAVITY>
0.92108

>  <SCORE.RESTR.norm>
0.0297123

>  <SCORE.SYSTEM>
0

>  <SCORE.SYSTEM.CONST>
0

>  <SCORE.SYSTEM.DIHEDRAL>
0

>  <SCORE.SYSTEM.SOLV>
0

>  <SCORE.SYSTEM.norm>
0

>  <SCORE.heavy>
31

>  <SCORE.norm>
-0.961774

>  <RMSD>
6.013

$$$$
lig.pdb
 OpenBabel11021811453D
libRbt.so/2013.1/901 2013/11/27
 31 33  0  0  0  0  0  0  0  0999 V2000
   -0.3647    6.2474    3.0241 O   0  0  0  0  0  0  0  0  0  0  0  0
    1.0444    6.1915    3.1306 C   0  0  0  0  0  0  0  0  0  0  0  0
    1.5897    4.8373    2.6572 C   0  0  1  0  0  0  0  0  0  0  0  0
    0.9148    3.7522    3.2737 O   0  0  0  0  0  0  0  0  0  0  0  0
    0.9848    2.6050    2.4325 C   0  0  1  0  0  0  0  0  0  0  0  0
   -0.3043    2.0153    2.3121 O   0  0  0  0  0  0  0  0  0  0  0  0
   -0.4329    0.9165    1.4239 C   0  0  2  0  0  0  0  0  0  0  0  0
   -1.8268    0.9956    0.7811 C   0  0  1  0  0  0  0  0  0  0  0  0
   -1.8840    2.1051   -0.1015 O   0  0  0  0  0  0  0  0  0  0  0  0
   -2.2155   -0.2518   -0.0270 C   0  0  2  0  0  0  0  0  0  0  0  0
   -3.5940   -0.1469   -0.5298 N   0  0  0  0  0  0  0  0  0  0  0  0
   -2.0882   -1.4923    0.8493 C   0  0  0  0  0  0  0  0  0  0  0  0
   -0.6732   -1.5834    1.4073 C   0  0  2  0  0  0  0  0  0  0  0  0
   -0.5641   -2.8127    2.2002 N   0  0  0  0  0  0  0  0  0  0  0  0
   -0.3444   -0.3293    2.2457 C   0  0  1  0  0  0  0  0  0  0  0  0
    0.9925   -0.5308    2.7291 O   0  0  0  0  0  0  0  0  0  0  0  0
    1.4728    0.3825    3.7098 C   0  0  1  0  0  0  0  0  0  0  0  0
    0.7795    0.2079    4.9425 O   0  0  0  0  0  0  0  0  0  0  0  0
    1.0359   -1.0072    5.6433 C   0  0  2  0  0  0  0  0  0  0  0  0
    0.2105   -1.0185    6.9369 C   0  0  0  0  0  0  0  0  0  0  0  0
    0.6532    0.0105    7.8669 N   0  0  0  0  0  0  0  0  0  0  0  0
    2.5330   -1.1413    5.9783 C   0  0  1  0  0  0  0  0  0  0  0  0
    2.7710   -2.3810    6.6211 O   0  0  0  0  0  0  0  0  0  0  0  0
    3.3386   -1.0659    4.6753 C   0  0  2  0  0  0  0  0  0  0  0  0
    4.7250   -1.0982    4.9577 O   0  0  0  0  0  0  0  0  0  0  0  0
    2.9845    0.2054    3.8920 C   0  0  1  0  0  0  0  0  0  0  0  0
    3.6658    0.2023    2.5896 N   0  0  0  0  0  0  0  0  0  0  0  0
    1.4574    3.0919    1.0549 C   0  0  2  0  0  0  0  0  0  0  0  0
    2.7834    2.6558    0.8204 O   0  0  0  0  0  0  0  0  0  0  0  0
    1.3346    4.6104    1.1705 C   0  0  2  0  0  0  0  0  0  0  0  0
    2.2207    5.3185    0.3264 O   0  0  0  0  0  0  0  0  0  0  0  0
  2  1  1  0  0  0  0
  3  2  1  1  0  0  0
  3 30  1  0  0  0  0
  4  5  1  0  0  0  0
  4  3  1  0  0  0  0
  5 28  1  0  0  0  0
  5  6  1  6  0  0  0
  7  6  1  1  0  0  0
  8  7  1  0  0  0  0
  8  9  1  6  0  0  0
 10 11  1  1  0  0  0
 10  8  1  0  0  0  0
 12 10  1  0  0  0  0
 13 12  1  0  0  0  0
 13 15  1  0  0  0  0
 13 14  1  1  0  0  0
 15  7  1  0  0  0  0
 15 16  1  6  0  0  0
 17 16  1  6  0  0  0
 18 17  1  0  0  0  0
 19 20  1  1  0  0  0
 19 18  1  0  0  0  0
 20 21  1  0  0  0  0
 22 24  1  0  0  0  0
 22 19  1  0  0  0  0
 22 23  1  6  0  0  0
 24 25  1  1  0  0  0
 24 26  1  0  0  0  0
 26 17  1  0  0  0  0
 26 27  1  6  0  0  0
 28 29  1  1  0  0  0
 28 30  1  0  0  0  0
 30 31  1  6  0  0  0
M  END
>  <CHROM.1>
68.59391000,-50.72569862,175.34129133,-145.31274330,-59.23970457,60.92979165
-66.63170066,68.92913748,68.46352890,-66.29510392,-14.79737407,-60.77374978
69.71135476,-76.75286727,-64.53876619,46.40470107,0.76493653,1.02435623,2.88632132
-2.00339811,0.78812458,2.72290888

>  <Name>
lig.pdb

>  <RI>
0

>  <Rbt.Current_Directory>
/home/itssahil/PROJECTS/Mol_Feturizer/New_Systems/rnas/2n0j

>  <Rbt.Executable>
rbdock ($Id: //depot/dev/client3/rdock/2013.1/src/exe/rbdock.cxx#4 $)

>  <Rbt.Library>
libRbt.so (2013.1, Build901 2013/11/27)

>  <Rbt.Parameter_File>
/export/apps/rDock/src/rDock_2013.1_src/data/scripts/dock_solv.prm

>  <Rbt.Receptor>
prm/blind_docking_60.prm

>  <SCORE>
-36.1364

>  <SCORE.INTER>
-36.1178

>  <SCORE.INTER.CONST>
1

>  <SCORE.INTER.POLAR>
-4.48393

>  <SCORE.INTER.ROT>
6

>  <SCORE.INTER.SOLV>
25.4333

>  <SCORE.INTER.VDW>
-25.2098

>  <SCORE.INTER.norm>
-1.16509

>  <SCORE.INTRA>
-0.660724

>  <SCORE.INTRA.DIHEDRAL>
-16.2412

>  <SCORE.INTRA.DIHEDRAL.0>
28.0161

>  <SCORE.INTRA.POLAR>
0.427013

>  <SCORE.INTRA.POLAR.0>
-1.05798

>  <SCORE.INTRA.REPUL>
0

>  <SCORE.INTRA.REPUL.0>
0

>  <SCORE.INTRA.SOLV>
1.22158

>  <SCORE.INTRA.SOLV.lig_0>
-42.5945

>  <SCORE.INTRA.VDW>
5.39725

>  <SCORE.INTRA.VDW.0>
-5.13869

>  <SCORE.INTRA.norm>
-0.0213137

>  <SCORE.RESTR>
0.642166

>  <SCORE.RESTR.CAVITY>
0.642166

>  <SCORE.RESTR.norm>
0.020715

>  <SCORE.SYSTEM>
0

>  <SCORE.SYSTEM.CONST>
0

>  <SCORE.SYSTEM.DIHEDRAL>
0

>  <SCORE.SYSTEM.SOLV>
0

>  <SCORE.SYSTEM.norm>
0

>  <SCORE.heavy>
31

>  <SCORE.norm>
-1.16569

>  <RMSD>
6.017

$$$$
lig.pdb
 OpenBabel11021811453D
libRbt.so/2013.1/901 2013/11/27
 31 33  0  0  0  0  0  0  0  0999 V2000
   -2.6325    3.6138    6.5247 O   0  0  0  0  0  0  0  0  0  0  0  0
   -2.2516    4.9240    6.1524 C   0  0  0  0  0  0  0  0  0  0  0  0
   -1.8175    4.9856    4.6817 C   0  0  1  0  0  0  0  0  0  0  0  0
   -0.8362    4.0064    4.3799 O   0  0  0  0  0  0  0  0  0  0  0  0
   -0.8971    3.6788    2.9951 C   0  0  1  0  0  0  0  0  0  0  0  0
   -0.8944    2.2655    2.8328 O   0  0  0  0  0  0  0  0  0  0  0  0
    0.2352    1.5601    3.3219 C   0  0  2  0  0  0  0  0  0  0  0  0
    1.4893    2.2017    2.7071 C   0  0  1  0  0  0  0  0  0  0  0  0
    1.6816    3.4962    3.2553 O   0  0  0  0  0  0  0  0  0  0  0  0
    2.7816    1.4067    2.9479 C   0  0  2  0  0  0  0  0  0  0  0  0
    3.9201    2.0260    2.2517 N   0  0  0  0  0  0  0  0  0  0  0  0
    2.6039   -0.0248    2.4557 C   0  0  0  0  0  0  0  0  0  0  0  0
    1.4000   -0.6577    3.1426 C   0  0  2  0  0  0  0  0  0  0  0  0
    1.2859   -2.0491    2.6923 N   0  0  0  0  0  0  0  0  0  0  0  0
    0.1205    0.1505    2.8370 C   0  0  1  0  0  0  0  0  0  0  0  0
   -0.9404   -0.5402    3.5144 O   0  0  0  0  0  0  0  0  0  0  0  0
   -2.2247    0.0741    3.5055 C   0  0  1  0  0  0  0  0  0  0  0  0
   -2.6147    0.4056    2.1756 O   0  0  0  0  0  0  0  0  0  0  0  0
   -2.9003   -0.6914    1.3104 C   0  0  2  0  0  0  0  0  0  0  0  0
   -3.3013   -0.1468   -0.0670 C   0  0  0  0  0  0  0  0  0  0  0  0
   -3.5466   -1.2200   -1.0197 N   0  0  0  0  0  0  0  0  0  0  0  0
   -4.0389   -1.5574    1.8809 C   0  0  1  0  0  0  0  0  0  0  0  0
   -4.2639   -2.6710    1.0349 O   0  0  0  0  0  0  0  0  0  0  0  0
   -3.6385   -2.0382    3.2813 C   0  0  2  0  0  0  0  0  0  0  0  0
   -4.7014   -2.7650    3.8687 O   0  0  0  0  0  0  0  0  0  0  0  0
   -3.2501   -0.8503    4.1718 C   0  0  1  0  0  0  0  0  0  0  0  0
   -2.7477   -1.3325    5.4662 N   0  0  0  0  0  0  0  0  0  0  0  0
   -2.2162    4.2546    2.4596 C   0  0  2  0  0  0  0  0  0  0  0  0
   -1.9504    5.3595    1.6157 O   0  0  0  0  0  0  0  0  0  0  0  0
   -2.9629    4.6380    3.7362 C   0  0  2  0  0  0  0  0  0  0  0  0
   -3.8924    5.6884    3.5576 O   0  0  0  0  0  0  0  0  0  0  0  0
  2  1  1  0  0  0  0
  3  2  1  1  0  0  0
  3 30  1  0  0  0  0
  4  5  1  0  0  0  0
  4  3  1  0  0  0  0
  5 28  1  0  0  0  0
  5  6  1  1  0  0  0
  7  6  1  6  0  0  0
  8  7  1  0  0  0  0
  8  9  1  1  0  0  0
 10 11  1  6  0  0  0
 10  8  1  0  0  0  0
 12 10  1  0  0  0  0
 13 12  1  0  0  0  0
 13 15  1  0  0  0  0
 13 14  1  6  0  0  0
 15  7  1  0  0  0  0
 15 16  1  1  0  0  0
 17 16  1  6  0  0  0
 18 17  1  0  0  0  0
 19 20  1  6  0  0  0
 19 18  1  0  0  0  0
 20 21  1  0  0  0  0
 22 24  1  0  0  0  0
 22 19  1  0  0  0  0
 22 23  1  6  0  0  0
 24 25  1  1  0  0  0
 24 26  1  0  0  0  0
 26 17  1  0  0  0  0
 26 27  1  1  0  0  0
 28 29  1  6  0  0  0
 28 30  1  0  0  0  0
 30 31  1  6  0  0  0
M  END
>  <CHROM.1>
-175.90999629,-51.90719029,-60.70364676,-53.32379329,-169.17023737,-60.06758249
170.42240227,53.15685433,52.13250139,177.32497237,141.87019096,74.29871466
-58.11357068,172.53467214,178.73590807,86.28402896,-1.40697847,1.22222829
3.01490225,1.19476896,0.06704245,0.29767756

>  <Name>
lig.pdb

>  <RI>
0

>  <Rbt.Current_Directory>
/home/itssahil/PROJECTS/Mol_Feturizer/New_Systems/rnas/2n0j

>  <Rbt.Executable>
rbdock ($Id: //depot/dev/client3/rdock/2013.1/src/exe/rbdock.cxx#4 $)

>  <Rbt.Library>
libRbt.so (2013.1, Build901 2013/11/27)

>  <Rbt.Parameter_File>
/export/apps/rDock/src/rDock_2013.1_src/data/scripts/dock_solv.prm

>  <Rbt.Receptor>
prm/pocket_docking_5.prm

>  <SCORE>
-42.6529

>  <SCORE.INTER>
-42.5471

>  <SCORE.INTER.CONST>
1

>  <SCORE.INTER.POLAR>
-6.00238

>  <SCORE.INTER.ROT>
6

>  <SCORE.INTER.SOLV>
16.0266

>  <SCORE.INTER.VDW>
-21.299

>  <SCORE.INTER.norm>
-1.37249

>  <SCORE.INTRA>
-0.105846

>  <SCORE.INTRA.DIHEDRAL>
-19.1793

>  <SCORE.INTRA.DIHEDRAL.0>
28.0161

>  <SCORE.INTRA.POLAR>
0.481792

>  <SCORE.INTRA.POLAR.0>
-1.05798

>  <SCORE.INTRA.REPUL>
0.114558

>  <SCORE.INTRA.REPUL.0>
0

>  <SCORE.INTRA.SOLV>
0.92871

>  <SCORE.INTRA.SOLV.lig_0>
-42.5945

>  <SCORE.INTRA.VDW>
6.80854

>  <SCORE.INTRA.VDW.0>
-5.13869

>  <SCORE.INTRA.norm>
-0.00341439

>  <SCORE.RESTR>
0

>  <SCORE.RESTR.CAVITY>
0

>  <SCORE.RESTR.norm>
0

>  <SCORE.SYSTEM>
0

>  <SCORE.SYSTEM.CONST>
0

>  <SCORE.SYSTEM.DIHEDRAL>
0

>  <SCORE.SYSTEM.SOLV>
0

>  <SCORE.SYSTEM.norm>
0

>  <SCORE.heavy>
31

>  <SCORE.norm>
-1.3759

>  <RMSD>
6.018

$$$$
lig.pdb
 OpenBabel11021811453D
libRbt.so/2013.1/901 2013/11/27
 31 33  0  0  0  0  0  0  0  0999 V2000
    2.5036    6.8808    0.8029 O   0  0  0  0  0  0  0  0  0  0  0  0
    1.9592    5.5992    0.5554 C   0  0  0  0  0  0  0  0  0  0  0  0
    0.7534    5.3171    1.4619 C   0  0  1  0  0  0  0  0  0  0  0  0
    0.2557    4.0005    1.2833 O   0  0  0  0  0  0  0  0  0  0  0  0
   -0.4002    3.5715    2.4726 C   0  0  1  0  0  0  0  0  0  0  0  0
    0.0427    2.2660    2.8239 O   0  0  0  0  0  0  0  0  0  0  0  0
    0.0505    1.2871    1.7971 C   0  0  2  0  0  0  0  0  0  0  0  0
   -1.3699    1.2083    1.2152 C   0  0  1  0  0  0  0  0  0  0  0  0
   -1.6586    2.3971    0.4964 O   0  0  0  0  0  0  0  0  0  0  0  0
   -1.5890    0.0290    0.2553 C   0  0  2  0  0  0  0  0  0  0  0  0
   -2.9910   -0.0402   -0.1849 N   0  0  0  0  0  0  0  0  0  0  0  0
   -1.2098   -1.2748    0.9477 C   0  0  0  0  0  0  0  0  0  0  0  0
    0.2289   -1.1930    1.4432 C   0  0  2  0  0  0  0  0  0  0  0  0
    0.5837   -2.4780    2.0551 N   0  0  0  0  0  0  0  0  0  0  0  0
    0.3895   -0.0215    2.4359 C   0  0  1  0  0  0  0  0  0  0  0  0
    1.7655   -0.0513    2.8449 O   0  0  0  0  0  0  0  0  0  0  0  0
    2.0837    0.5459    4.0974 C   0  0  1  0  0  0  0  0  0  0  0  0
    0.9000    0.7995    4.8492 O   0  0  0  0  0  0  0  0  0  0  0  0
    0.2033   -0.3465    5.3336 C   0  0  2  0  0  0  0  0  0  0  0  0
   -1.0334    0.1171    6.1148 C   0  0  0  0  0  0  0  0  0  0  0  0
   -1.8382   -1.0089    6.5666 N   0  0  0  0  0  0  0  0  0  0  0  0
    1.1096   -1.1937    6.2460 C   0  0  1  0  0  0  0  0  0  0  0  0
    0.4152   -2.3546    6.6665 O   0  0  0  0  0  0  0  0  0  0  0  0
    2.3653   -1.5924    5.4608 C   0  0  2  0  0  0  0  0  0  0  0  0
    3.2600   -2.2989    6.2996 O   0  0  0  0  0  0  0  0  0  0  0  0
    3.0533   -0.3530    4.8730 C   0  0  1  0  0  0  0  0  0  0  0  0
    4.1792   -0.7576    4.0191 N   0  0  0  0  0  0  0  0  0  0  0  0
   -0.0080    4.5618    3.5788 C   0  0  2  0  0  0  0  0  0  0  0  0
   -1.1213    5.3666    3.9198 O   0  0  0  0  0  0  0  0  0  0  0  0
    1.1326    5.3518    2.9390 C   0  0  2  0  0  0  0  0  0  0  0  0
    1.2804    6.6586    3.4582 O   0  0  0  0  0  0  0  0  0  0  0  0
  2  1  1  0  0  0  0
  3  2  1  6  0  0  0
  3 30  1  0  0  0  0
  4  5  1  0  0  0  0
  4  3  1  0  0  0  0
  5 28  1  0  0  0  0
  5  6  1  1  0  0  0
  7  6  1  1  0  0  0
  8  7  1  0  0  0  0
  8  9  1  6  0  0  0
 10 11  1  1  0  0  0
 10  8  1  0  0  0  0
 12 10  1  0  0  0  0
 13 12  1  0  0  0  0
 13 15  1  0  0  0  0
 13 14  1  1  0  0  0
 15  7  1  0  0  0  0
 15 16  1  6  0  0  0
 17 16  1  6  0  0  0
 18 17  1  0  0  0  0
 19 20  1  1  0  0  0
 19 18  1  0  0  0  0
 20 21  1  0  0  0  0
 22 24  1  0  0  0  0
 22 19  1  0  0  0  0
 22 23  1  6  0  0  0
 24 25  1  1  0  0  0
 24 26  1  0  0  0  0
 26 17  1  0  0  0  0
 26 27  1  6  0  0  0
 28 29  1  6  0  0  0
 28 30  1  0  0  0  0
 30 31  1  1  0  0  0
M  END
>  <CHROM.1>
-175.58096513,-176.09704472,-48.57995710,-56.08870691,-165.15034674,-55.62501339
76.06546536,82.85238383,13.20807510,176.38482641,47.45182498,58.13463752
41.88489831,179.98406109,-167.66925278,-48.39609382,0.49162551,1.32301301
3.14584643,-1.67788682,0.87590620,2.76721112

>  <Name>
lig.pdb

>  <RI>
1.55206e+07

>  <Rbt.Current_Directory>
/home/itssahil/PROJECTS/Mol_Feturizer/New_Systems/rnas/2n0j

>  <Rbt.Executable>
rbdock ($Id: //depot/dev/client3/rdock/2013.1/src/exe/rbdock.cxx#4 $)

>  <Rbt.Library>
libRbt.so (2013.1, Build901 2013/11/27)

>  <Rbt.Parameter_File>
/export/apps/rDock/src/rDock_2013.1_src/data/scripts/dock_solv.prm

>  <Rbt.Receptor>
prm/blind_docking_80.prm

>  <SCORE>
-23.9524

>  <SCORE.INTER>
-26.1566

>  <SCORE.INTER.CONST>
1

>  <SCORE.INTER.POLAR>
-4.92042

>  <SCORE.INTER.ROT>
6

>  <SCORE.INTER.SOLV>
23.529

>  <SCORE.INTER.VDW>
-16.4793

>  <SCORE.INTER.norm>
-0.84376

>  <SCORE.INTRA>
-0.906095

>  <SCORE.INTRA.DIHEDRAL>
-13.1936

>  <SCORE.INTRA.DIHEDRAL.0>
28.0161

>  <SCORE.INTRA.POLAR>
-0.052667

>  <SCORE.INTRA.POLAR.0>
-1.05798

>  <SCORE.INTRA.REPUL>
0.0131818

>  <SCORE.INTRA.REPUL.0>
0

>  <SCORE.INTRA.SOLV>
1.40868

>  <SCORE.INTRA.SOLV.lig_0>
-42.5945

>  <SCORE.INTRA.VDW>
5.0995

>  <SCORE.INTRA.VDW.0>
-5.13869

>  <SCORE.INTRA.norm>
-0.0292289

>  <SCORE.RESTR>
3.11026

>  <SCORE.RESTR.CAVITY>
3.11026

>  <SCORE.RESTR.norm>
0.100331

>  <SCORE.SYSTEM>
0

>  <SCORE.SYSTEM.CONST>
0

>  <SCORE.SYSTEM.DIHEDRAL>
0

>  <SCORE.SYSTEM.SOLV>
0

>  <SCORE.SYSTEM.norm>
0

>  <SCORE.heavy>
31

>  <SCORE.norm>
-0.772658

>  <RMSD>
6.022

$$$$
lig.pdb
 OpenBabel11021811453D
libRbt.so/2013.1/901 2013/11/27
 31 33  0  0  0  0  0  0  0  0999 V2000
    0.3587    6.9819    1.5088 O   0  0  0  0  0  0  0  0  0  0  0  0
    0.6159    6.3936    2.7689 C   0  0  0  0  0  0  0  0  0  0  0  0
    1.2912    5.0234    2.6211 C   0  0  1  0  0  0  0  0  0  0  0  0
    0.5610    4.0014    3.2810 O   0  0  0  0  0  0  0  0  0  0  0  0
    0.8267    2.7469    2.6611 C   0  0  1  0  0  0  0  0  0  0  0  0
   -0.3952    2.0593    2.4198 O   0  0  0  0  0  0  0  0  0  0  0  0
   -0.3785    1.0349    1.4384 C   0  0  2  0  0  0  0  0  0  0  0  0
   -1.7750    0.9767    0.7994 C   0  0  1  0  0  0  0  0  0  0  0  0
   -1.9917    2.1404    0.0170 O   0  0  0  0  0  0  0  0  0  0  0  0
   -1.9948   -0.2371   -0.1162 C   0  0  2  0  0  0  0  0  0  0  0  0
   -3.3786   -0.2799   -0.6135 N   0  0  0  0  0  0  0  0  0  0  0  0
   -1.6908   -1.5199    0.6488 C   0  0  0  0  0  0  0  0  0  0  0  0
   -0.2722   -1.4632    1.2023 C   0  0  2  0  0  0  0  0  0  0  0  0
    0.0115   -2.7301    1.8851 N   0  0  0  0  0  0  0  0  0  0  0  0
   -0.1125   -0.2537    2.1485 C   0  0  1  0  0  0  0  0  0  0  0  0
    1.2432   -0.3102    2.6178 O   0  0  0  0  0  0  0  0  0  0  0  0
    1.5818    0.5171    3.7257 C   0  0  1  0  0  0  0  0  0  0  0  0
    0.8131    0.1627    4.8721 O   0  0  0  0  0  0  0  0  0  0  0  0
    1.1038   -1.1040    5.4590 C   0  0  2  0  0  0  0  0  0  0  0  0
    0.1874   -1.3118    6.6721 C   0  0  0  0  0  0  0  0  0  0  0  0
   -0.3829   -2.6512    6.6929 N   0  0  0  0  0  0  0  0  0  0  0  0
    2.5776   -1.1787    5.8994 C   0  0  1  0  0  0  0  0  0  0  0  0
    2.8561   -2.4644    6.4246 O   0  0  0  0  0  0  0  0  0  0  0  0
    3.4704   -0.9075    4.6821 C   0  0  2  0  0  0  0  0  0  0  0  0
    4.8307   -0.8825    5.0720 O   0  0  0  0  0  0  0  0  0  0  0  0
    3.0846    0.4178    4.0114 C   0  0  1  0  0  0  0  0  0  0  0  0
    3.8594    0.6030    2.7762 N   0  0  0  0  0  0  0  0  0  0  0  0
    1.5184    3.0493    1.3239 C   0  0  2  0  0  0  0  0  0  0  0  0
    2.8815    2.6739    1.3926 O   0  0  0  0  0  0  0  0  0  0  0  0
    1.3159    4.5558    1.1693 C   0  0  2  0  0  0  0  0  0  0  0  0
    2.3096    5.1857    0.3852 O   0  0  0  0  0  0  0  0  0  0  0  0
  2  1  1  0  0  0  0
  3  2  1  6  0  0  0
  3 30  1  0  0  0  0
  4  5  1  0  0  0  0
  4  3  1  0  0  0  0
  5 28  1  0  0  0  0
  5  6  1  6  0  0  0
  7  6  1  1  0  0  0
  8  7  1  0  0  0  0
  8  9  1  6  0  0  0
 10 11  1  1  0  0  0
 10  8  1  0  0  0  0
 12 10  1  0  0  0  0
 13 12  1  0  0  0  0
 13 15  1  0  0  0  0
 13 14  1  1  0  0  0
 15  7  1  0  0  0  0
 15 16  1  6  0  0  0
 17 16  1  6  0  0  0
 18 17  1  0  0  0  0
 19 20  1  1  0  0  0
 19 18  1  0  0  0  0
 20 21  1  0  0  0  0
 22 24  1  0  0  0  0
 22 19  1  0  0  0  0
 22 23  1  6  0  0  0
 24 25  1  1  0  0  0
 24 26  1  0  0  0  0
 26 17  1  0  0  0  0
 26 27  1  6  0  0  0
 28 29  1  1  0  0  0
 28 30  1  0  0  0  0
 30 31  1  6  0  0  0
M  END
>  <CHROM.1>
-59.77667836,-124.10734485,159.57076194,-149.50821770,-159.25497067,63.12369855
-119.35728021,72.36106082,61.46656470,135.17609028,106.98158866,-70.47613964
-68.36259646,64.81102847,165.86638305,55.46254474,0.81937624,1.00530190,2.76736806
-1.81565686,0.70777328,2.71603399

>  <Name>
lig.pdb

>  <RI>
1.55206e+07

>  <Rbt.Current_Directory>
/home/itssahil/PROJECTS/Mol_Feturizer/New_Systems/rnas/2n0j

>  <Rbt.Executable>
rbdock ($Id: //depot/dev/client3/rdock/2013.1/src/exe/rbdock.cxx#4 $)

>  <Rbt.Library>
libRbt.so (2013.1, Build901 2013/11/27)

>  <Rbt.Parameter_File>
/export/apps/rDock/src/rDock_2013.1_src/data/scripts/dock_solv.prm

>  <Rbt.Receptor>
prm/blind_docking_80.prm

>  <SCORE>
-25.8267

>  <SCORE.INTER>
-34.8156

>  <SCORE.INTER.CONST>
1

>  <SCORE.INTER.POLAR>
-4.47074

>  <SCORE.INTER.ROT>
6

>  <SCORE.INTER.SOLV>
26.0531

>  <SCORE.INTER.VDW>
-24.5923

>  <SCORE.INTER.norm>
-1.12308

>  <SCORE.INTRA>
8.22174

>  <SCORE.INTRA.DIHEDRAL>
-1.07708

>  <SCORE.INTRA.DIHEDRAL.0>
28.0161

>  <SCORE.INTRA.POLAR>
-0.0494163

>  <SCORE.INTRA.POLAR.0>
-1.05798

>  <SCORE.INTRA.REPUL>
0

>  <SCORE.INTRA.REPUL.0>
0

>  <SCORE.INTRA.SOLV>
2.00916

>  <SCORE.INTRA.SOLV.lig_0>
-42.5945

>  <SCORE.INTRA.VDW>
7.92372

>  <SCORE.INTRA.VDW.0>
-5.13869

>  <SCORE.INTRA.norm>
0.265218

>  <SCORE.RESTR>
0.767121

>  <SCORE.RESTR.CAVITY>
0.767121

>  <SCORE.RESTR.norm>
0.0247458

>  <SCORE.SYSTEM>
0

>  <SCORE.SYSTEM.CONST>
0

>  <SCORE.SYSTEM.DIHEDRAL>
0

>  <SCORE.SYSTEM.SOLV>
0

>  <SCORE.SYSTEM.norm>
0

>  <SCORE.heavy>
31

>  <SCORE.norm>
-0.83312

>  <RMSD>
6.026

$$$$
lig.pdb
 OpenBabel11021811453D
libRbt.so/2013.1/901 2013/11/27
 31 33  0  0  0  0  0  0  0  0999 V2000
    0.2225    7.3090    2.8478 O   0  0  0  0  0  0  0  0  0  0  0  0
    0.4218    6.3262    1.8506 C   0  0  0  0  0  0  0  0  0  0  0  0
    1.2051    5.1243    2.3960 C   0  0  1  0  0  0  0  0  0  0  0  0
    0.4241    4.3476    3.2903 O   0  0  0  0  0  0  0  0  0  0  0  0
    0.8991    3.0048    3.2980 C   0  0  1  0  0  0  0  0  0  0  0  0
   -0.1949    2.1050    3.1664 O   0  0  0  0  0  0  0  0  0  0  0  0
   -0.2381    1.3056    1.9952 C   0  0  2  0  0  0  0  0  0  0  0  0
   -1.6037    1.5294    1.3264 C   0  0  1  0  0  0  0  0  0  0  0  0
   -1.6668    2.8442    0.7965 O   0  0  0  0  0  0  0  0  0  0  0  0
   -1.9040    0.5577    0.1749 C   0  0  2  0  0  0  0  0  0  0  0  0
   -3.2616    0.7664   -0.3518 N   0  0  0  0  0  0  0  0  0  0  0  0
   -1.7653   -0.8788    0.6651 C   0  0  0  0  0  0  0  0  0  0  0  0
   -0.3742   -1.0891    1.2505 C   0  0  2  0  0  0  0  0  0  0  0  0
   -0.2504   -2.4913    1.6631 N   0  0  0  0  0  0  0  0  0  0  0  0
   -0.1354   -0.1214    2.4295 C   0  0  1  0  0  0  0  0  0  0  0  0
    1.1855   -0.4180    2.9078 O   0  0  0  0  0  0  0  0  0  0  0  0
    1.7116    0.4250    3.9271 C   0  0  1  0  0  0  0  0  0  0  0  0
    0.9631    0.2855    5.1317 O   0  0  0  0  0  0  0  0  0  0  0  0
    1.0849   -0.9638    5.8084 C   0  0  2  0  0  0  0  0  0  0  0  0
    0.2175   -0.9303    7.0737 C   0  0  0  0  0  0  0  0  0  0  0  0
    0.5832    0.1750    7.9480 N   0  0  0  0  0  0  0  0  0  0  0  0
    2.5515   -1.2406    6.1881 C   0  0  1  0  0  0  0  0  0  0  0  0
    2.6548   -2.5113    6.8056 O   0  0  0  0  0  0  0  0  0  0  0  0
    3.4052   -1.2083    4.9144 C   0  0  2  0  0  0  0  0  0  0  0  0
    4.7726   -1.3725    5.2406 O   0  0  0  0  0  0  0  0  0  0  0  0
    3.1940    0.1077    4.1536 C   0  0  1  0  0  0  0  0  0  0  0  0
    3.9170    0.0731    2.8743 N   0  0  0  0  0  0  0  0  0  0  0  0
    1.8339    2.8569    2.0887 C   0  0  2  0  0  0  0  0  0  0  0  0
    3.1745    2.7449    2.5289 O   0  0  0  0  0  0  0  0  0  0  0  0
    1.5659    4.1337    1.2936 C   0  0  2  0  0  0  0  0  0  0  0  0
    2.6567    4.5449    0.4935 O   0  0  0  0  0  0  0  0  0  0  0  0
  2  1  1  0  0  0  0
  3  2  1  6  0  0  0
  3 30  1  0  0  0  0
  4  5  1  0  0  0  0
  4  3  1  0  0  0  0
  5 28  1  0  0  0  0
  5  6  1  6  0  0  0
  7  6  1  1  0  0  0
  8  7  1  0  0  0  0
  8  9  1  6  0  0  0
 10 11  1  1  0  0  0
 10  8  1  0  0  0  0
 12 10  1  0  0  0  0
 13 12  1  0  0  0  0
 13 15  1  0  0  0  0
 13 14  1  1  0  0  0
 15  7  1  0  0  0  0
 15 16  1  6  0  0  0
 17 16  1  6  0  0  0
 18 17  1  0  0  0  0
 19 20  1  1  0  0  0
 19 18  1  0  0  0  0
 20 21  1  0  0  0  0
 22 24  1  0  0  0  0
 22 19  1  0  0  0  0
 22 23  1  6  0  0  0
 24 25  1  1  0  0  0
 24 26  1  0  0  0  0
 26 17  1  0  0  0  0
 26 27  1  6  0  0  0
 28 29  1  1  0  0  0
 28 30  1  0  0  0  0
 30 31  1  1  0  0  0
M  END
>  <CHROM.1>
176.05250451,71.26717238,115.61214259,-125.53387593,-173.82489398,-53.63084935
111.86263558,53.47728411,65.70683604,-57.03081413,86.75823634,-39.72771378
113.22087881,43.79786722,-170.01527243,60.59952681,0.89694102,1.21635403
3.11274689,-2.03653501,0.77536703,2.81140932

>  <Name>
lig.pdb

>  <RI>
1.55206e+07

>  <Rbt.Current_Directory>
/home/itssahil/PROJECTS/Mol_Feturizer/New_Systems/rnas/2n0j

>  <Rbt.Executable>
rbdock ($Id: //depot/dev/client3/rdock/2013.1/src/exe/rbdock.cxx#4 $)

>  <Rbt.Library>
libRbt.so (2013.1, Build901 2013/11/27)

>  <Rbt.Parameter_File>
/export/apps/rDock/src/rDock_2013.1_src/data/scripts/dock_solv.prm

>  <Rbt.Receptor>
prm/blind_docking_80.prm

>  <SCORE>
-32.5326

>  <SCORE.INTER>
-48.2352

>  <SCORE.INTER.CONST>
1

>  <SCORE.INTER.POLAR>
-6.32206

>  <SCORE.INTER.ROT>
6

>  <SCORE.INTER.SOLV>
26.0705

>  <SCORE.INTER.VDW>
-27.3734

>  <SCORE.INTER.norm>
-1.55597

>  <SCORE.INTRA>
13.3835

>  <SCORE.INTRA.DIHEDRAL>
2.44679

>  <SCORE.INTRA.DIHEDRAL.0>
28.0161

>  <SCORE.INTRA.POLAR>
0.690667

>  <SCORE.INTRA.POLAR.0>
-1.05798

>  <SCORE.INTRA.REPUL>
0

>  <SCORE.INTRA.REPUL.0>
0

>  <SCORE.INTRA.SOLV>
1.67292

>  <SCORE.INTRA.SOLV.lig_0>
-42.5945

>  <SCORE.INTRA.VDW>
8.9754

>  <SCORE.INTRA.VDW.0>
-5.13869

>  <SCORE.INTRA.norm>
0.431726

>  <SCORE.RESTR>
2.3191

>  <SCORE.RESTR.CAVITY>
2.3191

>  <SCORE.RESTR.norm>
0.0748095

>  <SCORE.SYSTEM>
0

>  <SCORE.SYSTEM.CONST>
0

>  <SCORE.SYSTEM.DIHEDRAL>
0

>  <SCORE.SYSTEM.SOLV>
0

>  <SCORE.SYSTEM.norm>
0

>  <SCORE.heavy>
31

>  <SCORE.norm>
-1.04944

>  <RMSD>
6.027

$$$$
lig.pdb
 OpenBabel11021811453D
libRbt.so/2013.1/901 2013/11/27
 31 33  0  0  0  0  0  0  0  0999 V2000
    4.0331    4.4977    0.4395 O   0  0  0  0  0  0  0  0  0  0  0  0
    3.4570    4.5332    1.7306 C   0  0  0  0  0  0  0  0  0  0  0  0
    1.9276    4.6381    1.6599 C   0  0  1  0  0  0  0  0  0  0  0  0
    1.3360    3.4291    1.2114 O   0  0  0  0  0  0  0  0  0  0  0  0
    0.0052    3.3336    1.7102 C   0  0  1  0  0  0  0  0  0  0  0  0
   -0.2090    2.0435    2.2701 O   0  0  0  0  0  0  0  0  0  0  0  0
   -0.3361    0.9582    1.3651 C   0  0  2  0  0  0  0  0  0  0  0  0
   -1.7800    0.9549    0.8387 C   0  0  1  0  0  0  0  0  0  0  0  0
   -1.9837    2.0770   -0.0056 O   0  0  0  0  0  0  0  0  0  0  0  0
   -2.1492   -0.2982    0.0303 C   0  0  2  0  0  0  0  0  0  0  0  0
   -3.5681   -0.2778   -0.3573 N   0  0  0  0  0  0  0  0  0  0  0  0
   -1.8676   -1.5460    0.8590 C   0  0  0  0  0  0  0  0  0  0  0  0
   -0.4087   -1.5514    1.2989 C   0  0  2  0  0  0  0  0  0  0  0  0
   -0.1528   -2.7873    2.0463 N   0  0  0  0  0  0  0  0  0  0  0  0
   -0.0971   -0.2964    2.1425 C   0  0  1  0  0  0  0  0  0  0  0  0
    1.2854   -0.4156    2.5113 O   0  0  0  0  0  0  0  0  0  0  0  0
    1.7635    0.4575    3.5290 C   0  0  1  0  0  0  0  0  0  0  0  0
    1.0190    0.2839    4.7317 O   0  0  0  0  0  0  0  0  0  0  0  0
    1.2030   -0.9548    5.4138 C   0  0  2  0  0  0  0  0  0  0  0  0
    0.3305   -0.9614    6.6761 C   0  0  0  0  0  0  0  0  0  0  0  0
    0.8134   -0.0125    7.6692 N   0  0  0  0  0  0  0  0  0  0  0  0
    2.6806   -1.1538    5.7995 C   0  0  1  0  0  0  0  0  0  0  0  0
    2.8474   -2.4150    6.4223 O   0  0  0  0  0  0  0  0  0  0  0  0
    3.5360   -1.0821    4.5284 C   0  0  2  0  0  0  0  0  0  0  0  0
    4.9088   -1.1741    4.8598 O   0  0  0  0  0  0  0  0  0  0  0  0
    3.2596    0.2182    3.7617 C   0  0  1  0  0  0  0  0  0  0  0  0
    3.9879    0.2162    2.4850 N   0  0  0  0  0  0  0  0  0  0  0  0
   -0.1361    4.3992    2.8069 C   0  0  2  0  0  0  0  0  0  0  0  0
   -0.9748    5.4458    2.3544 O   0  0  0  0  0  0  0  0  0  0  0  0
    1.3077    4.8421    3.0386 C   0  0  2  0  0  0  0  0  0  0  0  0
    1.4257    6.1641    3.5259 O   0  0  0  0  0  0  0  0  0  0  0  0
  2  1  1  0  0  0  0
  3  2  1  1  0  0  0
  3 30  1  0  0  0  0
  4  5  1  0  0  0  0
  4  3  1  0  0  0  0
  5 28  1  0  0  0  0
  5  6  1  1  0  0  0
  7  6  1  1  0  0  0
  8  7  1  0  0  0  0
  8  9  1  6  0  0  0
 10 11  1  1  0  0  0
 10  8  1  0  0  0  0
 12 10  1  0  0  0  0
 13 12  1  0  0  0  0
 13 15  1  0  0  0  0
 13 14  1  1  0  0  0
 15  7  1  0  0  0  0
 15 16  1  6  0  0  0
 17 16  1  6  0  0  0
 18 17  1  0  0  0  0
 19 20  1  1  0  0  0
 19 18  1  0  0  0  0
 20 21  1  0  0  0  0
 22 24  1  0  0  0  0
 22 19  1  0  0  0  0
 22 23  1  6  0  0  0
 24 25  1  1  0  0  0
 24 26  1  0  0  0  0
 26 17  1  0  0  0  0
 26 27  1  6  0  0  0
 28 29  1  6  0  0  0
 28 30  1  0  0  0  0
 30 31  1  6  0  0  0
M  END
>  <CHROM.1>
81.53587124,71.37016536,-73.10900543,-81.16872343,-152.86663936,-50.74473993
-101.88604808,72.34259066,58.32462010,-68.87415086,-138.69612394,-64.56527618
63.98897239,167.76806007,56.17528006,-37.66487171,0.90248260,1.09427047,2.82804244
-1.99325217,0.68112618,2.75488315

>  <Name>
lig.pdb

>  <RI>
9.20816e+06

>  <Rbt.Current_Directory>
/home/itssahil/PROJECTS/Mol_Feturizer/New_Systems/rnas/2n0j

>  <Rbt.Executable>
rbdock ($Id: //depot/dev/client3/rdock/2013.1/src/exe/rbdock.cxx#4 $)

>  <Rbt.Library>
libRbt.so (2013.1, Build901 2013/11/27)

>  <Rbt.Parameter_File>
/export/apps/rDock/src/rDock_2013.1_src/data/scripts/dock_solv.prm

>  <Rbt.Receptor>
prm/blind_docking_100.prm

>  <SCORE>
-39.7586

>  <SCORE.INTER>
-42.2351

>  <SCORE.INTER.CONST>
1

>  <SCORE.INTER.POLAR>
-5.85652

>  <SCORE.INTER.ROT>
6

>  <SCORE.INTER.SOLV>
26.1037

>  <SCORE.INTER.VDW>
-24.9362

>  <SCORE.INTER.norm>
-1.36242

>  <SCORE.INTRA>
1.64222

>  <SCORE.INTRA.DIHEDRAL>
-9.62954

>  <SCORE.INTRA.DIHEDRAL.0>
28.0161

>  <SCORE.INTRA.POLAR>
1.05798

>  <SCORE.INTRA.POLAR.0>
-1.05798

>  <SCORE.INTRA.REPUL>
0

>  <SCORE.INTRA.REPUL.0>
0

>  <SCORE.INTRA.SOLV>
-0.739145

>  <SCORE.INTRA.SOLV.lig_0>
-42.5945

>  <SCORE.INTRA.VDW>
3.22942

>  <SCORE.INTRA.VDW.0>
-5.13869

>  <SCORE.INTRA.norm>
0.052975

>  <SCORE.RESTR>
0.834247

>  <SCORE.RESTR.CAVITY>
0.834247

>  <SCORE.RESTR.norm>
0.0269112

>  <SCORE.SYSTEM>
0

>  <SCORE.SYSTEM.CONST>
0

>  <SCORE.SYSTEM.DIHEDRAL>
0

>  <SCORE.SYSTEM.SOLV>
0

>  <SCORE.SYSTEM.norm>
0

>  <SCORE.heavy>
31

>  <SCORE.norm>
-1.28254

>  <RMSD>
6.041

$$$$
lig.pdb
 OpenBabel11021811453D
libRbt.so/2013.1/901 2013/11/27
 31 33  0  0  0  0  0  0  0  0999 V2000
    0.9306    7.5433    2.3488 O   0  0  0  0  0  0  0  0  0  0  0  0
    0.4554    6.4099    3.0486 C   0  0  0  0  0  0  0  0  0  0  0  0
    1.1932    5.1348    2.6183 C   0  0  1  0  0  0  0  0  0  0  0  0
    0.7166    3.9909    3.3092 O   0  0  0  0  0  0  0  0  0  0  0  0
    0.9417    2.8268    2.5200 C   0  0  1  0  0  0  0  0  0  0  0  0
   -0.2412    2.0377    2.4754 O   0  0  0  0  0  0  0  0  0  0  0  0
   -0.3165    1.0407    1.4689 C   0  0  2  0  0  0  0  0  0  0  0  0
   -1.7412    1.0646    0.8927 C   0  0  1  0  0  0  0  0  0  0  0  0
   -1.9367    2.2580    0.1504 O   0  0  0  0  0  0  0  0  0  0  0  0
   -2.0586   -0.1124   -0.0422 C   0  0  2  0  0  0  0  0  0  0  0  0
   -3.4635   -0.0775   -0.4770 N   0  0  0  0  0  0  0  0  0  0  0  0
   -1.7823   -1.4281    0.6758 C   0  0  0  0  0  0  0  0  0  0  0  0
   -0.3395   -1.4523    1.1655 C   0  0  2  0  0  0  0  0  0  0  0  0
   -0.0863   -2.7490    1.8027 N   0  0  0  0  0  0  0  0  0  0  0  0
   -0.0809   -0.2776    2.1335 C   0  0  1  0  0  0  0  0  0  0  0  0
    1.2901   -0.4096    2.5392 O   0  0  0  0  0  0  0  0  0  0  0  0
    1.7636    0.4950    3.5312 C   0  0  1  0  0  0  0  0  0  0  0  0
    0.9071    0.4864    4.6701 O   0  0  0  0  0  0  0  0  0  0  0  0
    0.9113   -0.7054    5.4531 C   0  0  2  0  0  0  0  0  0  0  0  0
   -0.0608   -0.5318    6.6276 C   0  0  0  0  0  0  0  0  0  0  0  0
   -0.4703   -1.8144    7.1816 N   0  0  0  0  0  0  0  0  0  0  0  0
    2.3247   -1.0063    5.9855 C   0  0  1  0  0  0  0  0  0  0  0  0
    2.3146   -2.2237    6.7097 O   0  0  0  0  0  0  0  0  0  0  0  0
    3.2870   -1.1145    4.7961 C   0  0  2  0  0  0  0  0  0  0  0  0
    4.6115   -1.3040    5.2573 O   0  0  0  0  0  0  0  0  0  0  0  0
    3.2043    0.1401    3.9162 C   0  0  1  0  0  0  0  0  0  0  0  0
    4.0339   -0.0300    2.7148 N   0  0  0  0  0  0  0  0  0  0  0  0
    1.2904    3.3098    1.1046 C   0  0  2  0  0  0  0  0  0  0  0  0
    2.6610    3.0746    0.8410 O   0  0  0  0  0  0  0  0  0  0  0  0
    0.9330    4.7945    1.1543 C   0  0  2  0  0  0  0  0  0  0  0  0
    1.6708    5.5877    0.2457 O   0  0  0  0  0  0  0  0  0  0  0  0
  2  1  1  0  0  0  0
  3  2  1  1  0  0  0
  3 30  1  0  0  0  0
  4  5  1  0  0  0  0
  4  3  1  0  0  0  0
  5 28  1  0  0  0  0
  5  6  1  6  0  0  0
  7  6  1  1  0  0  0
  8  7  1  0  0  0  0
  8  9  1  6  0  0  0
 10 11  1  1  0  0  0
 10  8  1  0  0  0  0
 12 10  1  0  0  0  0
 13 12  1  0  0  0  0
 13 15  1  0  0  0  0
 13 14  1  1  0  0  0
 15  7  1  0  0  0  0
 15 16  1  6  0  0  0
 17 16  1  6  0  0  0
 18 17  1  0  0  0  0
 19 20  1  1  0  0  0
 19 18  1  0  0  0  0
 20 21  1  0  0  0  0
 22 24  1  0  0  0  0
 22 19  1  0  0  0  0
 22 23  1  6  0  0  0
 24 25  1  1  0  0  0
 24 26  1  0  0  0  0
 26 17  1  0  0  0  0
 26 27  1  6  0  0  0
 28 29  1  1  0  0  0
 28 30  1  0  0  0  0
 30 31  1  6  0  0  0
M  END
>  <CHROM.1>
-62.69287894,-179.61148610,163.90813149,-138.51837301,-160.62215867,-175.82726887
128.03411081,64.26106278,52.34550510,159.73745736,-48.86272382,175.21495488
119.21869747,159.05041627,76.77497831,60.06173364,0.75662006,1.12296820,2.80521185
-1.81424125,0.77979924,2.75604367

>  <Name>
lig.pdb

>  <RI>
1.79691e+07

>  <Rbt.Current_Directory>
/home/itssahil/PROJECTS/Mol_Feturizer/New_Systems/rnas/2n0j

>  <Rbt.Executable>
rbdock ($Id: //depot/dev/client3/rdock/2013.1/src/exe/rbdock.cxx#4 $)

>  <Rbt.Library>
libRbt.so (2013.1, Build901 2013/11/27)

>  <Rbt.Parameter_File>
/export/apps/rDock/src/rDock_2013.1_src/data/scripts/dock_solv.prm

>  <Rbt.Receptor>
prm/blind_docking_20.prm

>  <SCORE>
-33.8175

>  <SCORE.INTER>
-41.3445

>  <SCORE.INTER.CONST>
1

>  <SCORE.INTER.POLAR>
-5.9705

>  <SCORE.INTER.ROT>
6

>  <SCORE.INTER.SOLV>
25.7586

>  <SCORE.INTER.VDW>
-23.8475

>  <SCORE.INTER.norm>
-1.33369

>  <SCORE.INTRA>
6.71366

>  <SCORE.INTRA.DIHEDRAL>
-4.09602

>  <SCORE.INTRA.DIHEDRAL.0>
28.0161

>  <SCORE.INTRA.POLAR>
0.763367

>  <SCORE.INTRA.POLAR.0>
-1.05798

>  <SCORE.INTRA.REPUL>
0.083107

>  <SCORE.INTRA.REPUL.0>
0

>  <SCORE.INTRA.SOLV>
1.09762

>  <SCORE.INTRA.SOLV.lig_0>
-42.5945

>  <SCORE.INTRA.VDW>
5.20188

>  <SCORE.INTRA.VDW.0>
-5.13869

>  <SCORE.INTRA.norm>
0.21657

>  <SCORE.RESTR>
0.813327

>  <SCORE.RESTR.CAVITY>
0.813327

>  <SCORE.RESTR.norm>
0.0262364

>  <SCORE.SYSTEM>
0

>  <SCORE.SYSTEM.CONST>
0

>  <SCORE.SYSTEM.DIHEDRAL>
0

>  <SCORE.SYSTEM.SOLV>
0

>  <SCORE.SYSTEM.norm>
0

>  <SCORE.heavy>
31

>  <SCORE.norm>
-1.09089

>  <RMSD>
6.041

$$$$
lig.pdb
 OpenBabel11021811453D
libRbt.so/2013.1/901 2013/11/27
 31 33  0  0  0  0  0  0  0  0999 V2000
    4.2824    3.9215    0.6345 O   0  0  0  0  0  0  0  0  0  0  0  0
    3.6155    4.1317    1.8638 C   0  0  0  0  0  0  0  0  0  0  0  0
    2.1146    4.3732    1.6538 C   0  0  1  0  0  0  0  0  0  0  0  0
    1.4451    3.1963    1.2299 O   0  0  0  0  0  0  0  0  0  0  0  0
    0.0754    3.2596    1.6157 C   0  0  1  0  0  0  0  0  0  0  0  0
   -0.3094    2.0367    2.2323 O   0  0  0  0  0  0  0  0  0  0  0  0
   -0.4676    0.9078    1.3878 C   0  0  2  0  0  0  0  0  0  0  0  0
   -1.8960    0.9437    0.8217 C   0  0  1  0  0  0  0  0  0  0  0  0
   -2.0216    2.0229   -0.0909 O   0  0  0  0  0  0  0  0  0  0  0  0
   -2.3067   -0.3353    0.0763 C   0  0  2  0  0  0  0  0  0  0  0  0
   -3.7126   -0.2687   -0.3518 N   0  0  0  0  0  0  0  0  0  0  0  0
   -2.1092   -1.5445    0.9828 C   0  0  0  0  0  0  0  0  0  0  0  0
   -0.6641   -1.5949    1.4634 C   0  0  2  0  0  0  0  0  0  0  0  0
   -0.4896   -2.7959    2.2873 N   0  0  0  0  0  0  0  0  0  0  0  0
   -0.3116   -0.3092    2.2422 C   0  0  1  0  0  0  0  0  0  0  0  0
    1.0533   -0.4736    2.6563 O   0  0  0  0  0  0  0  0  0  0  0  0
    1.6067    0.5418    3.4865 C   0  0  1  0  0  0  0  0  0  0  0  0
    0.8573    0.6703    4.6918 O   0  0  0  0  0  0  0  0  0  0  0  0
    0.9436   -0.4199    5.6070 C   0  0  2  0  0  0  0  0  0  0  0  0
    0.0807   -0.1061    6.8364 C   0  0  0  0  0  0  0  0  0  0  0  0
   -1.2907    0.2114    6.4647 N   0  0  0  0  0  0  0  0  0  0  0  0
    2.4022   -0.6577    6.0400 C   0  0  1  0  0  0  0  0  0  0  0  0
    2.4693   -1.7802    6.9014 O   0  0  0  0  0  0  0  0  0  0  0  0
    3.2534   -0.9083    4.7890 C   0  0  2  0  0  0  0  0  0  0  0  0
    4.6161   -1.0438    5.1466 O   0  0  0  0  0  0  0  0  0  0  0  0
    3.0796    0.2329    3.7777 C   0  0  1  0  0  0  0  0  0  0  0  0
    3.7981   -0.0805    2.5343 N   0  0  0  0  0  0  0  0  0  0  0  0
   -0.0486    4.4069    2.6289 C   0  0  2  0  0  0  0  0  0  0  0  0
   -0.7408    5.4932    2.0421 O   0  0  0  0  0  0  0  0  0  0  0  0
    1.4082    4.7286    2.9582 C   0  0  2  0  0  0  0  0  0  0  0  0
    1.6160    6.0644    3.3724 O   0  0  0  0  0  0  0  0  0  0  0  0
  2  1  1  0  0  0  0
  3  2  1  1  0  0  0
  3 30  1  0  0  0  0
  4  5  1  0  0  0  0
  4  3  1  0  0  0  0
  5 28  1  0  0  0  0
  5  6  1  1  0  0  0
  7  6  1  1  0  0  0
  8  7  1  0  0  0  0
  8  9  1  6  0  0  0
 10 11  1  1  0  0  0
 10  8  1  0  0  0  0
 12 10  1  0  0  0  0
 13 12  1  0  0  0  0
 13 15  1  0  0  0  0
 13 14  1  1  0  0  0
 15  7  1  0  0  0  0
 15 16  1  6  0  0  0
 17 16  1  6  0  0  0
 18 17  1  0  0  0  0
 19 20  1  1  0  0  0
 19 18  1  0  0  0  0
 20 21  1  0  0  0  0
 22 24  1  0  0  0  0
 22 19  1  0  0  0  0
 22 23  1  1  0  0  0
 24 25  1  1  0  0  0
 24 26  1  0  0  0  0
 26 17  1  0  0  0  0
 26 27  1  6  0  0  0
 28 29  1  6  0  0  0
 28 30  1  0  0  0  0
 30 31  1  6  0  0  0
M  END
>  <CHROM.1>
-172.08959005,69.94301275,-73.04103196,-85.45851719,-61.41060308,-173.17128965
170.71123974,63.59763748,59.11521152,54.75422753,-52.22840535,53.03829608
87.79536557,-81.09508888,64.59627819,67.82554722,0.72790232,1.12806292,2.83933567
-1.95360206,0.62857049,2.65609373

>  <Name>
lig.pdb

>  <RI>
9.20816e+06

>  <Rbt.Current_Directory>
/home/itssahil/PROJECTS/Mol_Feturizer/New_Systems/rnas/2n0j

>  <Rbt.Executable>
rbdock ($Id: //depot/dev/client3/rdock/2013.1/src/exe/rbdock.cxx#4 $)

>  <Rbt.Library>
libRbt.so (2013.1, Build901 2013/11/27)

>  <Rbt.Parameter_File>
/export/apps/rDock/src/rDock_2013.1_src/data/scripts/dock_solv.prm

>  <Rbt.Receptor>
prm/blind_docking_100.prm

>  <SCORE>
-35.7024

>  <SCORE.INTER>
-33.0441

>  <SCORE.INTER.CONST>
1

>  <SCORE.INTER.POLAR>
-4.64027

>  <SCORE.INTER.ROT>
6

>  <SCORE.INTER.SOLV>
22.8626

>  <SCORE.INTER.VDW>
-21.7827

>  <SCORE.INTER.norm>
-1.06594

>  <SCORE.INTRA>
-3.86895

>  <SCORE.INTRA.DIHEDRAL>
-17.9717

>  <SCORE.INTRA.DIHEDRAL.0>
28.0161

>  <SCORE.INTRA.POLAR>
0.99578

>  <SCORE.INTRA.POLAR.0>
-1.05798

>  <SCORE.INTRA.REPUL>
0

>  <SCORE.INTRA.REPUL.0>
0

>  <SCORE.INTRA.SOLV>
-0.943294

>  <SCORE.INTRA.SOLV.lig_0>
-42.5945

>  <SCORE.INTRA.VDW>
2.2029

>  <SCORE.INTRA.VDW.0>
-5.13869

>  <SCORE.INTRA.norm>
-0.124805

>  <SCORE.RESTR>
1.21067

>  <SCORE.RESTR.CAVITY>
1.21067

>  <SCORE.RESTR.norm>
0.0390538

>  <SCORE.SYSTEM>
0

>  <SCORE.SYSTEM.CONST>
0

>  <SCORE.SYSTEM.DIHEDRAL>
0

>  <SCORE.SYSTEM.SOLV>
0

>  <SCORE.SYSTEM.norm>
0

>  <SCORE.heavy>
31

>  <SCORE.norm>
-1.15169

>  <RMSD>
6.042

$$$$
lig.pdb
 OpenBabel11021811453D
libRbt.so/2013.1/901 2013/11/27
 31 33  0  0  0  0  0  0  0  0999 V2000
    3.6932    2.8310    2.2335 O   0  0  0  0  0  0  0  0  0  0  0  0
    3.3629    4.1118    1.7328 C   0  0  0  0  0  0  0  0  0  0  0  0
    1.8581    4.2361    1.4585 C   0  0  1  0  0  0  0  0  0  0  0  0
    1.2845    2.9918    1.0900 O   0  0  0  0  0  0  0  0  0  0  0  0
   -0.0997    2.9848    1.4257 C   0  0  1  0  0  0  0  0  0  0  0  0
   -0.4250    1.7791    2.1072 O   0  0  0  0  0  0  0  0  0  0  0  0
   -0.5431    0.6035    1.3218 C   0  0  2  0  0  0  0  0  0  0  0  0
   -1.8367    0.7183    0.4998 C   0  0  1  0  0  0  0  0  0  0  0  0
   -1.6880    1.7267   -0.4873 O   0  0  0  0  0  0  0  0  0  0  0  0
   -2.2348   -0.5761   -0.2255 C   0  0  2  0  0  0  0  0  0  0  0  0
   -3.5278   -0.4217   -0.9100 N   0  0  0  0  0  0  0  0  0  0  0  0
   -2.3252   -1.7204    0.7773 C   0  0  0  0  0  0  0  0  0  0  0  0
   -1.0015   -1.8579    1.5195 C   0  0  2  0  0  0  0  0  0  0  0  0
   -1.0988   -2.9987    2.4365 N   0  0  0  0  0  0  0  0  0  0  0  0
   -0.6656   -0.5490    2.2663 C   0  0  1  0  0  0  0  0  0  0  0  0
    0.5799   -0.7981    2.9357 O   0  0  0  0  0  0  0  0  0  0  0  0
    1.1882    0.3009    3.6055 C   0  0  1  0  0  0  0  0  0  0  0  0
    0.5100    0.5843    4.8263 O   0  0  0  0  0  0  0  0  0  0  0  0
    0.6392   -0.3895    5.8600 C   0  0  2  0  0  0  0  0  0  0  0  0
   -0.1495    0.0824    7.0887 C   0  0  0  0  0  0  0  0  0  0  0  0
    0.6286   -0.0518    8.3120 N   0  0  0  0  0  0  0  0  0  0  0  0
    2.1181   -0.5958    6.2367 C   0  0  1  0  0  0  0  0  0  0  0  0
    2.2249   -1.6079    7.2220 O   0  0  0  0  0  0  0  0  0  0  0  0
    2.8945   -1.0073    4.9795 C   0  0  2  0  0  0  0  0  0  0  0  0
    4.2741   -1.1196    5.2744 O   0  0  0  0  0  0  0  0  0  0  0  0
    2.6727    0.0069    3.8493 C   0  0  1  0  0  0  0  0  0  0  0  0
    3.3165   -0.4641    2.6147 N   0  0  0  0  0  0  0  0  0  0  0  0
   -0.3372    4.1817    2.3581 C   0  0  2  0  0  0  0  0  0  0  0  0
   -1.0779    5.1792    1.6799 O   0  0  0  0  0  0  0  0  0  0  0  0
    1.0818    4.6226    2.7135 C   0  0  2  0  0  0  0  0  0  0  0  0
    1.1848    5.9928    3.0470 O   0  0  0  0  0  0  0  0  0  0  0  0
  2  1  1  0  0  0  0
  3  2  1  1  0  0  0
  3 30  1  0  0  0  0
  4  5  1  0  0  0  0
  4  3  1  0  0  0  0
  5 28  1  0  0  0  0
  5  6  1  1  0  0  0
  7  6  1  1  0  0  0
  8  7  1  0  0  0  0
  8  9  1  6  0  0  0
 10 11  1  1  0  0  0
 10  8  1  0  0  0  0
 12 10  1  0  0  0  0
 13 12  1  0  0  0  0
 13 15  1  0  0  0  0
 13 14  1  1  0  0  0
 15  7  1  0  0  0  0
 15 16  1  6  0  0  0
 17 16  1  1  0  0  0
 18 17  1  0  0  0  0
 19 20  1  1  0  0  0
 19 18  1  0  0  0  0
 20 21  1  0  0  0  0
 22 24  1  0  0  0  0
 22 19  1  0  0  0  0
 22 23  1  1  0  0  0
 24 25  1  1  0  0  0
 24 26  1  0  0  0  0
 26 17  1  0  0  0  0
 26 27  1  6  0  0  0
 28 29  1  6  0  0  0
 28 30  1  0  0  0  0
 30 31  1  6  0  0  0
M  END
>  <CHROM.1>
-54.38151187,-30.59398791,-76.15963679,-71.72277058,51.74336899,55.38651548
59.62936108,53.37844922,75.45776073,-133.10414462,-46.19015192,63.89734395
175.55525955,161.04749058,70.77059537,-178.81079785,0.54997552,0.92472402
2.91741646,-2.26672858,0.82901204,2.63374735

>  <Name>
lig.pdb

>  <RI>
1.55206e+07

>  <Rbt.Current_Directory>
/home/itssahil/PROJECTS/Mol_Feturizer/New_Systems/rnas/2n0j

>  <Rbt.Executable>
rbdock ($Id: //depot/dev/client3/rdock/2013.1/src/exe/rbdock.cxx#4 $)

>  <Rbt.Library>
libRbt.so (2013.1, Build901 2013/11/27)

>  <Rbt.Parameter_File>
/export/apps/rDock/src/rDock_2013.1_src/data/scripts/dock_solv.prm

>  <Rbt.Receptor>
prm/blind_docking_80.prm

>  <SCORE>
-34.8581

>  <SCORE.INTER>
-35.6171

>  <SCORE.INTER.CONST>
1

>  <SCORE.INTER.POLAR>
-4.23372

>  <SCORE.INTER.ROT>
6

>  <SCORE.INTER.SOLV>
23.2673

>  <SCORE.INTER.VDW>
-24.9881

>  <SCORE.INTER.norm>
-1.14894

>  <SCORE.INTRA>
0.119379

>  <SCORE.INTRA.DIHEDRAL>
-14.7138

>  <SCORE.INTRA.DIHEDRAL.0>
28.0161

>  <SCORE.INTRA.POLAR>
0.614135

>  <SCORE.INTRA.POLAR.0>
-1.05798

>  <SCORE.INTRA.REPUL>
0

>  <SCORE.INTRA.REPUL.0>
0

>  <SCORE.INTRA.SOLV>
1.30062

>  <SCORE.INTRA.SOLV.lig_0>
-42.5945

>  <SCORE.INTRA.VDW>
4.73791

>  <SCORE.INTRA.VDW.0>
-5.13869

>  <SCORE.INTRA.norm>
0.00385095

>  <SCORE.RESTR>
0.639655

>  <SCORE.RESTR.CAVITY>
0.639655

>  <SCORE.RESTR.norm>
0.020634

>  <SCORE.SYSTEM>
0

>  <SCORE.SYSTEM.CONST>
0

>  <SCORE.SYSTEM.DIHEDRAL>
0

>  <SCORE.SYSTEM.SOLV>
0

>  <SCORE.SYSTEM.norm>
0

>  <SCORE.heavy>
31

>  <SCORE.norm>
-1.12445

>  <RMSD>
6.044

$$$$
lig.pdb
 OpenBabel11021811453D
libRbt.so/2013.1/901 2013/11/27
 31 33  0  0  0  0  0  0  0  0999 V2000
    3.3832    4.0333    2.6340 O   0  0  0  0  0  0  0  0  0  0  0  0
    2.8577    4.9984    1.7437 C   0  0  0  0  0  0  0  0  0  0  0  0
    1.3811    4.7248    1.4274 C   0  0  1  0  0  0  0  0  0  0  0  0
    1.1581    3.3665    1.0834 O   0  0  0  0  0  0  0  0  0  0  0  0
   -0.1882    3.0116    1.3839 C   0  0  1  0  0  0  0  0  0  0  0  0
   -0.2154    1.7792    2.0941 O   0  0  0  0  0  0  0  0  0  0  0  0
   -0.3622    0.5940    1.3283 C   0  0  2  0  0  0  0  0  0  0  0  0
   -1.6288    0.7451    0.4710 C   0  0  1  0  0  0  0  0  0  0  0  0
   -1.4137    1.7267   -0.5308 O   0  0  0  0  0  0  0  0  0  0  0  0
   -2.0618   -0.5461   -0.2398 C   0  0  2  0  0  0  0  0  0  0  0  0
   -3.3296   -0.3527   -0.9605 N   0  0  0  0  0  0  0  0  0  0  0  0
   -2.2247   -1.6655    0.7817 C   0  0  0  0  0  0  0  0  0  0  0  0
   -0.9269   -1.8422    1.5605 C   0  0  2  0  0  0  0  0  0  0  0  0
   -1.0944   -2.9595    2.4961 N   0  0  0  0  0  0  0  0  0  0  0  0
   -0.5561   -0.5335    2.2910 C   0  0  1  0  0  0  0  0  0  0  0  0
    0.6608   -0.8199    2.9971 O   0  0  0  0  0  0  0  0  0  0  0  0
    1.2161    0.2276    3.7851 C   0  0  1  0  0  0  0  0  0  0  0  0
    0.5575    0.3122    5.0460 O   0  0  0  0  0  0  0  0  0  0  0  0
    0.7804   -0.7700    5.9475 C   0  0  2  0  0  0  0  0  0  0  0  0
   -0.0004   -0.5072    7.2421 C   0  0  0  0  0  0  0  0  0  0  0  0
   -0.8550   -1.6325    7.5932 N   0  0  0  0  0  0  0  0  0  0  0  0
    2.2801   -0.9197    6.2638 C   0  0  1  0  0  0  0  0  0  0  0  0
    2.4816   -2.0353    7.1130 O   0  0  0  0  0  0  0  0  0  0  0  0
    3.0438   -1.1201    4.9488 C   0  0  2  0  0  0  0  0  0  0  0  0
    4.4360   -1.1735    5.1978 O   0  0  0  0  0  0  0  0  0  0  0  0
    2.7232    0.0076    3.9586 C   0  0  1  0  0  0  0  0  0  0  0  0
    3.3591   -0.2633    2.6614 N   0  0  0  0  0  0  0  0  0  0  0  0
   -0.7549    4.1288    2.2720 C   0  0  2  0  0  0  0  0  0  0  0  0
   -1.7041    4.8858    1.5443 O   0  0  0  0  0  0  0  0  0  0  0  0
    0.4912    4.9282    2.6495 C   0  0  2  0  0  0  0  0  0  0  0  0
    0.2284    6.2862    2.9426 O   0  0  0  0  0  0  0  0  0  0  0  0
  2  1  1  0  0  0  0
  3  2  1  1  0  0  0
  3 30  1  0  0  0  0
  4  5  1  0  0  0  0
  4  3  1  0  0  0  0
  5 28  1  0  0  0  0
  5  6  1  1  0  0  0
  7  6  1  1  0  0  0
  8  7  1  0  0  0  0
  8  9  1  6  0  0  0
 10 11  1  1  0  0  0
 10  8  1  0  0  0  0
 12 10  1  0  0  0  0
 13 12  1  0  0  0  0
 13 15  1  0  0  0  0
 13 14  1  1  0  0  0
 15  7  1  0  0  0  0
 15 16  1  6  0  0  0
 17 16  1  6  0  0  0
 18 17  1  0  0  0  0
 19 20  1  1  0  0  0
 19 18  1  0  0  0  0
 20 21  1  0  0  0  0
 22 24  1  0  0  0  0
 22 19  1  0  0  0  0
 22 23  1  1  0  0  0
 24 25  1  1  0  0  0
 24 26  1  0  0  0  0
 26 17  1  0  0  0  0
 26 27  1  6  0  0  0
 28 29  1  6  0  0  0
 28 30  1  0  0  0  0
 30 31  1  6  0  0  0
M  END
>  <CHROM.1>
-174.40986133,-47.99753521,-92.56110666,-54.95922330,65.66589416,-62.85114976
177.41054111,60.29194492,81.05282318,126.87231471,84.22203736,60.18252573
-179.50325193,38.60727281,45.59906533,-60.86735931,0.45448749,0.91662498
2.90431330,-1.97330525,0.79642256,2.68222085

>  <Name>
lig.pdb

>  <RI>
0

>  <Rbt.Current_Directory>
/home/itssahil/PROJECTS/Mol_Feturizer/New_Systems/rnas/2n0j

>  <Rbt.Executable>
rbdock ($Id: //depot/dev/client3/rdock/2013.1/src/exe/rbdock.cxx#4 $)

>  <Rbt.Library>
libRbt.so (2013.1, Build901 2013/11/27)

>  <Rbt.Parameter_File>
/export/apps/rDock/src/rDock_2013.1_src/data/scripts/dock_solv.prm

>  <Rbt.Receptor>
prm/blind_docking_60.prm

>  <SCORE>
-34.2334

>  <SCORE.INTER>
-36.3977

>  <SCORE.INTER.CONST>
1

>  <SCORE.INTER.POLAR>
-4.58866

>  <SCORE.INTER.ROT>
6

>  <SCORE.INTER.SOLV>
24.828

>  <SCORE.INTER.VDW>
-24.8456

>  <SCORE.INTER.norm>
-1.17412

>  <SCORE.INTRA>
1.53894

>  <SCORE.INTRA.DIHEDRAL>
-12.2958

>  <SCORE.INTRA.DIHEDRAL.0>
28.0161

>  <SCORE.INTRA.POLAR>
1.05798

>  <SCORE.INTRA.POLAR.0>
-1.05798

>  <SCORE.INTRA.REPUL>
0

>  <SCORE.INTRA.REPUL.0>
0

>  <SCORE.INTRA.SOLV>
-0.129198

>  <SCORE.INTRA.SOLV.lig_0>
-42.5945

>  <SCORE.INTRA.VDW>
4.15429

>  <SCORE.INTRA.VDW.0>
-5.13869

>  <SCORE.INTRA.norm>
0.0496433

>  <SCORE.RESTR>
0.625354

>  <SCORE.RESTR.CAVITY>
0.625354

>  <SCORE.RESTR.norm>
0.0201727

>  <SCORE.SYSTEM>
0

>  <SCORE.SYSTEM.CONST>
0

>  <SCORE.SYSTEM.DIHEDRAL>
0

>  <SCORE.SYSTEM.SOLV>
0

>  <SCORE.SYSTEM.norm>
0

>  <SCORE.heavy>
31

>  <SCORE.norm>
-1.1043

>  <RMSD>
6.047

$$$$
lig.pdb
 OpenBabel11021811453D
libRbt.so/2013.1/901 2013/11/27
 31 33  0  0  0  0  0  0  0  0999 V2000
    4.0733    3.6030    0.7087 O   0  0  0  0  0  0  0  0  0  0  0  0
    3.4943    4.1334    1.8849 C   0  0  0  0  0  0  0  0  0  0  0  0
    1.9895    4.3776    1.7086 C   0  0  1  0  0  0  0  0  0  0  0  0
    1.3220    3.2258    1.2178 O   0  0  0  0  0  0  0  0  0  0  0  0
   -0.0432    3.2548    1.6231 C   0  0  1  0  0  0  0  0  0  0  0  0
   -0.4130    1.9922    2.1642 O   0  0  0  0  0  0  0  0  0  0  0  0
   -0.4755    0.8961    1.2655 C   0  0  2  0  0  0  0  0  0  0  0  0
   -1.8878    0.8679    0.6599 C   0  0  1  0  0  0  0  0  0  0  0  0
   -2.0587    1.9785   -0.2066 O   0  0  0  0  0  0  0  0  0  0  0  0
   -2.1951   -0.3983   -0.1540 C   0  0  2  0  0  0  0  0  0  0  0  0
   -3.5905   -0.4011   -0.6197 N   0  0  0  0  0  0  0  0  0  0  0  0
   -1.9439   -1.6336    0.7027 C   0  0  0  0  0  0  0  0  0  0  0  0
   -0.5117   -1.6147    1.2228 C   0  0  2  0  0  0  0  0  0  0  0  0
   -0.2818   -2.8394    1.9967 N   0  0  0  0  0  0  0  0  0  0  0  0
   -0.2638   -0.3471    2.0686 C   0  0  1  0  0  0  0  0  0  0  0  0
    1.0975   -0.4438    2.5147 O   0  0  0  0  0  0  0  0  0  0  0  0
    1.5086    0.4501    3.5436 C   0  0  1  0  0  0  0  0  0  0  0  0
    0.6638    0.3269    4.6845 O   0  0  0  0  0  0  0  0  0  0  0  0
    0.7641   -0.8940    5.4144 C   0  0  2  0  0  0  0  0  0  0  0  0
   -0.2095   -0.8461    6.5994 C   0  0  0  0  0  0  0  0  0  0  0  0
   -0.2744    0.4834    7.1894 N   0  0  0  0  0  0  0  0  0  0  0  0
    2.2001   -1.1096    5.9271 C   0  0  1  0  0  0  0  0  0  0  0  0
    2.2878   -2.3545    6.5971 O   0  0  0  0  0  0  0  0  0  0  0  0
    3.1589   -1.0925    4.7301 C   0  0  2  0  0  0  0  0  0  0  0  0
    4.4974   -1.2007    5.1770 O   0  0  0  0  0  0  0  0  0  0  0  0
    2.9749    0.1893    3.9065 C   0  0  1  0  0  0  0  0  0  0  0  0
    3.8059    0.1351    2.6954 N   0  0  0  0  0  0  0  0  0  0  0  0
   -0.1618    4.3337    2.7094 C   0  0  2  0  0  0  0  0  0  0  0  0
   -0.8677    5.4506    2.2020 O   0  0  0  0  0  0  0  0  0  0  0  0
    1.2970    4.6435    3.0415 C   0  0  2  0  0  0  0  0  0  0  0  0
    1.5017    5.9513    3.5384 O   0  0  0  0  0  0  0  0  0  0  0  0
  2  1  1  0  0  0  0
  3  2  1  1  0  0  0
  3 30  1  0  0  0  0
  4  5  1  0  0  0  0
  4  3  1  0  0  0  0
  5 28  1  0  0  0  0
  5  6  1  1  0  0  0
  7  6  1  1  0  0  0
  8  7  1  0  0  0  0
  8  9  1  6  0  0  0
 10 11  1  1  0  0  0
 10  8  1  0  0  0  0
 12 10  1  0  0  0  0
 13 12  1  0  0  0  0
 13 15  1  0  0  0  0
 13 14  1  1  0  0  0
 15  7  1  0  0  0  0
 15 16  1  6  0  0  0
 17 16  1  6  0  0  0
 18 17  1  0  0  0  0
 19 20  1  1  0  0  0
 19 18  1  0  0  0  0
 20 21  1  0  0  0  0
 22 24  1  0  0  0  0
 22 19  1  0  0  0  0
 22 23  1  6  0  0  0
 24 25  1  1  0  0  0
 24 26  1  0  0  0  0
 26 17  1  0  0  0  0
 26 27  1  6  0  0  0
 28 29  1  6  0  0  0
 28 30  1  0  0  0  0
 30 31  1  6  0  0  0
M  END
>  <CHROM.1>
-65.76546355,51.70417607,-68.37619976,-87.73554070,-132.20680824,-172.28039505
19.39665695,72.06578819,55.75516167,-37.50843698,169.90868106,-176.82765426
-76.87654045,-75.09817582,-56.84314996,64.44471795,0.70810302,1.01706953
2.80453714,-2.02698379,0.72633405,2.71338575

>  <Name>
lig.pdb

>  <RI>
0

>  <Rbt.Current_Directory>
/home/itssahil/PROJECTS/Mol_Feturizer/New_Systems/rnas/2n0j

>  <Rbt.Executable>
rbdock ($Id: //depot/dev/client3/rdock/2013.1/src/exe/rbdock.cxx#4 $)

>  <Rbt.Library>
libRbt.so (2013.1, Build901 2013/11/27)

>  <Rbt.Parameter_File>
/export/apps/rDock/src/rDock_2013.1_src/data/scripts/dock_solv.prm

>  <Rbt.Receptor>
prm/blind_docking_40.prm

>  <SCORE>
-27.5659

>  <SCORE.INTER>
-28.4986

>  <SCORE.INTER.CONST>
1

>  <SCORE.INTER.POLAR>
-3.89201

>  <SCORE.INTER.ROT>
6

>  <SCORE.INTER.SOLV>
24.092

>  <SCORE.INTER.VDW>
-21.6564

>  <SCORE.INTER.norm>
-0.919309

>  <SCORE.INTRA>
0.441323

>  <SCORE.INTRA.DIHEDRAL>
-9.76986

>  <SCORE.INTRA.DIHEDRAL.0>
28.0161

>  <SCORE.INTRA.POLAR>
0.997743

>  <SCORE.INTRA.POLAR.0>
-1.05798

>  <SCORE.INTRA.REPUL>
0.103622

>  <SCORE.INTRA.REPUL.0>
0

>  <SCORE.INTRA.SOLV>
-0.330024

>  <SCORE.INTRA.SOLV.lig_0>
-42.5945

>  <SCORE.INTRA.VDW>
1.58083

>  <SCORE.INTRA.VDW.0>
-5.13869

>  <SCORE.INTRA.norm>
0.0142362

>  <SCORE.RESTR>
0.491406

>  <SCORE.RESTR.CAVITY>
0.491406

>  <SCORE.RESTR.norm>
0.0158518

>  <SCORE.SYSTEM>
0

>  <SCORE.SYSTEM.CONST>
0

>  <SCORE.SYSTEM.DIHEDRAL>
0

>  <SCORE.SYSTEM.SOLV>
0

>  <SCORE.SYSTEM.norm>
0

>  <SCORE.heavy>
31

>  <SCORE.norm>
-0.889221

>  <RMSD>
6.049

$$$$
lig.pdb
 OpenBabel11021811453D
libRbt.so/2013.1/901 2013/11/27
 31 33  0  0  0  0  0  0  0  0999 V2000
    2.0774    6.6568    0.3392 O   0  0  0  0  0  0  0  0  0  0  0  0
    1.9557    6.1479    1.6531 C   0  0  0  0  0  0  0  0  0  0  0  0
    0.8181    5.1228    1.7546 C   0  0  1  0  0  0  0  0  0  0  0  0
    0.9812    4.0603    0.8286 O   0  0  0  0  0  0  0  0  0  0  0  0
    0.3266    2.8939    1.3183 C   0  0  1  0  0  0  0  0  0  0  0  0
    1.1940    1.7717    1.2084 O   0  0  0  0  0  0  0  0  0  0  0  0
    0.6033    0.5285    0.8639 C   0  0  2  0  0  0  0  0  0  0  0  0
   -0.6238    0.8211   -0.0139 C   0  0  1  0  0  0  0  0  0  0  0  0
   -0.2023    1.3146   -1.2757 O   0  0  0  0  0  0  0  0  0  0  0  0
   -1.5128   -0.4040   -0.2761 C   0  0  2  0  0  0  0  0  0  0  0  0
   -2.7146   -0.0311   -1.0383 N   0  0  0  0  0  0  0  0  0  0  0  0
   -1.9273   -1.0316    1.0495 C   0  0  0  0  0  0  0  0  0  0  0  0
   -0.6864   -1.3816    1.8617 C   0  0  2  0  0  0  0  0  0  0  0  0
   -1.1128   -2.0323    3.1053 N   0  0  0  0  0  0  0  0  0  0  0  0
    0.1514   -0.1141    2.1360 C   0  0  1  0  0  0  0  0  0  0  0  0
    1.2741   -0.5573    2.9137 O   0  0  0  0  0  0  0  0  0  0  0  0
    1.7250    0.3050    3.9528 C   0  0  1  0  0  0  0  0  0  0  0  0
    0.8939    0.1833    5.1039 O   0  0  0  0  0  0  0  0  0  0  0  0
    0.9708   -1.0538    5.8091 C   0  0  2  0  0  0  0  0  0  0  0  0
    0.0163   -1.0018    7.0095 C   0  0  0  0  0  0  0  0  0  0  0  0
   -1.3430   -1.3623    6.6325 N   0  0  0  0  0  0  0  0  0  0  0  0
    2.4076   -1.3188    6.2958 C   0  0  1  0  0  0  0  0  0  0  0  0
    2.4703   -2.5784    6.9408 O   0  0  0  0  0  0  0  0  0  0  0  0
    3.3488   -1.3051    5.0849 C   0  0  2  0  0  0  0  0  0  0  0  0
    4.6902   -1.4589    5.5093 O   0  0  0  0  0  0  0  0  0  0  0  0
    3.1886   -0.0031    4.2885 C   0  0  1  0  0  0  0  0  0  0  0  0
    4.0000   -0.0569    3.0641 N   0  0  0  0  0  0  0  0  0  0  0  0
    0.0059    3.1521    2.7977 C   0  0  2  0  0  0  0  0  0  0  0  0
   -1.3890    3.3266    2.9633 O   0  0  0  0  0  0  0  0  0  0  0  0
    0.8112    4.4136    3.1051 C   0  0  2  0  0  0  0  0  0  0  0  0
    0.2703    5.1920    4.1541 O   0  0  0  0  0  0  0  0  0  0  0  0
  2  1  1  0  0  0  0
  3  2  1  1  0  0  0
  3 30  1  0  0  0  0
  4  5  1  0  0  0  0
  4  3  1  0  0  0  0
  5 28  1  0  0  0  0
  5  6  1  1  0  0  0
  7  6  1  1  0  0  0
  8  7  1  0  0  0  0
  8  9  1  6  0  0  0
 10 11  1  1  0  0  0
 10  8  1  0  0  0  0
 12 10  1  0  0  0  0
 13 12  1  0  0  0  0
 13 15  1  0  0  0  0
 13 14  1  1  0  0  0
 15  7  1  0  0  0  0
 15 16  1  1  0  0  0
 17 16  1  6  0  0  0
 18 17  1  0  0  0  0
 19 20  1  1  0  0  0
 19 18  1  0  0  0  0
 20 21  1  0  0  0  0
 22 24  1  0  0  0  0
 22 19  1  0  0  0  0
 22 23  1  6  0  0  0
 24 25  1  1  0  0  0
 24 26  1  0  0  0  0
 26 17  1  0  0  0  0
 26 27  1  6  0  0  0
 28 29  1  6  0  0  0
 28 30  1  0  0  0  0
 30 31  1  1  0  0  0
M  END
>  <CHROM.1>
-171.58170281,56.03051444,-143.23376901,30.33441399,-175.55312671,-99.48012778
-76.86824778,97.05237283,79.39608013,84.56258454,58.81419172,177.66097223
127.89728967,159.23304610,-51.62663644,62.68919844,0.72750601,0.98041824
2.87748328,-1.87272156,0.86302833,2.64674585

>  <Name>
lig.pdb

>  <RI>
0

>  <Rbt.Current_Directory>
/home/itssahil/PROJECTS/Mol_Feturizer/New_Systems/rnas/2n0j

>  <Rbt.Executable>
rbdock ($Id: //depot/dev/client3/rdock/2013.1/src/exe/rbdock.cxx#4 $)

>  <Rbt.Library>
libRbt.so (2013.1, Build901 2013/11/27)

>  <Rbt.Parameter_File>
/export/apps/rDock/src/rDock_2013.1_src/data/scripts/dock_solv.prm

>  <Rbt.Receptor>
prm/blind_docking_40.prm

>  <SCORE>
-19.6776

>  <SCORE.INTER>
-29.7328

>  <SCORE.INTER.CONST>
1

>  <SCORE.INTER.POLAR>
-4.28469

>  <SCORE.INTER.ROT>
6

>  <SCORE.INTER.SOLV>
25.4155

>  <SCORE.INTER.VDW>
-21.6114

>  <SCORE.INTER.norm>
-0.959121

>  <SCORE.INTRA>
9.08582

>  <SCORE.INTRA.DIHEDRAL>
1.18379

>  <SCORE.INTRA.DIHEDRAL.0>
28.0161

>  <SCORE.INTRA.POLAR>
1.0578

>  <SCORE.INTRA.POLAR.0>
-1.05798

>  <SCORE.INTRA.REPUL>
0.0187619

>  <SCORE.INTRA.REPUL.0>
0

>  <SCORE.INTRA.SOLV>
-0.0420283

>  <SCORE.INTRA.SOLV.lig_0>
-42.5945

>  <SCORE.INTRA.VDW>
4.82463

>  <SCORE.INTRA.VDW.0>
-5.13869

>  <SCORE.INTRA.norm>
0.293091

>  <SCORE.RESTR>
0.969308

>  <SCORE.RESTR.CAVITY>
0.969308

>  <SCORE.RESTR.norm>
0.031268

>  <SCORE.SYSTEM>
0

>  <SCORE.SYSTEM.CONST>
0

>  <SCORE.SYSTEM.DIHEDRAL>
0

>  <SCORE.SYSTEM.SOLV>
0

>  <SCORE.SYSTEM.norm>
0

>  <SCORE.heavy>
31

>  <SCORE.norm>
-0.634762

>  <RMSD>
6.050

$$$$
lig.pdb
 OpenBabel11021811453D
libRbt.so/2013.1/901 2013/11/27
 31 33  0  0  0  0  0  0  0  0999 V2000
   -0.9525    6.4215    3.3543 O   0  0  0  0  0  0  0  0  0  0  0  0
    0.1883    6.5475    2.5280 C   0  0  0  0  0  0  0  0  0  0  0  0
    1.0808    5.3017    2.6098 C   0  0  1  0  0  0  0  0  0  0  0  0
    0.5222    4.3071    3.4535 O   0  0  0  0  0  0  0  0  0  0  0  0
    0.9960    3.0232    3.0585 C   0  0  1  0  0  0  0  0  0  0  0  0
   -0.0940    2.1138    2.9663 O   0  0  0  0  0  0  0  0  0  0  0  0
   -0.0891    1.2060    1.8760 C   0  0  2  0  0  0  0  0  0  0  0  0
   -1.4709    1.2719    1.2063 C   0  0  1  0  0  0  0  0  0  0  0  0
   -1.6278    2.5233    0.5561 O   0  0  0  0  0  0  0  0  0  0  0  0
   -1.7103    0.1774    0.1552 C   0  0  2  0  0  0  0  0  0  0  0  0
   -3.0823    0.2423   -0.3717 N   0  0  0  0  0  0  0  0  0  0  0  0
   -1.4697   -1.1934    0.7764 C   0  0  0  0  0  0  0  0  0  0  0  0
   -0.0639   -1.2521    1.3614 C   0  0  2  0  0  0  0  0  0  0  0  0
    0.1589   -2.5972    1.9023 N   0  0  0  0  0  0  0  0  0  0  0  0
    0.1146   -0.1631    2.4412 C   0  0  1  0  0  0  0  0  0  0  0  0
    1.4558   -0.3224    2.9285 O   0  0  0  0  0  0  0  0  0  0  0  0
    1.8086    0.3966    4.1054 C   0  0  1  0  0  0  0  0  0  0  0  0
    0.6447    0.7468    4.8492 O   0  0  0  0  0  0  0  0  0  0  0  0
   -0.0584   -0.3308    5.4640 C   0  0  2  0  0  0  0  0  0  0  0  0
   -1.2717    0.2322    6.2161 C   0  0  0  0  0  0  0  0  0  0  0  0
   -1.8961    1.3271    5.4874 N   0  0  0  0  0  0  0  0  0  0  0  0
    0.8543   -1.0934    6.4423 C   0  0  1  0  0  0  0  0  0  0  0  0
    0.1520   -2.1924    6.9951 O   0  0  0  0  0  0  0  0  0  0  0  0
    2.0874   -1.5926    5.6791 C   0  0  2  0  0  0  0  0  0  0  0  0
    2.9890   -2.2226    6.5697 O   0  0  0  0  0  0  0  0  0  0  0  0
    2.7810   -0.4327    4.9519 C   0  0  1  0  0  0  0  0  0  0  0  0
    3.8828   -0.9427    4.1235 N   0  0  0  0  0  0  0  0  0  0  0  0
    1.6412    3.1935    1.6754 C   0  0  2  0  0  0  0  0  0  0  0  0
    3.0466    3.0638    1.7818 O   0  0  0  0  0  0  0  0  0  0  0  0
    1.1955    4.5954    1.2626 C   0  0  2  0  0  0  0  0  0  0  0  0
    2.0795    5.2306    0.3604 O   0  0  0  0  0  0  0  0  0  0  0  0
  2  1  1  0  0  0  0
  3  2  1  6  0  0  0
  3 30  1  0  0  0  0
  4  5  1  0  0  0  0
  4  3  1  0  0  0  0
  5 28  1  0  0  0  0
  5  6  1  6  0  0  0
  7  6  1  1  0  0  0
  8  7  1  0  0  0  0
  8  9  1  6  0  0  0
 10 11  1  1  0  0  0
 10  8  1  0  0  0  0
 12 10  1  0  0  0  0
 13 12  1  0  0  0  0
 13 15  1  0  0  0  0
 13 14  1  1  0  0  0
 15  7  1  0  0  0  0
 15 16  1  6  0  0  0
 17 16  1  6  0  0  0
 18 17  1  0  0  0  0
 19 20  1  1  0  0  0
 19 18  1  0  0  0  0
 20 21  1  0  0  0  0
 22 24  1  0  0  0  0
 22 19  1  0  0  0  0
 22 23  1  6  0  0  0
 24 25  1  1  0  0  0
 24 26  1  0  0  0  0
 26 17  1  0  0  0  0
 26 27  1  6  0  0  0
 28 29  1  1  0  0  0
 28 30  1  0  0  0  0
 30 31  1  6  0  0  0
M  END
>  <CHROM.1>
84.61007191,2.19136891,139.46617581,-130.53773983,-55.55628174,-62.33644196
-123.19186620,70.38176268,21.59680309,38.03762007,111.02720614,62.99282355
53.21259962,63.35156545,-52.42490994,-55.95323090,0.44489606,1.21988923,3.13069018
-1.79780952,0.91831657,2.78811865

>  <Name>
lig.pdb

>  <RI>
1.55206e+07

>  <Rbt.Current_Directory>
/home/itssahil/PROJECTS/Mol_Feturizer/New_Systems/rnas/2n0j

>  <Rbt.Executable>
rbdock ($Id: //depot/dev/client3/rdock/2013.1/src/exe/rbdock.cxx#4 $)

>  <Rbt.Library>
libRbt.so (2013.1, Build901 2013/11/27)

>  <Rbt.Parameter_File>
/export/apps/rDock/src/rDock_2013.1_src/data/scripts/dock_solv.prm

>  <Rbt.Receptor>
prm/blind_docking_80.prm

>  <SCORE>
-17.6153

>  <SCORE.INTER>
-32.2401

>  <SCORE.INTER.CONST>
1

>  <SCORE.INTER.POLAR>
-4.04415

>  <SCORE.INTER.ROT>
6

>  <SCORE.INTER.SOLV>
22.4682

>  <SCORE.INTER.VDW>
-23.1023

>  <SCORE.INTER.norm>
-1.04

>  <SCORE.INTRA>
10.3374

>  <SCORE.INTRA.DIHEDRAL>
7.1213

>  <SCORE.INTRA.DIHEDRAL.0>
28.0161

>  <SCORE.INTRA.POLAR>
-0.0862534

>  <SCORE.INTRA.POLAR.0>
-1.05798

>  <SCORE.INTRA.REPUL>
0

>  <SCORE.INTRA.REPUL.0>
0

>  <SCORE.INTRA.SOLV>
0.696562

>  <SCORE.INTRA.SOLV.lig_0>
-42.5945

>  <SCORE.INTRA.VDW>
6.7217

>  <SCORE.INTRA.VDW.0>
-5.13869

>  <SCORE.INTRA.norm>
0.333463

>  <SCORE.RESTR>
4.28741

>  <SCORE.RESTR.CAVITY>
4.28741

>  <SCORE.RESTR.norm>
0.138304

>  <SCORE.SYSTEM>
0

>  <SCORE.SYSTEM.CONST>
0

>  <SCORE.SYSTEM.DIHEDRAL>
0

>  <SCORE.SYSTEM.SOLV>
0

>  <SCORE.SYSTEM.norm>
0

>  <SCORE.heavy>
31

>  <SCORE.norm>
-0.568236

>  <RMSD>
6.050

$$$$
lig.pdb
 OpenBabel11021811453D
libRbt.so/2013.1/901 2013/11/27
 31 33  0  0  0  0  0  0  0  0999 V2000
    4.0850    3.4347    0.6043 O   0  0  0  0  0  0  0  0  0  0  0  0
    3.5657    4.0937    1.7428 C   0  0  0  0  0  0  0  0  0  0  0  0
    2.0641    4.3732    1.5931 C   0  0  1  0  0  0  0  0  0  0  0  0
    1.3555    3.2262    1.1513 O   0  0  0  0  0  0  0  0  0  0  0  0
    0.0012    3.3035    1.5859 C   0  0  1  0  0  0  0  0  0  0  0  0
   -0.3890    2.0673    2.1719 O   0  0  0  0  0  0  0  0  0  0  0  0
   -0.4887    0.9452    1.3094 C   0  0  2  0  0  0  0  0  0  0  0  0
   -1.9456    0.8530    0.8286 C   0  0  1  0  0  0  0  0  0  0  0  0
   -2.2292    1.9328   -0.0473 O   0  0  0  0  0  0  0  0  0  0  0  0
   -2.2758   -0.4449    0.0760 C   0  0  2  0  0  0  0  0  0  0  0  0
   -3.7049   -0.5071   -0.2677 N   0  0  0  0  0  0  0  0  0  0  0  0
   -1.9087   -1.6468    0.9383 C   0  0  0  0  0  0  0  0  0  0  0  0
   -0.4390   -1.5657    1.3325 C   0  0  2  0  0  0  0  0  0  0  0  0
   -0.1005   -2.7600    2.1140 N   0  0  0  0  0  0  0  0  0  0  0  0
   -0.1652   -0.2674    2.1220 C   0  0  1  0  0  0  0  0  0  0  0  0
    1.2317   -0.3062    2.4516 O   0  0  0  0  0  0  0  0  0  0  0  0
    1.6942    0.6200    3.4287 C   0  0  1  0  0  0  0  0  0  0  0  0
    0.8755    0.5728    4.5941 O   0  0  0  0  0  0  0  0  0  0  0  0
    0.9594   -0.6169    5.3758 C   0  0  2  0  0  0  0  0  0  0  0  0
    0.0180   -0.4874    6.5806 C   0  0  0  0  0  0  0  0  0  0  0  0
   -0.5175   -1.7789    6.9866 N   0  0  0  0  0  0  0  0  0  0  0  0
    2.4013   -0.8520    5.8629 C   0  0  1  0  0  0  0  0  0  0  0  0
    2.4704   -2.0679    6.5863 O   0  0  0  0  0  0  0  0  0  0  0  0
    3.3295   -0.9166    4.6436 C   0  0  2  0  0  0  0  0  0  0  0  0
    4.6752   -1.0445    5.0625 O   0  0  0  0  0  0  0  0  0  0  0  0
    3.1612    0.3322    3.7676 C   0  0  1  0  0  0  0  0  0  0  0  0
    3.9593    0.1995    2.5404 N   0  0  0  0  0  0  0  0  0  0  0  0
   -0.0638    4.4159    2.6427 C   0  0  2  0  0  0  0  0  0  0  0  0
   -0.7517    5.5364    2.1186 O   0  0  0  0  0  0  0  0  0  0  0  0
    1.4099    4.6957    2.9328 C   0  0  2  0  0  0  0  0  0  0  0  0
    1.6603    6.0113    3.3865 O   0  0  0  0  0  0  0  0  0  0  0  0
  2  1  1  0  0  0  0
  3  2  1  1  0  0  0
  3 30  1  0  0  0  0
  4  5  1  0  0  0  0
  4  3  1  0  0  0  0
  5 28  1  0  0  0  0
  5  6  1  1  0  0  0
  7  6  1  1  0  0  0
  8  7  1  0  0  0  0
  8  9  1  6  0  0  0
 10 11  1  1  0  0  0
 10  8  1  0  0  0  0
 12 10  1  0  0  0  0
 13 12  1  0  0  0  0
 13 15  1  0  0  0  0
 13 14  1  1  0  0  0
 15  7  1  0  0  0  0
 15 16  1  6  0  0  0
 17 16  1  6  0  0  0
 18 17  1  0  0  0  0
 19 20  1  1  0  0  0
 19 18  1  0  0  0  0
 20 21  1  0  0  0  0
 22 24  1  0  0  0  0
 22 19  1  0  0  0  0
 22 23  1  6  0  0  0
 24 25  1  1  0  0  0
 24 26  1  0  0  0  0
 26 17  1  0  0  0  0
 26 27  1  6  0  0  0
 28 29  1  6  0  0  0
 28 30  1  0  0  0  0
 30 31  1  6  0  0  0
M  END
>  <CHROM.1>
-59.84349696,47.84421882,-67.79568586,-93.00674714,76.46669008,79.63532859
-101.05856946,72.69520001,50.33719289,148.75689513,-124.96420676,-59.26654304
83.20929208,166.55298608,73.40601190,74.13017759,0.78082062,1.00092621,2.78748515
-1.87060596,0.62554113,2.66599819

>  <Name>
lig.pdb

>  <RI>
9.20816e+06

>  <Rbt.Current_Directory>
/home/itssahil/PROJECTS/Mol_Feturizer/New_Systems/rnas/2n0j

>  <Rbt.Executable>
rbdock ($Id: //depot/dev/client3/rdock/2013.1/src/exe/rbdock.cxx#4 $)

>  <Rbt.Library>
libRbt.so (2013.1, Build901 2013/11/27)

>  <Rbt.Parameter_File>
/export/apps/rDock/src/rDock_2013.1_src/data/scripts/dock_solv.prm

>  <Rbt.Receptor>
prm/blind_docking_100.prm

>  <SCORE>
-39.8543

>  <SCORE.INTER>
-43.7232

>  <SCORE.INTER.CONST>
1

>  <SCORE.INTER.POLAR>
-5.68744

>  <SCORE.INTER.ROT>
6

>  <SCORE.INTER.SOLV>
24.8552

>  <SCORE.INTER.VDW>
-26.0758

>  <SCORE.INTER.norm>
-1.41043

>  <SCORE.INTRA>
3.14387

>  <SCORE.INTRA.DIHEDRAL>
-5.69754

>  <SCORE.INTRA.DIHEDRAL.0>
28.0161

>  <SCORE.INTRA.POLAR>
0.958751

>  <SCORE.INTRA.POLAR.0>
-1.05798

>  <SCORE.INTRA.REPUL>
0.0776525

>  <SCORE.INTRA.REPUL.0>
0

>  <SCORE.INTRA.SOLV>
-0.0570726

>  <SCORE.INTRA.SOLV.lig_0>
-42.5945

>  <SCORE.INTRA.VDW>
2.37317

>  <SCORE.INTRA.VDW.0>
-5.13869

>  <SCORE.INTRA.norm>
0.101415

>  <SCORE.RESTR>
0.725065

>  <SCORE.RESTR.CAVITY>
0.725065

>  <SCORE.RESTR.norm>
0.0233892

>  <SCORE.SYSTEM>
0

>  <SCORE.SYSTEM.CONST>
0

>  <SCORE.SYSTEM.DIHEDRAL>
0

>  <SCORE.SYSTEM.SOLV>
0

>  <SCORE.SYSTEM.norm>
0

>  <SCORE.heavy>
31

>  <SCORE.norm>
-1.28562

>  <RMSD>
6.052

$$$$
lig.pdb
 OpenBabel11021811453D
libRbt.so/2013.1/901 2013/11/27
 31 33  0  0  0  0  0  0  0  0999 V2000
    3.6740    3.0685    2.3199 O   0  0  0  0  0  0  0  0  0  0  0  0
    3.1723    4.3685    2.0783 C   0  0  0  0  0  0  0  0  0  0  0  0
    1.7257    4.3257    1.5677 C   0  0  1  0  0  0  0  0  0  0  0  0
    1.3305    3.0104    1.2116 O   0  0  0  0  0  0  0  0  0  0  0  0
   -0.0834    2.8867    1.3306 C   0  0  1  0  0  0  0  0  0  0  0  0
   -0.4057    1.6990    2.0442 O   0  0  0  0  0  0  0  0  0  0  0  0
   -0.5454    0.5071    1.2874 C   0  0  2  0  0  0  0  0  0  0  0  0
   -1.8436    0.6200    0.4725 C   0  0  1  0  0  0  0  0  0  0  0  0
   -1.6891    1.6030   -0.5390 O   0  0  0  0  0  0  0  0  0  0  0  0
   -2.2643   -0.6855   -0.2194 C   0  0  2  0  0  0  0  0  0  0  0  0
   -3.5604   -0.5298   -0.8978 N   0  0  0  0  0  0  0  0  0  0  0  0
   -2.3621   -1.8048    0.8104 C   0  0  0  0  0  0  0  0  0  0  0  0
   -1.0347   -1.9427    1.5459 C   0  0  2  0  0  0  0  0  0  0  0  0
   -1.1400   -3.0604    2.4900 N   0  0  0  0  0  0  0  0  0  0  0  0
   -0.6759   -0.6214    2.2594 C   0  0  1  0  0  0  0  0  0  0  0  0
    0.5714   -0.8715    2.9253 O   0  0  0  0  0  0  0  0  0  0  0  0
    1.1263    0.1957    3.6867 C   0  0  1  0  0  0  0  0  0  0  0  0
    0.5163    0.2668    4.9726 O   0  0  0  0  0  0  0  0  0  0  0  0
    0.8072   -0.8040    5.8684 C   0  0  2  0  0  0  0  0  0  0  0  0
    0.0712   -0.5583    7.1922 C   0  0  0  0  0  0  0  0  0  0  0  0
   -1.2531    0.0062    6.9752 N   0  0  0  0  0  0  0  0  0  0  0  0
    2.3221   -0.9078    6.1248 C   0  0  1  0  0  0  0  0  0  0  0  0
    2.5905   -2.0129    6.9693 O   0  0  0  0  0  0  0  0  0  0  0  0
    3.0383   -1.0917    4.7810 C   0  0  2  0  0  0  0  0  0  0  0  0
    4.4403   -1.1027    4.9742 O   0  0  0  0  0  0  0  0  0  0  0  0
    2.6450    0.0213    3.8004 C   0  0  1  0  0  0  0  0  0  0  0  0
    3.2364   -0.2369    2.4798 N   0  0  0  0  0  0  0  0  0  0  0  0
   -0.5718    4.1093    2.1212 C   0  0  2  0  0  0  0  0  0  0  0  0
   -1.2796    4.9847    1.2632 O   0  0  0  0  0  0  0  0  0  0  0  0
    0.7276    4.7099    2.6554 C   0  0  2  0  0  0  0  0  0  0  0  0
    0.6545    6.1014    2.8952 O   0  0  0  0  0  0  0  0  0  0  0  0
  2  1  1  0  0  0  0
  3  2  1  1  0  0  0
  3 30  1  0  0  0  0
  4  5  1  0  0  0  0
  4  3  1  0  0  0  0
  5 28  1  0  0  0  0
  5  6  1  1  0  0  0
  7  6  1  1  0  0  0
  8  7  1  0  0  0  0
  8  9  1  6  0  0  0
 10 11  1  1  0  0  0
 10  8  1  0  0  0  0
 12 10  1  0  0  0  0
 13 12  1  0  0  0  0
 13 15  1  0  0  0  0
 13 14  1  1  0  0  0
 15  7  1  0  0  0  0
 15 16  1  6  0  0  0
 17 16  1  1  0  0  0
 18 17  1  0  0  0  0
 19 20  1  1  0  0  0
 19 18  1  0  0  0  0
 20 21  1  0  0  0  0
 22 24  1  0  0  0  0
 22 19  1  0  0  0  0
 22 23  1  1  0  0  0
 24 25  1  1  0  0  0
 24 26  1  0  0  0  0
 26 17  1  0  0  0  0
 26 27  1  6  0  0  0
 28 29  1  6  0  0  0
 28 30  1  0  0  0  0
 30 31  1  6  0  0  0
M  END
>  <CHROM.1>
-49.16180227,-11.56704954,-88.03776924,-71.09107378,-172.18938613,-45.14879402
59.61408116,60.04831862,81.49804287,38.27877718,86.24175696,-54.82390165
-177.93925302,164.89832112,59.80069145,-152.23410030,0.45104114,0.85062841
2.82922617,-2.13683016,0.75394628,2.67505559

>  <Name>
lig.pdb

>  <RI>
9.20816e+06

>  <Rbt.Current_Directory>
/home/itssahil/PROJECTS/Mol_Feturizer/New_Systems/rnas/2n0j

>  <Rbt.Executable>
rbdock ($Id: //depot/dev/client3/rdock/2013.1/src/exe/rbdock.cxx#4 $)

>  <Rbt.Library>
libRbt.so (2013.1, Build901 2013/11/27)

>  <Rbt.Parameter_File>
/export/apps/rDock/src/rDock_2013.1_src/data/scripts/dock_solv.prm

>  <Rbt.Receptor>
prm/blind_docking_100.prm

>  <SCORE>
-37.28

>  <SCORE.INTER>
-39.4027

>  <SCORE.INTER.CONST>
1

>  <SCORE.INTER.POLAR>
-4.89358

>  <SCORE.INTER.ROT>
6

>  <SCORE.INTER.SOLV>
22.7577

>  <SCORE.INTER.VDW>
-25.1424

>  <SCORE.INTER.norm>
-1.27106

>  <SCORE.INTRA>
1.379

>  <SCORE.INTRA.DIHEDRAL>
-8.856

>  <SCORE.INTRA.DIHEDRAL.0>
28.0161

>  <SCORE.INTRA.POLAR>
0.827851

>  <SCORE.INTRA.POLAR.0>
-1.05798

>  <SCORE.INTRA.REPUL>
0

>  <SCORE.INTRA.REPUL.0>
0

>  <SCORE.INTRA.SOLV>
0.144659

>  <SCORE.INTRA.SOLV.lig_0>
-42.5945

>  <SCORE.INTRA.VDW>
2.91998

>  <SCORE.INTRA.VDW.0>
-5.13869

>  <SCORE.INTRA.norm>
0.044484

>  <SCORE.RESTR>
0.743667

>  <SCORE.RESTR.CAVITY>
0.743667

>  <SCORE.RESTR.norm>
0.0239893

>  <SCORE.SYSTEM>
0

>  <SCORE.SYSTEM.CONST>
0

>  <SCORE.SYSTEM.DIHEDRAL>
0

>  <SCORE.SYSTEM.SOLV>
0

>  <SCORE.SYSTEM.norm>
0

>  <SCORE.heavy>
31

>  <SCORE.norm>
-1.20258

>  <RMSD>
6.055

$$$$
lig.pdb
 OpenBabel11021811453D
libRbt.so/2013.1/901 2013/11/27
 31 33  0  0  0  0  0  0  0  0999 V2000
    4.1419    3.6167    0.7201 O   0  0  0  0  0  0  0  0  0  0  0  0
    3.4904    4.1176    1.8711 C   0  0  0  0  0  0  0  0  0  0  0  0
    1.9978    4.3610    1.6097 C   0  0  1  0  0  0  0  0  0  0  0  0
    1.3479    3.1924    1.1352 O   0  0  0  0  0  0  0  0  0  0  0  0
   -0.0355    3.2448    1.4701 C   0  0  1  0  0  0  0  0  0  0  0  0
   -0.4401    2.0079    2.0449 O   0  0  0  0  0  0  0  0  0  0  0  0
   -0.5262    0.8886    1.1774 C   0  0  2  0  0  0  0  0  0  0  0  0
   -1.9537    0.8458    0.6094 C   0  0  1  0  0  0  0  0  0  0  0  0
   -2.1466    1.9333   -0.2815 O   0  0  0  0  0  0  0  0  0  0  0  0
   -2.2824   -0.4412   -0.1625 C   0  0  2  0  0  0  0  0  0  0  0  0
   -3.6893   -0.4548   -0.5918 N   0  0  0  0  0  0  0  0  0  0  0  0
   -2.0095   -1.6537    0.7198 C   0  0  0  0  0  0  0  0  0  0  0  0
   -0.5643   -1.6225    1.2021 C   0  0  2  0  0  0  0  0  0  0  0  0
   -0.3149   -2.8265    2.0019 N   0  0  0  0  0  0  0  0  0  0  0  0
   -0.2942   -0.3332    2.0073 C   0  0  1  0  0  0  0  0  0  0  0  0
    1.0781   -0.4195    2.4206 O   0  0  0  0  0  0  0  0  0  0  0  0
    1.5311    0.5378    3.3719 C   0  0  1  0  0  0  0  0  0  0  0  0
    0.6534    0.5870    4.4935 O   0  0  0  0  0  0  0  0  0  0  0  0
    0.6453   -0.5616    5.3385 C   0  0  2  0  0  0  0  0  0  0  0  0
   -0.3490   -0.3290    6.4839 C   0  0  0  0  0  0  0  0  0  0  0  0
   -0.6681   -1.5675    7.1796 N   0  0  0  0  0  0  0  0  0  0  0  0
    2.0491   -0.8296    5.9124 C   0  0  1  0  0  0  0  0  0  0  0  0
    2.0280   -2.0070    6.6998 O   0  0  0  0  0  0  0  0  0  0  0  0
    3.0338   -0.9977    4.7485 C   0  0  2  0  0  0  0  0  0  0  0  0
    4.3498   -1.1585    5.2437 O   0  0  0  0  0  0  0  0  0  0  0  0
    2.9650    0.2082    3.8019 C   0  0  1  0  0  0  0  0  0  0  0  0
    3.8173   -0.0228    2.6269 N   0  0  0  0  0  0  0  0  0  0  0  0
   -0.2008    4.3693    2.5028 C   0  0  2  0  0  0  0  0  0  0  0  0
   -0.8732    5.4669    1.9140 O   0  0  0  0  0  0  0  0  0  0  0  0
    1.2418    4.6864    2.8940 C   0  0  2  0  0  0  0  0  0  0  0  0
    1.4302    6.0131    3.3448 O   0  0  0  0  0  0  0  0  0  0  0  0
  2  1  1  0  0  0  0
  3  2  1  1  0  0  0
  3 30  1  0  0  0  0
  4  5  1  0  0  0  0
  4  3  1  0  0  0  0
  5 28  1  0  0  0  0
  5  6  1  1  0  0  0
  7  6  1  1  0  0  0
  8  7  1  0  0  0  0
  8  9  1  6  0  0  0
 10 11  1  1  0  0  0
 10  8  1  0  0  0  0
 12 10  1  0  0  0  0
 13 12  1  0  0  0  0
 13 15  1  0  0  0  0
 13 14  1  1  0  0  0
 15  7  1  0  0  0  0
 15 16  1  6  0  0  0
 17 16  1  6  0  0  0
 18 17  1  0  0  0  0
 19 20  1  1  0  0  0
 19 18  1  0  0  0  0
 20 21  1  0  0  0  0
 22 24  1  0  0  0  0
 22 19  1  0  0  0  0
 22 23  1  6  0  0  0
 24 25  1  1  0  0  0
 24 26  1  0  0  0  0
 26 17  1  0  0  0  0
 26 27  1  6  0  0  0
 28 29  1  6  0  0  0
 28 30  1  0  0  0  0
 30 31  1  6  0  0  0
M  END
>  <CHROM.1>
-70.12146896,55.55014231,-71.28175188,-90.02033021,74.22159124,-176.51939960
-93.52879467,69.42716330,50.88338827,165.18754528,-179.26952868,173.75819938
-63.99257862,23.16474987,-52.37638090,173.03578015,0.64387240,0.98929671
2.73587215,-1.86345861,0.69223545,2.63378896

>  <Name>
lig.pdb

>  <RI>
1.79691e+07

>  <Rbt.Current_Directory>
/home/itssahil/PROJECTS/Mol_Feturizer/New_Systems/rnas/2n0j

>  <Rbt.Executable>
rbdock ($Id: //depot/dev/client3/rdock/2013.1/src/exe/rbdock.cxx#4 $)

>  <Rbt.Library>
libRbt.so (2013.1, Build901 2013/11/27)

>  <Rbt.Parameter_File>
/export/apps/rDock/src/rDock_2013.1_src/data/scripts/dock_solv.prm

>  <Rbt.Receptor>
prm/blind_docking_20.prm

>  <SCORE>
-40.2757

>  <SCORE.INTER>
-37.4334

>  <SCORE.INTER.CONST>
1

>  <SCORE.INTER.POLAR>
-5.29432

>  <SCORE.INTER.ROT>
6

>  <SCORE.INTER.SOLV>
23.5989

>  <SCORE.INTER.VDW>
-22.7742

>  <SCORE.INTER.norm>
-1.20753

>  <SCORE.INTRA>
-3.40043

>  <SCORE.INTRA.DIHEDRAL>
-15.0138

>  <SCORE.INTRA.DIHEDRAL.0>
28.0161

>  <SCORE.INTRA.POLAR>
0.526562

>  <SCORE.INTRA.POLAR.0>
-1.05798

>  <SCORE.INTRA.REPUL>
0.0259193

>  <SCORE.INTRA.REPUL.0>
0

>  <SCORE.INTRA.SOLV>
-0.0337468

>  <SCORE.INTRA.SOLV.lig_0>
-42.5945

>  <SCORE.INTRA.VDW>
2.20341

>  <SCORE.INTRA.VDW.0>
-5.13869

>  <SCORE.INTRA.norm>
-0.109691

>  <SCORE.RESTR>
0.558086

>  <SCORE.RESTR.CAVITY>
0.558086

>  <SCORE.RESTR.norm>
0.0180028

>  <SCORE.SYSTEM>
0

>  <SCORE.SYSTEM.CONST>
0

>  <SCORE.SYSTEM.DIHEDRAL>
0

>  <SCORE.SYSTEM.SOLV>
0

>  <SCORE.SYSTEM.norm>
0

>  <SCORE.heavy>
31

>  <SCORE.norm>
-1.29922

>  <RMSD>
6.066

$$$$
lig.pdb
 OpenBabel11021811453D
libRbt.so/2013.1/901 2013/11/27
 31 33  0  0  0  0  0  0  0  0999 V2000
    1.4676    6.6219    3.0069 O   0  0  0  0  0  0  0  0  0  0  0  0
    0.5988    5.5573    3.3419 C   0  0  0  0  0  0  0  0  0  0  0  0
    1.1416    4.2117    2.8420 C   0  0  1  0  0  0  0  0  0  0  0  0
    0.2772    3.1373    3.1761 O   0  0  0  0  0  0  0  0  0  0  0  0
    0.4512    2.0753    2.2430 C   0  0  1  0  0  0  0  0  0  0  0  0
   -0.8175    1.6187    1.7894 O   0  0  0  0  0  0  0  0  0  0  0  0
   -0.8531    0.3707    1.1155 C   0  0  2  0  0  0  0  0  0  0  0  0
   -2.1204    0.3446    0.2463 C   0  0  1  0  0  0  0  0  0  0  0  0
   -1.9831    1.2629   -0.8267 O   0  0  0  0  0  0  0  0  0  0  0  0
   -2.4322   -1.0297   -0.3654 C   0  0  2  0  0  0  0  0  0  0  0  0
   -3.7056   -1.0035   -1.1015 N   0  0  0  0  0  0  0  0  0  0  0  0
   -2.5054   -2.0788    0.7378 C   0  0  0  0  0  0  0  0  0  0  0  0
   -1.2042   -2.0812    1.5307 C   0  0  2  0  0  0  0  0  0  0  0  0
   -1.2815   -3.1352    2.5480 N   0  0  0  0  0  0  0  0  0  0  0  0
   -0.9560   -0.6936    2.1605 C   0  0  1  0  0  0  0  0  0  0  0  0
    0.2750   -0.8177    2.8890 O   0  0  0  0  0  0  0  0  0  0  0  0
    0.4964    0.1037    3.9514 C   0  0  1  0  0  0  0  0  0  0  0  0
   -0.1525   -0.3353    5.1418 O   0  0  0  0  0  0  0  0  0  0  0  0
    0.3862   -1.5021    5.7597 C   0  0  2  0  0  0  0  0  0  0  0  0
   -0.4322   -1.8209    7.0180 C   0  0  0  0  0  0  0  0  0  0  0  0
   -1.5093   -2.7591    6.7362 N   0  0  0  0  0  0  0  0  0  0  0  0
    1.8637   -1.2893    6.1382 C   0  0  1  0  0  0  0  0  0  0  0  0
    2.3917   -2.4796    6.6957 O   0  0  0  0  0  0  0  0  0  0  0  0
    2.6471   -0.9127    4.8745 C   0  0  2  0  0  0  0  0  0  0  0  0
    3.9931   -0.6247    5.2040 O   0  0  0  0  0  0  0  0  0  0  0  0
    2.0012    0.2909    4.1750 C   0  0  1  0  0  0  0  0  0  0  0  0
    2.6838    0.5610    2.9015 N   0  0  0  0  0  0  0  0  0  0  0  0
    1.2439    2.6486    1.0593 C   0  0  2  0  0  0  0  0  0  0  0  0
    2.5567    2.1195    1.0592 O   0  0  0  0  0  0  0  0  0  0  0  0
    1.2014    4.1537    1.3189 C   0  0  2  0  0  0  0  0  0  0  0  0
    2.2955    4.8574    0.7649 O   0  0  0  0  0  0  0  0  0  0  0  0
  2  1  1  0  0  0  0
  3  2  1  6  0  0  0
  3 30  1  0  0  0  0
  4  5  1  0  0  0  0
  4  3  1  0  0  0  0
  5 28  1  0  0  0  0
  5  6  1  6  0  0  0
  7  6  1  1  0  0  0
  8  7  1  0  0  0  0
  8  9  1  6  0  0  0
 10 11  1  1  0  0  0
 10  8  1  0  0  0  0
 12 10  1  0  0  0  0
 13 12  1  0  0  0  0
 13 15  1  0  0  0  0
 13 14  1  1  0  0  0
 15  7  1  0  0  0  0
 15 16  1  6  0  0  0
 17 16  1  6  0  0  0
 18 17  1  0  0  0  0
 19 20  1  1  0  0  0
 19 18  1  0  0  0  0
 20 21  1  0  0  0  0
 22 24  1  0  0  0  0
 22 19  1  0  0  0  0
 22 23  1  6  0  0  0
 24 25  1  1  0  0  0
 24 26  1  0  0  0  0
 26 17  1  0  0  0  0
 26 27  1  6  0  0  0
 28 29  1  1  0  0  0
 28 30  1  0  0  0  0
 30 31  1  1  0  0  0
M  END
>  <CHROM.1>
-161.39894249,179.88862502,-165.16602364,-157.34923616,-80.12752305,-172.83497083
57.54755844,82.20494397,83.03549734,92.87898046,53.63758812,-55.95227748
-58.70501530,92.51311606,-179.46776845,53.27728936,0.27783505,0.56935689
2.84896440,-1.43924322,0.82647641,2.50818635

>  <Name>
lig.pdb

>  <RI>
1.55206e+07

>  <Rbt.Current_Directory>
/home/itssahil/PROJECTS/Mol_Feturizer/New_Systems/rnas/2n0j

>  <Rbt.Executable>
rbdock ($Id: //depot/dev/client3/rdock/2013.1/src/exe/rbdock.cxx#4 $)

>  <Rbt.Library>
libRbt.so (2013.1, Build901 2013/11/27)

>  <Rbt.Parameter_File>
/export/apps/rDock/src/rDock_2013.1_src/data/scripts/dock_solv.prm

>  <Rbt.Receptor>
prm/blind_docking_80.prm

>  <SCORE>
-28.7517

>  <SCORE.INTER>
-33.6971

>  <SCORE.INTER.CONST>
1

>  <SCORE.INTER.POLAR>
-4.52605

>  <SCORE.INTER.ROT>
6

>  <SCORE.INTER.SOLV>
24.3825

>  <SCORE.INTER.VDW>
-23.1054

>  <SCORE.INTER.norm>
-1.087

>  <SCORE.INTRA>
3.87016

>  <SCORE.INTRA.DIHEDRAL>
-10.9248

>  <SCORE.INTRA.DIHEDRAL.0>
28.0161

>  <SCORE.INTRA.POLAR>
0.607755

>  <SCORE.INTRA.POLAR.0>
-1.05798

>  <SCORE.INTRA.REPUL>
0

>  <SCORE.INTRA.REPUL.0>
0

>  <SCORE.INTRA.SOLV>
1.72841

>  <SCORE.INTRA.SOLV.lig_0>
-42.5945

>  <SCORE.INTRA.VDW>
6.40197

>  <SCORE.INTRA.VDW.0>
-5.13869

>  <SCORE.INTRA.norm>
0.124844

>  <SCORE.RESTR>
1.07518

>  <SCORE.RESTR.CAVITY>
1.07518

>  <SCORE.RESTR.norm>
0.0346832

>  <SCORE.SYSTEM>
0

>  <SCORE.SYSTEM.CONST>
0

>  <SCORE.SYSTEM.DIHEDRAL>
0

>  <SCORE.SYSTEM.SOLV>
0

>  <SCORE.SYSTEM.norm>
0

>  <SCORE.heavy>
31

>  <SCORE.norm>
-0.927475

>  <RMSD>
6.072

$$$$
lig.pdb
 OpenBabel11021811453D
libRbt.so/2013.1/901 2013/11/27
 31 33  0  0  0  0  0  0  0  0999 V2000
   -0.6229    6.5226    2.2476 O   0  0  0  0  0  0  0  0  0  0  0  0
    0.6743    6.4742    2.8090 C   0  0  0  0  0  0  0  0  0  0  0  0
    1.3663    5.1378    2.5084 C   0  0  1  0  0  0  0  0  0  0  0  0
    0.7563    4.0603    3.2012 O   0  0  0  0  0  0  0  0  0  0  0  0
    0.9791    2.8466    2.4898 C   0  0  1  0  0  0  0  0  0  0  0  0
   -0.2423    2.1274    2.3680 O   0  0  0  0  0  0  0  0  0  0  0  0
   -0.2856    1.0834    1.4084 C   0  0  2  0  0  0  0  0  0  0  0  0
   -1.6960    1.0677    0.7978 C   0  0  1  0  0  0  0  0  0  0  0  0
   -1.8823    2.2230   -0.0048 O   0  0  0  0  0  0  0  0  0  0  0  0
   -1.9818   -0.1548   -0.0875 C   0  0  2  0  0  0  0  0  0  0  0  0
   -3.3759   -0.1527   -0.5571 N   0  0  0  0  0  0  0  0  0  0  0  0
   -1.7131   -1.4328    0.6984 C   0  0  0  0  0  0  0  0  0  0  0  0
   -0.2826   -1.4213    1.2232 C   0  0  2  0  0  0  0  0  0  0  0  0
   -0.0353   -2.6843    1.9270 N   0  0  0  0  0  0  0  0  0  0  0  0
   -0.0564   -0.2001    2.1403 C   0  0  1  0  0  0  0  0  0  0  0  0
    1.3052   -0.3009    2.5845 O   0  0  0  0  0  0  0  0  0  0  0  0
    1.6988    0.5359    3.6668 C   0  0  1  0  0  0  0  0  0  0  0  0
    0.7599    0.4516    4.7354 O   0  0  0  0  0  0  0  0  0  0  0  0
    0.7120   -0.7895    5.4360 C   0  0  2  0  0  0  0  0  0  0  0  0
   -0.3458   -0.6946    6.5435 C   0  0  0  0  0  0  0  0  0  0  0  0
   -0.6605   -2.0023    7.1009 N   0  0  0  0  0  0  0  0  0  0  0  0
    2.0833   -1.1248    6.0514 C   0  0  1  0  0  0  0  0  0  0  0  0
    2.0258   -2.3875    6.6907 O   0  0  0  0  0  0  0  0  0  0  0  0
    3.1322   -1.1535    4.9326 C   0  0  2  0  0  0  0  0  0  0  0  0
    4.4196   -1.3728    5.4779 O   0  0  0  0  0  0  0  0  0  0  0  0
    3.1087    0.1568    4.1339 C   0  0  1  0  0  0  0  0  0  0  0  0
    4.0263    0.0669    2.9892 N   0  0  0  0  0  0  0  0  0  0  0  0
    1.4869    3.2362    1.0939 C   0  0  2  0  0  0  0  0  0  0  0  0
    2.8584    2.9076    0.9728 O   0  0  0  0  0  0  0  0  0  0  0  0
    1.2214    4.7400    1.0429 C   0  0  2  0  0  0  0  0  0  0  0  0
    2.0887    5.4415    0.1742 O   0  0  0  0  0  0  0  0  0  0  0  0
  2  1  1  0  0  0  0
  3  2  1  6  0  0  0
  3 30  1  0  0  0  0
  4  5  1  0  0  0  0
  4  3  1  0  0  0  0
  5 28  1  0  0  0  0
  5  6  1  6  0  0  0
  7  6  1  1  0  0  0
  8  7  1  0  0  0  0
  8  9  1  6  0  0  0
 10 11  1  1  0  0  0
 10  8  1  0  0  0  0
 12 10  1  0  0  0  0
 13 12  1  0  0  0  0
 13 15  1  0  0  0  0
 13 14  1  1  0  0  0
 15  7  1  0  0  0  0
 15 16  1  6  0  0  0
 17 16  1  6  0  0  0
 18 17  1  0  0  0  0
 19 20  1  1  0  0  0
 19 18  1  0  0  0  0
 20 21  1  0  0  0  0
 22 24  1  0  0  0  0
 22 19  1  0  0  0  0
 22 23  1  6  0  0  0
 24 25  1  1  0  0  0
 24 26  1  0  0  0  0
 26 17  1  0  0  0  0
 26 27  1  6  0  0  0
 28 29  1  1  0  0  0
 28 30  1  0  0  0  0
 30 31  1  6  0  0  0
M  END
>  <CHROM.1>
-70.61621799,-68.94412827,164.16675393,-144.27298016,-58.37728838,177.38976812
10.62207782,72.28227971,48.67756076,167.23323246,-177.45354233,-177.74428942
145.76484268,-79.25408088,76.87585424,-54.23113216,0.70427373,1.06414486
2.80407186,-1.82219604,0.75656682,2.70186289

>  <Name>
lig.pdb

>  <RI>
1.55206e+07

>  <Rbt.Current_Directory>
/home/itssahil/PROJECTS/Mol_Feturizer/New_Systems/rnas/2n0j

>  <Rbt.Executable>
rbdock ($Id: //depot/dev/client3/rdock/2013.1/src/exe/rbdock.cxx#4 $)

>  <Rbt.Library>
libRbt.so (2013.1, Build901 2013/11/27)

>  <Rbt.Parameter_File>
/export/apps/rDock/src/rDock_2013.1_src/data/scripts/dock_solv.prm

>  <Rbt.Receptor>
prm/blind_docking_80.prm

>  <SCORE>
-37.9452

>  <SCORE.INTER>
-40.9987

>  <SCORE.INTER.CONST>
1

>  <SCORE.INTER.POLAR>
-5.37131

>  <SCORE.INTER.ROT>
6

>  <SCORE.INTER.SOLV>
25.484

>  <SCORE.INTER.VDW>
-25.5228

>  <SCORE.INTER.norm>
-1.32254

>  <SCORE.INTRA>
2.54583

>  <SCORE.INTRA.DIHEDRAL>
-9.07591

>  <SCORE.INTRA.DIHEDRAL.0>
28.0161

>  <SCORE.INTRA.POLAR>
0.56302

>  <SCORE.INTRA.POLAR.0>
-1.05798

>  <SCORE.INTRA.REPUL>
0

>  <SCORE.INTRA.REPUL.0>
0

>  <SCORE.INTRA.SOLV>
1.29792

>  <SCORE.INTRA.SOLV.lig_0>
-42.5945

>  <SCORE.INTRA.VDW>
4.52056

>  <SCORE.INTRA.VDW.0>
-5.13869

>  <SCORE.INTRA.norm>
0.0821235

>  <SCORE.RESTR>
0.507607

>  <SCORE.RESTR.CAVITY>
0.507607

>  <SCORE.RESTR.norm>
0.0163744

>  <SCORE.SYSTEM>
0

>  <SCORE.SYSTEM.CONST>
0

>  <SCORE.SYSTEM.DIHEDRAL>
0

>  <SCORE.SYSTEM.SOLV>
0

>  <SCORE.SYSTEM.norm>
0

>  <SCORE.heavy>
31

>  <SCORE.norm>
-1.22404

>  <RMSD>
6.081

$$$$
lig.pdb
 OpenBabel11021811453D
libRbt.so/2013.1/901 2013/11/27
 31 33  0  0  0  0  0  0  0  0999 V2000
    3.7140    2.9766    2.5476 O   0  0  0  0  0  0  0  0  0  0  0  0
    3.4371    4.1026    1.7379 C   0  0  0  0  0  0  0  0  0  0  0  0
    1.9378    4.2181    1.4313 C   0  0  1  0  0  0  0  0  0  0  0  0
    1.3751    2.9666    1.0706 O   0  0  0  0  0  0  0  0  0  0  0  0
   -0.0156    2.9605    1.3784 C   0  0  1  0  0  0  0  0  0  0  0  0
   -0.3513    1.7646    2.0718 O   0  0  0  0  0  0  0  0  0  0  0  0
   -0.4953    0.5854    1.2960 C   0  0  2  0  0  0  0  0  0  0  0  0
   -1.7996    0.7107    0.4926 C   0  0  1  0  0  0  0  0  0  0  0  0
   -1.6534    1.7109   -0.5033 O   0  0  0  0  0  0  0  0  0  0  0  0
   -2.2241   -0.5834   -0.2182 C   0  0  2  0  0  0  0  0  0  0  0  0
   -3.5252   -0.4176   -0.8844 N   0  0  0  0  0  0  0  0  0  0  0  0
   -2.3134   -1.7200    0.7933 C   0  0  0  0  0  0  0  0  0  0  0  0
   -0.9805   -1.8688    1.5167 C   0  0  2  0  0  0  0  0  0  0  0  0
   -1.0780   -3.0024    2.4426 N   0  0  0  0  0  0  0  0  0  0  0  0
   -0.6177   -0.5594    2.2498 C   0  0  1  0  0  0  0  0  0  0  0  0
    0.6345   -0.8194    2.9023 O   0  0  0  0  0  0  0  0  0  0  0  0
    1.2096    0.2457    3.6517 C   0  0  1  0  0  0  0  0  0  0  0  0
    0.5917    0.3516    4.9314 O   0  0  0  0  0  0  0  0  0  0  0  0
    0.8493   -0.7119    5.8458 C   0  0  2  0  0  0  0  0  0  0  0  0
    0.1095   -0.4277    7.1597 C   0  0  0  0  0  0  0  0  0  0  0  0
   -1.2624   -0.0011    6.9237 N   0  0  0  0  0  0  0  0  0  0  0  0
    2.3593   -0.8486    6.1160 C   0  0  1  0  0  0  0  0  0  0  0  0
    2.5939   -1.9467    6.9795 O   0  0  0  0  0  0  0  0  0  0  0  0
    3.0810   -1.0709    4.7810 C   0  0  2  0  0  0  0  0  0  0  0  0
    4.4808   -1.1131    4.9857 O   0  0  0  0  0  0  0  0  0  0  0  0
    2.7226    0.0360    3.7803 C   0  0  1  0  0  0  0  0  0  0  0  0
    3.3177   -0.2571    2.4686 N   0  0  0  0  0  0  0  0  0  0  0  0
   -0.2751    4.1710    2.2870 C   0  0  2  0  0  0  0  0  0  0  0  0
   -1.0046    5.1556    1.5786 O   0  0  0  0  0  0  0  0  0  0  0  0
    1.1352    4.6217    2.6641 C   0  0  2  0  0  0  0  0  0  0  0  0
    1.2277    5.9971    2.9784 O   0  0  0  0  0  0  0  0  0  0  0  0
  2  1  1  0  0  0  0
  3  2  1  1  0  0  0
  3 30  1  0  0  0  0
  4  5  1  0  0  0  0
  4  3  1  0  0  0  0
  5 28  1  0  0  0  0
  5  6  1  1  0  0  0
  7  6  1  1  0  0  0
  8  7  1  0  0  0  0
  8  9  1  6  0  0  0
 10 11  1  1  0  0  0
 10  8  1  0  0  0  0
 12 10  1  0  0  0  0
 13 12  1  0  0  0  0
 13 15  1  0  0  0  0
 13 14  1  1  0  0  0
 15  7  1  0  0  0  0
 15 16  1  6  0  0  0
 17 16  1  1  0  0  0
 18 17  1  0  0  0  0
 19 20  1  1  0  0  0
 19 18  1  0  0  0  0
 20 21  1  0  0  0  0
 22 24  1  0  0  0  0
 22 19  1  0  0  0  0
 22 23  1  1  0  0  0
 24 25  1  1  0  0  0
 24 26  1  0  0  0  0
 26 17  1  0  0  0  0
 26 27  1  6  0  0  0
 28 29  1  6  0  0  0
 28 30  1  0  0  0  0
 30 31  1  6  0  0  0
M  END
>  <CHROM.1>
67.93755168,-44.61951723,-78.26483632,-72.00763616,66.75336434,-54.25932857
-58.66262338,58.60509026,79.99702791,45.83581671,80.37510410,-53.17663685
78.64925286,38.92177669,-42.91689171,-54.64071395,0.56415143,0.87937424,2.82943886
-2.12280281,0.74013537,2.63144111

>  <Name>
lig.pdb

>  <RI>
9.20816e+06

>  <Rbt.Current_Directory>
/home/itssahil/PROJECTS/Mol_Feturizer/New_Systems/rnas/2n0j

>  <Rbt.Executable>
rbdock ($Id: //depot/dev/client3/rdock/2013.1/src/exe/rbdock.cxx#4 $)

>  <Rbt.Library>
libRbt.so (2013.1, Build901 2013/11/27)

>  <Rbt.Parameter_File>
/export/apps/rDock/src/rDock_2013.1_src/data/scripts/dock_solv.prm

>  <Rbt.Receptor>
prm/blind_docking_100.prm

>  <SCORE>
-40.5976

>  <SCORE.INTER>
-39.0448

>  <SCORE.INTER.CONST>
1

>  <SCORE.INTER.POLAR>
-4.86293

>  <SCORE.INTER.ROT>
6

>  <SCORE.INTER.SOLV>
22.768

>  <SCORE.INTER.VDW>
-25.0094

>  <SCORE.INTER.norm>
-1.25951

>  <SCORE.INTRA>
-1.91783

>  <SCORE.INTRA.DIHEDRAL>
-16.3249

>  <SCORE.INTRA.DIHEDRAL.0>
28.0161

>  <SCORE.INTRA.POLAR>
0.92329

>  <SCORE.INTRA.POLAR.0>
-1.05798

>  <SCORE.INTRA.REPUL>
0

>  <SCORE.INTRA.REPUL.0>
0

>  <SCORE.INTRA.SOLV>
0.467809

>  <SCORE.INTRA.SOLV.lig_0>
-42.5945

>  <SCORE.INTRA.VDW>
2.87152

>  <SCORE.INTRA.VDW.0>
-5.13869

>  <SCORE.INTRA.norm>
-0.0618656

>  <SCORE.RESTR>
0.365049

>  <SCORE.RESTR.CAVITY>
0.365049

>  <SCORE.RESTR.norm>
0.0117758

>  <SCORE.SYSTEM>
0

>  <SCORE.SYSTEM.CONST>
0

>  <SCORE.SYSTEM.DIHEDRAL>
0

>  <SCORE.SYSTEM.SOLV>
0

>  <SCORE.SYSTEM.norm>
0

>  <SCORE.heavy>
31

>  <SCORE.norm>
-1.3096

>  <RMSD>
6.083

$$$$
lig.pdb
 OpenBabel11021811453D
libRbt.so/2013.1/901 2013/11/27
 31 33  0  0  0  0  0  0  0  0999 V2000
   -4.5923    1.0262   -0.4080 O   0  0  0  0  0  0  0  0  0  0  0  0
   -3.6973    0.2757   -1.2054 C   0  0  0  0  0  0  0  0  0  0  0  0
   -2.6331   -0.4230   -0.3484 C   0  0  1  0  0  0  0  0  0  0  0  0
   -2.1480    0.4220    0.6829 O   0  0  0  0  0  0  0  0  0  0  0  0
   -1.6704   -0.3704    1.7659 C   0  0  1  0  0  0  0  0  0  0  0  0
   -2.1887    0.1276    2.9936 O   0  0  0  0  0  0  0  0  0  0  0  0
   -1.3771   -0.0235    4.1474 C   0  0  2  0  0  0  0  0  0  0  0  0
   -1.7701   -1.3455    4.8257 C   0  0  1  0  0  0  0  0  0  0  0  0
   -1.3556   -2.4378    4.0204 O   0  0  0  0  0  0  0  0  0  0  0  0
   -1.1513   -1.5434    6.2179 C   0  0  2  0  0  0  0  0  0  0  0  0
   -1.6460   -2.7787    6.8450 N   0  0  0  0  0  0  0  0  0  0  0  0
   -1.4915   -0.3522    7.1057 C   0  0  0  0  0  0  0  0  0  0  0  0
   -1.0186    0.9348    6.4410 C   0  0  2  0  0  0  0  0  0  0  0  0
   -1.3091    2.0566    7.3404 N   0  0  0  0  0  0  0  0  0  0  0  0
   -1.6989    1.1111    5.0664 C   0  0  1  0  0  0  0  0  0  0  0  0
   -1.1961    2.3511    4.5457 O   0  0  0  0  0  0  0  0  0  0  0  0
   -1.9303    2.9559    3.4865 C   0  0  1  0  0  0  0  0  0  0  0  0
   -3.3297    2.9031    3.7500 O   0  0  0  0  0  0  0  0  0  0  0  0
   -3.8003    3.7161    4.8229 C   0  0  2  0  0  0  0  0  0  0  0  0
   -5.3180    3.5329    4.9566 C   0  0  0  0  0  0  0  0  0  0  0  0
   -6.0307    4.0990    3.8202 N   0  0  0  0  0  0  0  0  0  0  0  0
   -3.4739    5.1997    4.5702 C   0  0  1  0  0  0  0  0  0  0  0  0
   -3.8982    5.9785    5.6748 O   0  0  0  0  0  0  0  0  0  0  0  0
   -1.9590    5.3459    4.3798 C   0  0  2  0  0  0  0  0  0  0  0  0
   -1.6359    6.6858    4.0586 O   0  0  0  0  0  0  0  0  0  0  0  0
   -1.4571    4.3993    3.2811 C   0  0  1  0  0  0  0  0  0  0  0  0
    0.0093    4.4560    3.1967 N   0  0  0  0  0  0  0  0  0  0  0  0
   -2.1849   -1.7983    1.5328 C   0  0  2  0  0  0  0  0  0  0  0  0
   -1.1088   -2.6433    1.1700 O   0  0  0  0  0  0  0  0  0  0  0  0
   -3.2084   -1.6126    0.4137 C   0  0  2  0  0  0  0  0  0  0  0  0
   -3.3933   -2.7647   -0.3848 O   0  0  0  0  0  0  0  0  0  0  0  0
  2  1  1  0  0  0  0
  3  2  1  1  0  0  0
  3 30  1  0  0  0  0
  4  5  1  0  0  0  0
  4  3  1  0  0  0  0
  5 28  1  0  0  0  0
  5  6  1  1  0  0  0
  7  6  1  6  0  0  0
  8  7  1  0  0  0  0
  8  9  1  6  0  0  0
 10 11  1  1  0  0  0
 10  8  1  0  0  0  0
 12 10  1  0  0  0  0
 13 12  1  0  0  0  0
 13 15  1  0  0  0  0
 13 14  1  1  0  0  0
 15  7  1  0  0  0  0
 15 16  1  6  0  0  0
 17 16  1  1  0  0  0
 18 17  1  0  0  0  0
 19 20  1  6  0  0  0
 19 18  1  0  0  0  0
 20 21  1  0  0  0  0
 22 24  1  0  0  0  0
 22 19  1  0  0  0  0
 22 23  1  1  0  0  0
 24 25  1  6  0  0  0
 24 26  1  0  0  0  0
 26 17  1  0  0  0  0
 26 27  1  1  0  0  0
 28 29  1  6  0  0  0
 28 30  1  0  0  0  0
 30 31  1  6  0  0  0
M  END
>  <CHROM.1>
72.00537362,-41.65650434,-148.61773586,-92.31146497,71.61989152,-49.62841134
49.53061862,77.01284670,43.49464263,-68.38407469,53.91287018,60.21152062
159.80019650,179.52973784,167.52331759,-179.12502498,-2.38524067,1.28425341
3.50315088,1.40968539,1.20318542,-2.51789251

>  <Name>
lig.pdb

>  <RI>
3.32461e+07

>  <Rbt.Current_Directory>
/home/itssahil/PROJECTS/Mol_Feturizer/New_Systems/rnas/2n0j

>  <Rbt.Executable>
rbdock ($Id: //depot/dev/client3/rdock/2013.1/src/exe/rbdock.cxx#4 $)

>  <Rbt.Library>
libRbt.so (2013.1, Build901 2013/11/27)

>  <Rbt.Parameter_File>
/export/apps/rDock/src/rDock_2013.1_src/data/scripts/dock_solv.prm

>  <Rbt.Receptor>
prm/pocket_docking_7.prm

>  <SCORE>
-31.8811

>  <SCORE.INTER>
-32.0921

>  <SCORE.INTER.CONST>
1

>  <SCORE.INTER.POLAR>
-4.54241

>  <SCORE.INTER.ROT>
6

>  <SCORE.INTER.SOLV>
16.583

>  <SCORE.INTER.VDW>
-19.381

>  <SCORE.INTER.norm>
-1.03523

>  <SCORE.INTRA>
0.211043

>  <SCORE.INTRA.DIHEDRAL>
-11.2855

>  <SCORE.INTRA.DIHEDRAL.0>
28.0161

>  <SCORE.INTRA.POLAR>
1.05798

>  <SCORE.INTRA.POLAR.0>
-1.05798

>  <SCORE.INTRA.REPUL>
0.00918463

>  <SCORE.INTRA.REPUL.0>
0

>  <SCORE.INTRA.SOLV>
0.996301

>  <SCORE.INTRA.SOLV.lig_0>
-42.5945

>  <SCORE.INTRA.VDW>
1.71257

>  <SCORE.INTRA.VDW.0>
-5.13869

>  <SCORE.INTRA.norm>
0.00680783

>  <SCORE.RESTR>
0

>  <SCORE.RESTR.CAVITY>
0

>  <SCORE.RESTR.norm>
0

>  <SCORE.SYSTEM>
0

>  <SCORE.SYSTEM.CONST>
0

>  <SCORE.SYSTEM.DIHEDRAL>
0

>  <SCORE.SYSTEM.SOLV>
0

>  <SCORE.SYSTEM.norm>
0

>  <SCORE.heavy>
31

>  <SCORE.norm>
-1.02842

>  <RMSD>
6.089

$$$$
lig.pdb
 OpenBabel11021811453D
libRbt.so/2013.1/901 2013/11/27
 31 33  0  0  0  0  0  0  0  0999 V2000
    3.1209    4.9562    2.9542 O   0  0  0  0  0  0  0  0  0  0  0  0
    2.8389    4.8890    1.5700 C   0  0  0  0  0  0  0  0  0  0  0  0
    1.3429    4.6632    1.3125 C   0  0  1  0  0  0  0  0  0  0  0  0
    1.0650    3.3162    0.9640 O   0  0  0  0  0  0  0  0  0  0  0  0
   -0.2778    2.9980    1.3164 C   0  0  1  0  0  0  0  0  0  0  0  0
   -0.3130    1.7589    2.0144 O   0  0  0  0  0  0  0  0  0  0  0  0
   -0.4961    0.5846    1.2396 C   0  0  2  0  0  0  0  0  0  0  0  0
   -1.8322    0.7209    0.4923 C   0  0  1  0  0  0  0  0  0  0  0  0
   -1.7225    1.7254   -0.5038 O   0  0  0  0  0  0  0  0  0  0  0  0
   -2.2934   -0.5672   -0.2063 C   0  0  2  0  0  0  0  0  0  0  0  0
   -3.6204   -0.3911   -0.8164 N   0  0  0  0  0  0  0  0  0  0  0  0
   -2.3463   -1.7085    0.8024 C   0  0  0  0  0  0  0  0  0  0  0  0
   -0.9850   -1.8682    1.4683 C   0  0  2  0  0  0  0  0  0  0  0  0
   -1.0497   -3.0060    2.3919 N   0  0  0  0  0  0  0  0  0  0  0  0
   -0.5845   -0.5645    2.1920 C   0  0  1  0  0  0  0  0  0  0  0  0
    0.6926   -0.8345    2.7899 O   0  0  0  0  0  0  0  0  0  0  0  0
    1.2033    0.1368    3.6968 C   0  0  1  0  0  0  0  0  0  0  0  0
    0.4317    0.1617    4.8946 O   0  0  0  0  0  0  0  0  0  0  0  0
    0.5352   -0.9856    5.7351 C   0  0  2  0  0  0  0  0  0  0  0  0
   -0.3557   -0.7806    6.9676 C   0  0  0  0  0  0  0  0  0  0  0  0
   -0.8109   -2.0486    7.5197 N   0  0  0  0  0  0  0  0  0  0  0  0
    1.9931   -1.2118    6.1766 C   0  0  1  0  0  0  0  0  0  0  0  0
    2.0791   -2.3882    6.9610 O   0  0  0  0  0  0  0  0  0  0  0  0
    2.8707   -1.3525    4.9267 C   0  0  2  0  0  0  0  0  0  0  0  0
    4.2309   -1.4742    5.2982 O   0  0  0  0  0  0  0  0  0  0  0  0
    2.6798   -0.1502    3.9922 C   0  0  1  0  0  0  0  0  0  0  0  0
    3.4265   -0.3578    2.7433 N   0  0  0  0  0  0  0  0  0  0  0  0
   -0.7736    4.1212    2.2388 C   0  0  2  0  0  0  0  0  0  0  0  0
   -1.7286    4.9145    1.5590 O   0  0  0  0  0  0  0  0  0  0  0  0
    0.5106    4.8788    2.5724 C   0  0  2  0  0  0  0  0  0  0  0  0
    0.3013    6.2405    2.8903 O   0  0  0  0  0  0  0  0  0  0  0  0
  2  1  1  0  0  0  0
  3  2  1  1  0  0  0
  3 30  1  0  0  0  0
  4  5  1  0  0  0  0
  4  3  1  0  0  0  0
  5 28  1  0  0  0  0
  5  6  1  1  0  0  0
  7  6  1  1  0  0  0
  8  7  1  0  0  0  0
  8  9  1  6  0  0  0
 10 11  1  1  0  0  0
 10  8  1  0  0  0  0
 12 10  1  0  0  0  0
 13 12  1  0  0  0  0
 13 15  1  0  0  0  0
 13 14  1  1  0  0  0
 15  7  1  0  0  0  0
 15 16  1  6  0  0  0
 17 16  1  6  0  0  0
 18 17  1  0  0  0  0
 19 20  1  1  0  0  0
 19 18  1  0  0  0  0
 20 21  1  0  0  0  0
 22 24  1  0  0  0  0
 22 19  1  0  0  0  0
 22 23  1  1  0  0  0
 24 25  1  1  0  0  0
 24 26  1  0  0  0  0
 26 17  1  0  0  0  0
 26 27  1  6  0  0  0
 28 29  1  6  0  0  0
 28 30  1  0  0  0  0
 30 31  1  6  0  0  0
M  END
>  <CHROM.1>
-69.42675939,-102.61234499,-91.14026954,-59.27500282,58.62206890,74.01378410
60.93873357,68.64376721,69.17859494,152.78749420,66.17697966,178.38851769
-178.10888929,158.11165599,43.41823185,-158.13389238,0.33733106,0.84959331
2.86178271,-1.87562842,0.77682528,2.69534089

>  <Name>
lig.pdb

>  <RI>
9.20816e+06

>  <Rbt.Current_Directory>
/home/itssahil/PROJECTS/Mol_Feturizer/New_Systems/rnas/2n0j

>  <Rbt.Executable>
rbdock ($Id: //depot/dev/client3/rdock/2013.1/src/exe/rbdock.cxx#4 $)

>  <Rbt.Library>
libRbt.so (2013.1, Build901 2013/11/27)

>  <Rbt.Parameter_File>
/export/apps/rDock/src/rDock_2013.1_src/data/scripts/dock_solv.prm

>  <Rbt.Receptor>
prm/blind_docking_100.prm

>  <SCORE>
-33.6977

>  <SCORE.INTER>
-36.2065

>  <SCORE.INTER.CONST>
1

>  <SCORE.INTER.POLAR>
-5.23959

>  <SCORE.INTER.ROT>
6

>  <SCORE.INTER.SOLV>
25.1226

>  <SCORE.INTER.VDW>
-22.6466

>  <SCORE.INTER.norm>
-1.16795

>  <SCORE.INTRA>
1.73862

>  <SCORE.INTRA.DIHEDRAL>
-11.2279

>  <SCORE.INTRA.DIHEDRAL.0>
28.0161

>  <SCORE.INTRA.POLAR>
0.802902

>  <SCORE.INTRA.POLAR.0>
-1.05798

>  <SCORE.INTRA.REPUL>
0

>  <SCORE.INTRA.REPUL.0>
0

>  <SCORE.INTRA.SOLV>
0.574168

>  <SCORE.INTRA.SOLV.lig_0>
-42.5945

>  <SCORE.INTRA.VDW>
4.33562

>  <SCORE.INTRA.VDW.0>
-5.13869

>  <SCORE.INTRA.norm>
0.0560847

>  <SCORE.RESTR>
0.770153

>  <SCORE.RESTR.CAVITY>
0.770153

>  <SCORE.RESTR.norm>
0.0248436

>  <SCORE.SYSTEM>
0

>  <SCORE.SYSTEM.CONST>
0

>  <SCORE.SYSTEM.DIHEDRAL>
0

>  <SCORE.SYSTEM.SOLV>
0

>  <SCORE.SYSTEM.norm>
0

>  <SCORE.heavy>
31

>  <SCORE.norm>
-1.08702

>  <RMSD>
6.091

$$$$
lig.pdb
 OpenBabel11021811453D
libRbt.so/2013.1/901 2013/11/27
 31 33  0  0  0  0  0  0  0  0999 V2000
    3.5103    2.9903    2.5143 O   0  0  0  0  0  0  0  0  0  0  0  0
    3.1679    4.1856    1.8405 C   0  0  0  0  0  0  0  0  0  0  0  0
    1.6985    4.1790    1.3977 C   0  0  1  0  0  0  0  0  0  0  0  0
    1.2514    2.8724    1.0723 O   0  0  0  0  0  0  0  0  0  0  0  0
   -0.1583    2.7889    1.2577 C   0  0  1  0  0  0  0  0  0  0  0  0
   -0.4795    1.6162    1.9962 O   0  0  0  0  0  0  0  0  0  0  0  0
   -0.6255    0.4099    1.2638 C   0  0  2  0  0  0  0  0  0  0  0  0
   -1.9418    0.4980    0.4753 C   0  0  1  0  0  0  0  0  0  0  0  0
   -1.8173    1.4640   -0.5565 O   0  0  0  0  0  0  0  0  0  0  0  0
   -2.3665   -0.8230   -0.1841 C   0  0  2  0  0  0  0  0  0  0  0  0
   -3.6781   -0.6896   -0.8370 N   0  0  0  0  0  0  0  0  0  0  0  0
   -2.4328   -1.9244    0.8673 C   0  0  0  0  0  0  0  0  0  0  0  0
   -1.0888   -2.0386    1.5761 C   0  0  2  0  0  0  0  0  0  0  0  0
   -1.1646   -3.1401    2.5419 N   0  0  0  0  0  0  0  0  0  0  0  0
   -0.7257   -0.7020    2.2583 C   0  0  1  0  0  0  0  0  0  0  0  0
    0.5376   -0.9303    2.9013 O   0  0  0  0  0  0  0  0  0  0  0  0
    1.0753    0.1377    3.6738 C   0  0  1  0  0  0  0  0  0  0  0  0
    0.4664    0.1838    4.9614 O   0  0  0  0  0  0  0  0  0  0  0  0
    0.7772   -0.8918    5.8446 C   0  0  2  0  0  0  0  0  0  0  0  0
    0.0394   -0.6737    7.1722 C   0  0  0  0  0  0  0  0  0  0  0  0
   -1.4010   -0.8183    7.0177 N   0  0  0  0  0  0  0  0  0  0  0  0
    2.2942   -0.9722    6.0975 C   0  0  1  0  0  0  0  0  0  0  0  0
    2.5830   -2.0819    6.9292 O   0  0  0  0  0  0  0  0  0  0  0  0
    3.0111   -1.1287    4.7507 C   0  0  2  0  0  0  0  0  0  0  0  0
    4.4134   -1.1176    4.9416 O   0  0  0  0  0  0  0  0  0  0  0  0
    2.5970   -0.0117    3.7832 C   0  0  1  0  0  0  0  0  0  0  0  0
    3.1905   -0.2449    2.4589 N   0  0  0  0  0  0  0  0  0  0  0  0
   -0.5758    4.0307    2.0589 C   0  0  2  0  0  0  0  0  0  0  0  0
   -1.2985    4.9186    1.2266 O   0  0  0  0  0  0  0  0  0  0  0  0
    0.7630    4.5992    2.5269 C   0  0  2  0  0  0  0  0  0  0  0  0
    0.7391    5.9941    2.7571 O   0  0  0  0  0  0  0  0  0  0  0  0
  2  1  1  0  0  0  0
  3  2  1  1  0  0  0
  3 30  1  0  0  0  0
  4  5  1  0  0  0  0
  4  3  1  0  0  0  0
  5 28  1  0  0  0  0
  5  6  1  1  0  0  0
  7  6  1  1  0  0  0
  8  7  1  0  0  0  0
  8  9  1  6  0  0  0
 10 11  1  1  0  0  0
 10  8  1  0  0  0  0
 12 10  1  0  0  0  0
 13 12  1  0  0  0  0
 13 15  1  0  0  0  0
 13 14  1  1  0  0  0
 15  7  1  0  0  0  0
 15 16  1  6  0  0  0
 17 16  1  6  0  0  0
 18 17  1  0  0  0  0
 19 20  1  1  0  0  0
 19 18  1  0  0  0  0
 20 21  1  0  0  0  0
 22 24  1  0  0  0  0
 22 19  1  0  0  0  0
 22 23  1  1  0  0  0
 24 25  1  1  0  0  0
 24 26  1  0  0  0  0
 26 17  1  0  0  0  0
 26 27  1  6  0  0  0
 28 29  1  6  0  0  0
 28 30  1  0  0  0  0
 30 31  1  6  0  0  0
M  END
>  <CHROM.1>
-39.81542177,-32.49233857,-85.18562742,-72.20856876,-86.74993674,65.05745984
-60.77858365,62.39025515,80.49304864,68.21468483,-52.34075838,-58.82110191
80.02932339,-77.18505630,58.75377164,74.72719846,0.39947784,0.73231498,2.80452014
-2.06022307,0.72314876,2.63037518

>  <Name>
lig.pdb

>  <RI>
9.20816e+06

>  <Rbt.Current_Directory>
/home/itssahil/PROJECTS/Mol_Feturizer/New_Systems/rnas/2n0j

>  <Rbt.Executable>
rbdock ($Id: //depot/dev/client3/rdock/2013.1/src/exe/rbdock.cxx#4 $)

>  <Rbt.Library>
libRbt.so (2013.1, Build901 2013/11/27)

>  <Rbt.Parameter_File>
/export/apps/rDock/src/rDock_2013.1_src/data/scripts/dock_solv.prm

>  <Rbt.Receptor>
prm/blind_docking_100.prm

>  <SCORE>
-39.3927

>  <SCORE.INTER>
-40.7099

>  <SCORE.INTER.CONST>
1

>  <SCORE.INTER.POLAR>
-5.77878

>  <SCORE.INTER.ROT>
6

>  <SCORE.INTER.SOLV>
22.9528

>  <SCORE.INTER.VDW>
-23.1283

>  <SCORE.INTER.norm>
-1.31322

>  <SCORE.INTRA>
0.552505

>  <SCORE.INTRA.DIHEDRAL>
-11.3352

>  <SCORE.INTRA.DIHEDRAL.0>
28.0161

>  <SCORE.INTRA.POLAR>
0.952794

>  <SCORE.INTRA.POLAR.0>
-1.05798

>  <SCORE.INTRA.REPUL>
0.0663969

>  <SCORE.INTRA.REPUL.0>
0

>  <SCORE.INTRA.SOLV>
0.559654

>  <SCORE.INTRA.SOLV.lig_0>
-42.5945

>  <SCORE.INTRA.VDW>
2.36878

>  <SCORE.INTRA.VDW.0>
-5.13869

>  <SCORE.INTRA.norm>
0.0178228

>  <SCORE.RESTR>
0.764704

>  <SCORE.RESTR.CAVITY>
0.764704

>  <SCORE.RESTR.norm>
0.0246679

>  <SCORE.SYSTEM>
0

>  <SCORE.SYSTEM.CONST>
0

>  <SCORE.SYSTEM.DIHEDRAL>
0

>  <SCORE.SYSTEM.SOLV>
0

>  <SCORE.SYSTEM.norm>
0

>  <SCORE.heavy>
31

>  <SCORE.norm>
-1.27073

>  <RMSD>
6.092

$$$$
lig.pdb
 OpenBabel11021811453D
libRbt.so/2013.1/901 2013/11/27
 31 33  0  0  0  0  0  0  0  0999 V2000
    2.1014    6.7191    0.5560 O   0  0  0  0  0  0  0  0  0  0  0  0
    1.9920    6.0131    1.7766 C   0  0  0  0  0  0  0  0  0  0  0  0
    0.8697    4.9679    1.7216 C   0  0  1  0  0  0  0  0  0  0  0  0
    1.1652    3.9240    0.8073 O   0  0  0  0  0  0  0  0  0  0  0  0
    0.4768    2.7389    1.1951 C   0  0  1  0  0  0  0  0  0  0  0  0
    1.3716    1.6331    1.1767 O   0  0  0  0  0  0  0  0  0  0  0  0
    0.8131    0.3527    0.9286 C   0  0  2  0  0  0  0  0  0  0  0  0
   -0.5024    0.5572    0.1606 C   0  0  1  0  0  0  0  0  0  0  0  0
   -0.2233    1.0236   -1.1501 O   0  0  0  0  0  0  0  0  0  0  0  0
   -1.3511   -0.7158    0.0217 C   0  0  2  0  0  0  0  0  0  0  0  0
   -2.6346   -0.4259   -0.6360 N   0  0  0  0  0  0  0  0  0  0  0  0
   -1.6107   -1.3135    1.3995 C   0  0  0  0  0  0  0  0  0  0  0  0
   -0.2848   -1.5770    2.1027 C   0  0  2  0  0  0  0  0  0  0  0  0
   -0.5627   -2.2012    3.4007 N   0  0  0  0  0  0  0  0  0  0  0  0
    0.5120   -0.2636    2.2571 C   0  0  1  0  0  0  0  0  0  0  0  0
    1.7217   -0.6268    2.9399 O   0  0  0  0  0  0  0  0  0  0  0  0
    2.1008    0.1697    4.0572 C   0  0  1  0  0  0  0  0  0  0  0  0
    0.9505    0.6936    4.7152 O   0  0  0  0  0  0  0  0  0  0  0  0
    0.1304   -0.2514    5.3993 C   0  0  2  0  0  0  0  0  0  0  0  0
   -1.0495    0.4888    6.0433 C   0  0  0  0  0  0  0  0  0  0  0  0
   -2.2509   -0.3331    6.0694 N   0  0  0  0  0  0  0  0  0  0  0  0
    0.9355   -0.9928    6.4827 C   0  0  1  0  0  0  0  0  0  0  0  0
    0.1163   -1.9652    7.1070 O   0  0  0  0  0  0  0  0  0  0  0  0
    2.1415   -1.6725    5.8223 C   0  0  2  0  0  0  0  0  0  0  0  0
    2.9507   -2.2902    6.8055 O   0  0  0  0  0  0  0  0  0  0  0  0
    2.9634   -0.6561    5.0183 C   0  0  1  0  0  0  0  0  0  0  0  0
    4.0399   -1.3412    4.2887 N   0  0  0  0  0  0  0  0  0  0  0  0
   -0.0286    2.9667    2.6272 C   0  0  2  0  0  0  0  0  0  0  0  0
   -1.4362    3.1155    2.6217 O   0  0  0  0  0  0  0  0  0  0  0  0
    0.7094    4.2359    3.0503 C   0  0  2  0  0  0  0  0  0  0  0  0
    0.0290    4.9875    4.0358 O   0  0  0  0  0  0  0  0  0  0  0  0
  2  1  1  0  0  0  0
  3  2  1  1  0  0  0
  3 30  1  0  0  0  0
  4  5  1  0  0  0  0
  4  3  1  0  0  0  0
  5 28  1  0  0  0  0
  5  6  1  1  0  0  0
  7  6  1  1  0  0  0
  8  7  1  0  0  0  0
  8  9  1  6  0  0  0
 10 11  1  1  0  0  0
 10  8  1  0  0  0  0
 12 10  1  0  0  0  0
 13 12  1  0  0  0  0
 13 15  1  0  0  0  0
 13 14  1  1  0  0  0
 15  7  1  0  0  0  0
 15 16  1  6  0  0  0
 17 16  1  6  0  0  0
 18 17  1  0  0  0  0
 19 20  1  1  0  0  0
 19 18  1  0  0  0  0
 20 21  1  0  0  0  0
 22 24  1  0  0  0  0
 22 19  1  0  0  0  0
 22 23  1  6  0  0  0
 24 25  1  1  0  0  0
 24 26  1  0  0  0  0
 26 17  1  0  0  0  0
 26 27  1  6  0  0  0
 28 29  1  6  0  0  0
 28 30  1  0  0  0  0
 30 31  1  1  0  0  0
M  END
>  <CHROM.1>
62.11378924,66.75425920,-151.94555434,24.04987047,-57.50193565,-54.40944430
61.88381263,107.52043374,30.87579198,147.03558408,168.76811881,-68.60191220
68.06274283,-160.97291004,-58.38427704,179.83927842,0.50312625,0.90494708
3.00870807,-1.69031197,1.04063208,2.55682045

>  <Name>
lig.pdb

>  <RI>
1.55206e+07

>  <Rbt.Current_Directory>
/home/itssahil/PROJECTS/Mol_Feturizer/New_Systems/rnas/2n0j

>  <Rbt.Executable>
rbdock ($Id: //depot/dev/client3/rdock/2013.1/src/exe/rbdock.cxx#4 $)

>  <Rbt.Library>
libRbt.so (2013.1, Build901 2013/11/27)

>  <Rbt.Parameter_File>
/export/apps/rDock/src/rDock_2013.1_src/data/scripts/dock_solv.prm

>  <Rbt.Receptor>
prm/blind_docking_80.prm

>  <SCORE>
-13.9105

>  <SCORE.INTER>
-23.134

>  <SCORE.INTER.CONST>
1

>  <SCORE.INTER.POLAR>
-3.33295

>  <SCORE.INTER.ROT>
6

>  <SCORE.INTER.SOLV>
22.7422

>  <SCORE.INTER.VDW>
-19.4935

>  <SCORE.INTER.norm>
-0.746257

>  <SCORE.INTRA>
6.2003

>  <SCORE.INTRA.DIHEDRAL>
-4.68275

>  <SCORE.INTRA.DIHEDRAL.0>
28.0161

>  <SCORE.INTRA.POLAR>
0.941754

>  <SCORE.INTRA.POLAR.0>
-1.05798

>  <SCORE.INTRA.REPUL>
0

>  <SCORE.INTRA.REPUL.0>
0

>  <SCORE.INTRA.SOLV>
1.17898

>  <SCORE.INTRA.SOLV.lig_0>
-42.5945

>  <SCORE.INTRA.VDW>
4.75022

>  <SCORE.INTRA.VDW.0>
-5.13869

>  <SCORE.INTRA.norm>
0.20001

>  <SCORE.RESTR>
3.02321

>  <SCORE.RESTR.CAVITY>
3.02321

>  <SCORE.RESTR.norm>
0.097523

>  <SCORE.SYSTEM>
0

>  <SCORE.SYSTEM.CONST>
0

>  <SCORE.SYSTEM.DIHEDRAL>
0

>  <SCORE.SYSTEM.SOLV>
0

>  <SCORE.SYSTEM.norm>
0

>  <SCORE.heavy>
31

>  <SCORE.norm>
-0.448724

>  <RMSD>
6.097

$$$$
lig.pdb
 OpenBabel11021811453D
libRbt.so/2013.1/901 2013/11/27
 31 33  0  0  0  0  0  0  0  0999 V2000
    3.6259    3.4256    2.4865 O   0  0  0  0  0  0  0  0  0  0  0  0
    3.2106    4.5030    1.6699 C   0  0  0  0  0  0  0  0  0  0  0  0
    1.7051    4.4387    1.3790 C   0  0  1  0  0  0  0  0  0  0  0  0
    1.2886    3.1251    1.0415 O   0  0  0  0  0  0  0  0  0  0  0  0
   -0.0888    2.9618    1.3653 C   0  0  1  0  0  0  0  0  0  0  0  0
   -0.2760    1.7451    2.0783 O   0  0  0  0  0  0  0  0  0  0  0  0
   -0.4062    0.5588    1.3111 C   0  0  2  0  0  0  0  0  0  0  0  0
   -1.6709    0.6961    0.4486 C   0  0  1  0  0  0  0  0  0  0  0  0
   -1.4628    1.6808   -0.5516 O   0  0  0  0  0  0  0  0  0  0  0  0
   -2.0863   -0.5995   -0.2648 C   0  0  2  0  0  0  0  0  0  0  0  0
   -3.3532   -0.4199   -0.9906 N   0  0  0  0  0  0  0  0  0  0  0  0
   -2.2406   -1.7213    0.7553 C   0  0  0  0  0  0  0  0  0  0  0  0
   -0.9441   -1.8838    1.5393 C   0  0  2  0  0  0  0  0  0  0  0  0
   -1.1028   -3.0036    2.4734 N   0  0  0  0  0  0  0  0  0  0  0  0
   -0.5912   -0.5715    2.2722 C   0  0  1  0  0  0  0  0  0  0  0  0
    0.6259   -0.8446    2.9831 O   0  0  0  0  0  0  0  0  0  0  0  0
    1.1967    0.2257    3.7282 C   0  0  1  0  0  0  0  0  0  0  0  0
    0.5541    0.3571    4.9933 O   0  0  0  0  0  0  0  0  0  0  0  0
    0.7821   -0.6951    5.9284 C   0  0  2  0  0  0  0  0  0  0  0  0
    0.0187   -0.3838    7.2227 C   0  0  0  0  0  0  0  0  0  0  0  0
   -0.7905   -1.5141    7.6556 N   0  0  0  0  0  0  0  0  0  0  0  0
    2.2847   -0.8430    6.2315 C   0  0  1  0  0  0  0  0  0  0  0  0
    2.4903   -1.9303    7.1158 O   0  0  0  0  0  0  0  0  0  0  0  0
    3.0310   -1.0925    4.9150 C   0  0  2  0  0  0  0  0  0  0  0  0
    4.4258   -1.1458    5.1488 O   0  0  0  0  0  0  0  0  0  0  0  0
    2.7046    0.0027    3.8908 C   0  0  1  0  0  0  0  0  0  0  0  0
    3.3230   -0.3160    2.5961 N   0  0  0  0  0  0  0  0  0  0  0  0
   -0.4787    4.1469    2.2606 C   0  0  2  0  0  0  0  0  0  0  0  0
   -1.3249    5.0295    1.5475 O   0  0  0  0  0  0  0  0  0  0  0  0
    0.8731    4.7641    2.6155 C   0  0  2  0  0  0  0  0  0  0  0  0
    0.8078    6.1454    2.9103 O   0  0  0  0  0  0  0  0  0  0  0  0
  2  1  1  0  0  0  0
  3  2  1  1  0  0  0
  3 30  1  0  0  0  0
  4  5  1  0  0  0  0
  4  3  1  0  0  0  0
  5 28  1  0  0  0  0
  5  6  1  1  0  0  0
  7  6  1  1  0  0  0
  8  7  1  0  0  0  0
  8  9  1  6  0  0  0
 10 11  1  1  0  0  0
 10  8  1  0  0  0  0
 12 10  1  0  0  0  0
 13 12  1  0  0  0  0
 13 15  1  0  0  0  0
 13 14  1  1  0  0  0
 15  7  1  0  0  0  0
 15 16  1  6  0  0  0
 17 16  1  1  0  0  0
 18 17  1  0  0  0  0
 19 20  1  1  0  0  0
 19 18  1  0  0  0  0
 20 21  1  0  0  0  0
 22 24  1  0  0  0  0
 22 19  1  0  0  0  0
 22 23  1  1  0  0  0
 24 25  1  1  0  0  0
 24 26  1  0  0  0  0
 26 17  1  0  0  0  0
 26 27  1  6  0  0  0
 28 29  1  6  0  0  0
 28 30  1  0  0  0  0
 30 31  1  6  0  0  0
M  END
>  <CHROM.1>
176.70677206,-44.35975047,-83.62076709,-62.74575810,63.34085029,-60.43527844
59.12498422,57.67686229,81.62331869,129.50824628,-155.20544216,59.92335466
88.42561399,-78.29853904,-56.52936643,-159.50918746,0.53353390,0.85769124
2.87626552,-1.97547202,0.78368230,2.61729636

>  <Name>
lig.pdb

>  <RI>
1.79691e+07

>  <Rbt.Current_Directory>
/home/itssahil/PROJECTS/Mol_Feturizer/New_Systems/rnas/2n0j

>  <Rbt.Executable>
rbdock ($Id: //depot/dev/client3/rdock/2013.1/src/exe/rbdock.cxx#4 $)

>  <Rbt.Library>
libRbt.so (2013.1, Build901 2013/11/27)

>  <Rbt.Parameter_File>
/export/apps/rDock/src/rDock_2013.1_src/data/scripts/dock_solv.prm

>  <Rbt.Receptor>
prm/blind_docking_20.prm

>  <SCORE>
-40.0351

>  <SCORE.INTER>
-42.6062

>  <SCORE.INTER.CONST>
1

>  <SCORE.INTER.POLAR>
-5.67938

>  <SCORE.INTER.ROT>
6

>  <SCORE.INTER.SOLV>
24.0284

>  <SCORE.INTER.VDW>
-25.0823

>  <SCORE.INTER.norm>
-1.37439

>  <SCORE.INTRA>
1.85417

>  <SCORE.INTRA.DIHEDRAL>
-9.90741

>  <SCORE.INTRA.DIHEDRAL.0>
28.0161

>  <SCORE.INTRA.POLAR>
1.0569

>  <SCORE.INTRA.POLAR.0>
-1.05798

>  <SCORE.INTRA.REPUL>
0

>  <SCORE.INTRA.REPUL.0>
0

>  <SCORE.INTRA.SOLV>
0.471078

>  <SCORE.INTRA.SOLV.lig_0>
-42.5945

>  <SCORE.INTRA.VDW>
2.97888

>  <SCORE.INTRA.VDW.0>
-5.13869

>  <SCORE.INTRA.norm>
0.0598118

>  <SCORE.RESTR>
0.716942

>  <SCORE.RESTR.CAVITY>
0.716942

>  <SCORE.RESTR.norm>
0.0231272

>  <SCORE.SYSTEM>
0

>  <SCORE.SYSTEM.CONST>
0

>  <SCORE.SYSTEM.DIHEDRAL>
0

>  <SCORE.SYSTEM.SOLV>
0

>  <SCORE.SYSTEM.norm>
0

>  <SCORE.heavy>
31

>  <SCORE.norm>
-1.29145

>  <RMSD>
6.102

$$$$
lig.pdb
 OpenBabel11021811453D
libRbt.so/2013.1/901 2013/11/27
 31 33  0  0  0  0  0  0  0  0999 V2000
    4.3924    5.2089    2.2828 O   0  0  0  0  0  0  0  0  0  0  0  0
    3.7101    3.9928    2.0470 C   0  0  0  0  0  0  0  0  0  0  0  0
    2.2280    4.2334    1.7297 C   0  0  1  0  0  0  0  0  0  0  0  0
    1.5726    3.0390    1.3337 O   0  0  0  0  0  0  0  0  0  0  0  0
    0.1825    3.1354    1.6286 C   0  0  1  0  0  0  0  0  0  0  0  0
   -0.2538    1.9537    2.2896 O   0  0  0  0  0  0  0  0  0  0  0  0
   -0.4210    0.7911    1.4938 C   0  0  2  0  0  0  0  0  0  0  0  0
   -1.7886    0.8923    0.7997 C   0  0  1  0  0  0  0  0  0  0  0  0
   -1.7549    1.9228   -0.1751 O   0  0  0  0  0  0  0  0  0  0  0  0
   -2.2264   -0.3965    0.0874 C   0  0  2  0  0  0  0  0  0  0  0  0
   -3.5811   -0.2584   -0.4690 N   0  0  0  0  0  0  0  0  0  0  0  0
   -2.1976   -1.5618    1.0694 C   0  0  0  0  0  0  0  0  0  0  0  0
   -0.8071   -1.6834    1.6807 C   0  0  2  0  0  0  0  0  0  0  0  0
   -0.7935   -2.8437    2.5781 N   0  0  0  0  0  0  0  0  0  0  0  0
   -0.4296   -0.3820    2.4206 C   0  0  1  0  0  0  0  0  0  0  0  0
    0.8785   -0.6156    2.9644 O   0  0  0  0  0  0  0  0  0  0  0  0
    1.4311    0.4057    3.7879 C   0  0  1  0  0  0  0  0  0  0  0  0
    0.7479    0.4699    5.0368 O   0  0  0  0  0  0  0  0  0  0  0  0
    0.9381   -0.6358    5.9170 C   0  0  2  0  0  0  0  0  0  0  0  0
    0.1344   -0.3926    7.2014 C   0  0  0  0  0  0  0  0  0  0  0  0
   -1.2229   -0.9081    7.0928 N   0  0  0  0  0  0  0  0  0  0  0  0
    2.4290   -0.8131    6.2599 C   0  0  1  0  0  0  0  0  0  0  0  0
    2.5984   -1.9508    7.0867 O   0  0  0  0  0  0  0  0  0  0  0  0
    3.2168   -0.9932    4.9564 C   0  0  2  0  0  0  0  0  0  0  0  0
    4.6028   -1.0712    5.2321 O   0  0  0  0  0  0  0  0  0  0  0  0
    2.9313    0.1614    3.9866 C   0  0  1  0  0  0  0  0  0  0  0  0
    3.5902   -0.0880    2.6966 N   0  0  0  0  0  0  0  0  0  0  0  0
    0.0090    4.3409    2.5640 C   0  0  2  0  0  0  0  0  0  0  0  0
   -0.6330    5.3963    1.8731 O   0  0  0  0  0  0  0  0  0  0  0  0
    1.4462    4.6699    2.9647 C   0  0  2  0  0  0  0  0  0  0  0  0
    1.6431    6.0260    3.3131 O   0  0  0  0  0  0  0  0  0  0  0  0
  2  1  1  0  0  0  0
  3  2  1  1  0  0  0
  3 30  1  0  0  0  0
  4  5  1  0  0  0  0
  4  3  1  0  0  0  0
  5 28  1  0  0  0  0
  5  6  1  1  0  0  0
  7  6  1  1  0  0  0
  8  7  1  0  0  0  0
  8  9  1  6  0  0  0
 10 11  1  1  0  0  0
 10  8  1  0  0  0  0
 12 10  1  0  0  0  0
 13 12  1  0  0  0  0
 13 15  1  0  0  0  0
 13 14  1  1  0  0  0
 15  7  1  0  0  0  0
 15 16  1  6  0  0  0
 17 16  1  6  0  0  0
 18 17  1  0  0  0  0
 19 20  1  1  0  0  0
 19 18  1  0  0  0  0
 20 21  1  0  0  0  0
 22 24  1  0  0  0  0
 22 19  1  0  0  0  0
 22 23  1  1  0  0  0
 24 25  1  1  0  0  0
 24 26  1  0  0  0  0
 26 17  1  0  0  0  0
 26 27  1  6  0  0  0
 28 29  1  6  0  0  0
 28 30  1  0  0  0  0
 30 31  1  6  0  0  0
M  END
>  <CHROM.1>
71.98603811,172.87718219,-75.37328622,-81.15035800,-129.75858803,62.17777415
170.40330988,63.61058552,70.83818845,88.98428583,62.11372138,55.75896337
81.40702430,38.72726796,-166.33534996,169.06097551,0.73348702,1.04309390
3.03715804,-1.73432808,0.67648899,2.60952962

>  <Name>
lig.pdb

>  <RI>
0

>  <Rbt.Current_Directory>
/home/itssahil/PROJECTS/Mol_Feturizer/New_Systems/rnas/2n0j

>  <Rbt.Executable>
rbdock ($Id: //depot/dev/client3/rdock/2013.1/src/exe/rbdock.cxx#4 $)

>  <Rbt.Library>
libRbt.so (2013.1, Build901 2013/11/27)

>  <Rbt.Parameter_File>
/export/apps/rDock/src/rDock_2013.1_src/data/scripts/dock_solv.prm

>  <Rbt.Receptor>
prm/blind_docking_60.prm

>  <SCORE>
-40.6015

>  <SCORE.INTER>
-42.7387

>  <SCORE.INTER.CONST>
1

>  <SCORE.INTER.POLAR>
-6.29234

>  <SCORE.INTER.ROT>
6

>  <SCORE.INTER.SOLV>
23.1329

>  <SCORE.INTER.VDW>
-22.8289

>  <SCORE.INTER.norm>
-1.37867

>  <SCORE.INTRA>
0.0738978

>  <SCORE.INTRA.DIHEDRAL>
-9.16668

>  <SCORE.INTRA.DIHEDRAL.0>
28.0161

>  <SCORE.INTRA.POLAR>
1.05798

>  <SCORE.INTRA.POLAR.0>
-1.05798

>  <SCORE.INTRA.REPUL>
0

>  <SCORE.INTRA.REPUL.0>
0

>  <SCORE.INTRA.SOLV>
-0.296469

>  <SCORE.INTRA.SOLV.lig_0>
-42.5945

>  <SCORE.INTRA.VDW>
1.20832

>  <SCORE.INTRA.VDW.0>
-5.13869

>  <SCORE.INTRA.norm>
0.0023838

>  <SCORE.RESTR>
2.06322

>  <SCORE.RESTR.CAVITY>
2.06322

>  <SCORE.RESTR.norm>
0.0665554

>  <SCORE.SYSTEM>
0

>  <SCORE.SYSTEM.CONST>
0

>  <SCORE.SYSTEM.DIHEDRAL>
0

>  <SCORE.SYSTEM.SOLV>
0

>  <SCORE.SYSTEM.norm>
0

>  <SCORE.heavy>
31

>  <SCORE.norm>
-1.30973

>  <RMSD>
6.104

$$$$
lig.pdb
 OpenBabel11021811453D
libRbt.so/2013.1/901 2013/11/27
 31 33  0  0  0  0  0  0  0  0999 V2000
    4.0252    5.0497    2.6093 O   0  0  0  0  0  0  0  0  0  0  0  0
    3.4965    3.8774    2.0208 C   0  0  0  0  0  0  0  0  0  0  0  0
    2.0230    4.0599    1.6326 C   0  0  1  0  0  0  0  0  0  0  0  0
    1.4266    2.8354    1.2353 O   0  0  0  0  0  0  0  0  0  0  0  0
    0.0221    2.8901    1.4658 C   0  0  1  0  0  0  0  0  0  0  0  0
   -0.4039    1.7085    2.1337 O   0  0  0  0  0  0  0  0  0  0  0  0
   -0.5791    0.5447    1.3415 C   0  0  2  0  0  0  0  0  0  0  0  0
   -1.9165    0.6829    0.5969 C   0  0  1  0  0  0  0  0  0  0  0  0
   -1.8143    1.7029   -0.3842 O   0  0  0  0  0  0  0  0  0  0  0  0
   -2.3691   -0.5978   -0.1208 C   0  0  2  0  0  0  0  0  0  0  0  0
   -3.6976   -0.4218   -0.7277 N   0  0  0  0  0  0  0  0  0  0  0  0
   -2.4136   -1.7544    0.8707 C   0  0  0  0  0  0  0  0  0  0  0  0
   -1.0509   -1.9146    1.5337 C   0  0  2  0  0  0  0  0  0  0  0  0
   -1.1073   -3.0665    2.4401 N   0  0  0  0  0  0  0  0  0  0  0  0
   -0.6592   -0.6191    2.2766 C   0  0  1  0  0  0  0  0  0  0  0  0
    0.6201   -0.8892    2.8700 O   0  0  0  0  0  0  0  0  0  0  0  0
    1.1906    0.1352    3.6773 C   0  0  1  0  0  0  0  0  0  0  0  0
    0.5307    0.2084    4.9382 O   0  0  0  0  0  0  0  0  0  0  0  0
    0.7340   -0.8928    5.8210 C   0  0  2  0  0  0  0  0  0  0  0  0
   -0.0453   -0.6402    7.1185 C   0  0  0  0  0  0  0  0  0  0  0  0
   -1.4211   -0.2454    6.8520 N   0  0  0  0  0  0  0  0  0  0  0  0
    2.2304   -1.0724    6.1375 C   0  0  1  0  0  0  0  0  0  0  0  0
    2.4120   -2.2059    6.9675 O   0  0  0  0  0  0  0  0  0  0  0  0
    2.9937   -1.2621    4.8207 C   0  0  2  0  0  0  0  0  0  0  0  0
    4.3843   -1.3425    5.0714 O   0  0  0  0  0  0  0  0  0  0  0  0
    2.6935   -0.1122    3.8498 C   0  0  1  0  0  0  0  0  0  0  0  0
    3.3279   -0.3707    2.5493 N   0  0  0  0  0  0  0  0  0  0  0  0
   -0.2338    4.1087    2.3647 C   0  0  2  0  0  0  0  0  0  0  0  0
   -0.8789    5.1263    1.6219 O   0  0  0  0  0  0  0  0  0  0  0  0
    1.1720    4.4956    2.8212 C   0  0  2  0  0  0  0  0  0  0  0  0
    1.3075    5.8648    3.1468 O   0  0  0  0  0  0  0  0  0  0  0  0
  2  1  1  0  0  0  0
  3  2  1  1  0  0  0
  3 30  1  0  0  0  0
  4  5  1  0  0  0  0
  4  3  1  0  0  0  0
  5 28  1  0  0  0  0
  5  6  1  1  0  0  0
  7  6  1  1  0  0  0
  8  7  1  0  0  0  0
  8  9  1  6  0  0  0
 10 11  1  1  0  0  0
 10  8  1  0  0  0  0
 12 10  1  0  0  0  0
 13 12  1  0  0  0  0
 13 15  1  0  0  0  0
 13 14  1  1  0  0  0
 15  7  1  0  0  0  0
 15 16  1  6  0  0  0
 17 16  1  6  0  0  0
 18 17  1  0  0  0  0
 19 20  1  1  0  0  0
 19 18  1  0  0  0  0
 20 21  1  0  0  0  0
 22 24  1  0  0  0  0
 22 19  1  0  0  0  0
 22 23  1  1  0  0  0
 24 25  1  1  0  0  0
 24 26  1  0  0  0  0
 26 17  1  0  0  0  0
 26 27  1  6  0  0  0
 28 29  1  6  0  0  0
 28 30  1  0  0  0  0
 30 31  1  6  0  0  0
M  END
>  <CHROM.1>
-175.20994247,-170.88949803,-79.33575509,-77.71096853,-85.20151673,65.28393945
-177.62123762,62.03765088,74.84188622,48.95145643,-164.73857061,160.50251501
179.56650553,-82.74549954,173.71934621,-49.31980906,0.53036447,0.85228593
2.89901441,-1.84473497,0.70752817,2.63798045

>  <Name>
lig.pdb

>  <RI>
1.55206e+07

>  <Rbt.Current_Directory>
/home/itssahil/PROJECTS/Mol_Feturizer/New_Systems/rnas/2n0j

>  <Rbt.Executable>
rbdock ($Id: //depot/dev/client3/rdock/2013.1/src/exe/rbdock.cxx#4 $)

>  <Rbt.Library>
libRbt.so (2013.1, Build901 2013/11/27)

>  <Rbt.Parameter_File>
/export/apps/rDock/src/rDock_2013.1_src/data/scripts/dock_solv.prm

>  <Rbt.Receptor>
prm/blind_docking_80.prm

>  <SCORE>
-32.5962

>  <SCORE.INTER>
-30.2984

>  <SCORE.INTER.CONST>
1

>  <SCORE.INTER.POLAR>
-3.2971

>  <SCORE.INTER.ROT>
6

>  <SCORE.INTER.SOLV>
22.8191

>  <SCORE.INTER.VDW>
-24.415

>  <SCORE.INTER.norm>
-0.977367

>  <SCORE.INTRA>
-4.77105

>  <SCORE.INTRA.DIHEDRAL>
-15.7425

>  <SCORE.INTRA.DIHEDRAL.0>
28.0161

>  <SCORE.INTRA.POLAR>
0.269147

>  <SCORE.INTRA.POLAR.0>
-1.05798

>  <SCORE.INTRA.REPUL>
0

>  <SCORE.INTRA.REPUL.0>
0

>  <SCORE.INTRA.SOLV>
-0.0683812

>  <SCORE.INTRA.SOLV.lig_0>
-42.5945

>  <SCORE.INTRA.VDW>
2.21928

>  <SCORE.INTRA.VDW.0>
-5.13869

>  <SCORE.INTRA.norm>
-0.153905

>  <SCORE.RESTR>
2.47318

>  <SCORE.RESTR.CAVITY>
2.47318

>  <SCORE.RESTR.norm>
0.07978

>  <SCORE.SYSTEM>
0

>  <SCORE.SYSTEM.CONST>
0

>  <SCORE.SYSTEM.DIHEDRAL>
0

>  <SCORE.SYSTEM.SOLV>
0

>  <SCORE.SYSTEM.norm>
0

>  <SCORE.heavy>
31

>  <SCORE.norm>
-1.05149

>  <RMSD>
6.112

$$$$
lig.pdb
 OpenBabel11021811453D
libRbt.so/2013.1/901 2013/11/27
 31 33  0  0  0  0  0  0  0  0999 V2000
    3.7317    2.9687    2.3504 O   0  0  0  0  0  0  0  0  0  0  0  0
    3.3814    4.1891    1.7275 C   0  0  0  0  0  0  0  0  0  0  0  0
    1.8780    4.2537    1.4258 C   0  0  1  0  0  0  0  0  0  0  0  0
    1.3544    2.9816    1.0784 O   0  0  0  0  0  0  0  0  0  0  0  0
   -0.0342    2.9339    1.3917 C   0  0  1  0  0  0  0  0  0  0  0  0
   -0.3289    1.7340    2.0971 O   0  0  0  0  0  0  0  0  0  0  0  0
   -0.4921    0.5539    1.3267 C   0  0  2  0  0  0  0  0  0  0  0  0
   -1.8052    0.6874    0.5392 C   0  0  1  0  0  0  0  0  0  0  0  0
   -1.6634    1.6834   -0.4614 O   0  0  0  0  0  0  0  0  0  0  0  0
   -2.2490   -0.6053   -0.1624 C   0  0  2  0  0  0  0  0  0  0  0  0
   -3.5569   -0.4309   -0.8128 N   0  0  0  0  0  0  0  0  0  0  0  0
   -2.3347   -1.7382    0.8536 C   0  0  0  0  0  0  0  0  0  0  0  0
   -0.9941   -1.8957    1.5607 C   0  0  2  0  0  0  0  0  0  0  0  0
   -1.0891   -3.0258    2.4911 N   0  0  0  0  0  0  0  0  0  0  0  0
   -0.6117   -0.5872    2.2853 C   0  0  1  0  0  0  0  0  0  0  0  0
    0.6465   -0.8553    2.9229 O   0  0  0  0  0  0  0  0  0  0  0  0
    1.1716    0.1572    3.7747 C   0  0  1  0  0  0  0  0  0  0  0  0
    0.5561    0.1037    5.0589 O   0  0  0  0  0  0  0  0  0  0  0  0
    0.8716   -1.0314    5.8623 C   0  0  2  0  0  0  0  0  0  0  0  0
    0.1256   -0.9174    7.1984 C   0  0  0  0  0  0  0  0  0  0  0  0
    0.5130    0.2799    7.9308 N   0  0  0  0  0  0  0  0  0  0  0  0
    2.3880   -1.1182    6.1169 C   0  0  1  0  0  0  0  0  0  0  0  0
    2.6820   -2.2838    6.8663 O   0  0  0  0  0  0  0  0  0  0  0  0
    3.1127   -1.1696    4.7661 C   0  0  2  0  0  0  0  0  0  0  0  0
    4.5139   -1.1614    4.9649 O   0  0  0  0  0  0  0  0  0  0  0  0
    2.6939    0.0122    3.8811 C   0  0  1  0  0  0  0  0  0  0  0  0
    3.2957   -0.1182    2.5465 N   0  0  0  0  0  0  0  0  0  0  0  0
   -0.3291    4.1435    2.2906 C   0  0  2  0  0  0  0  0  0  0  0  0
   -1.0924    5.0978    1.5763 O   0  0  0  0  0  0  0  0  0  0  0  0
    1.0674    4.6425    2.6581 C   0  0  2  0  0  0  0  0  0  0  0  0
    1.1169    6.0230    2.9598 O   0  0  0  0  0  0  0  0  0  0  0  0
  2  1  1  0  0  0  0
  3  2  1  1  0  0  0
  3 30  1  0  0  0  0
  4  5  1  0  0  0  0
  4  3  1  0  0  0  0
  5 28  1  0  0  0  0
  5  6  1  1  0  0  0
  7  6  1  1  0  0  0
  8  7  1  0  0  0  0
  8  9  1  6  0  0  0
 10 11  1  1  0  0  0
 10  8  1  0  0  0  0
 12 10  1  0  0  0  0
 13 12  1  0  0  0  0
 13 15  1  0  0  0  0
 13 14  1  1  0  0  0
 15  7  1  0  0  0  0
 15 16  1  6  0  0  0
 17 16  1  6  0  0  0
 18 17  1  0  0  0  0
 19 20  1  1  0  0  0
 19 18  1  0  0  0  0
 20 21  1  0  0  0  0
 22 24  1  0  0  0  0
 22 19  1  0  0  0  0
 22 23  1  1  0  0  0
 24 25  1  1  0  0  0
 24 26  1  0  0  0  0
 26 17  1  0  0  0  0
 26 27  1  6  0  0  0
 28 29  1  6  0  0  0
 28 30  1  0  0  0  0
 30 31  1  6  0  0  0
M  END
>  <CHROM.1>
78.59133860,-34.69554956,-80.77745355,-70.06070367,-169.98272287,81.63571129
60.68785894,64.97645707,80.85141070,-60.56359101,85.00789342,-48.94604769
75.49428206,162.06312082,-39.85598113,-170.55897809,0.61307264,0.82928373
2.88758882,-2.15072328,0.76806645,2.65837769

>  <Name>
lig.pdb

>  <RI>
1.55206e+07

>  <Rbt.Current_Directory>
/home/itssahil/PROJECTS/Mol_Feturizer/New_Systems/rnas/2n0j

>  <Rbt.Executable>
rbdock ($Id: //depot/dev/client3/rdock/2013.1/src/exe/rbdock.cxx#4 $)

>  <Rbt.Library>
libRbt.so (2013.1, Build901 2013/11/27)

>  <Rbt.Parameter_File>
/export/apps/rDock/src/rDock_2013.1_src/data/scripts/dock_solv.prm

>  <Rbt.Receptor>
prm/blind_docking_80.prm

>  <SCORE>
-37.9773

>  <SCORE.INTER>
-39.6575

>  <SCORE.INTER.CONST>
1

>  <SCORE.INTER.POLAR>
-5.26704

>  <SCORE.INTER.ROT>
6

>  <SCORE.INTER.SOLV>
23.9314

>  <SCORE.INTER.VDW>
-24.4587

>  <SCORE.INTER.norm>
-1.27927

>  <SCORE.INTRA>
1.13222

>  <SCORE.INTRA.DIHEDRAL>
-12.107

>  <SCORE.INTRA.DIHEDRAL.0>
28.0161

>  <SCORE.INTRA.POLAR>
1.05406

>  <SCORE.INTRA.POLAR.0>
-1.05798

>  <SCORE.INTRA.REPUL>
0

>  <SCORE.INTRA.REPUL.0>
0

>  <SCORE.INTRA.SOLV>
1.05429

>  <SCORE.INTRA.SOLV.lig_0>
-42.5945

>  <SCORE.INTRA.VDW>
3.07479

>  <SCORE.INTRA.VDW.0>
-5.13869

>  <SCORE.INTRA.norm>
0.0365233

>  <SCORE.RESTR>
0.547971

>  <SCORE.RESTR.CAVITY>
0.547971

>  <SCORE.RESTR.norm>
0.0176765

>  <SCORE.SYSTEM>
0

>  <SCORE.SYSTEM.CONST>
0

>  <SCORE.SYSTEM.DIHEDRAL>
0

>  <SCORE.SYSTEM.SOLV>
0

>  <SCORE.SYSTEM.norm>
0

>  <SCORE.heavy>
31

>  <SCORE.norm>
-1.22507

>  <RMSD>
6.113

$$$$
lig.pdb
 OpenBabel11021811453D
libRbt.so/2013.1/901 2013/11/27
 31 33  0  0  0  0  0  0  0  0999 V2000
   -1.0724   -0.1015   -0.3103 O   0  0  0  0  0  0  0  0  0  0  0  0
   -1.4542   -0.2004    1.0479 C   0  0  0  0  0  0  0  0  0  0  0  0
   -0.2302   -0.2716    1.9710 C   0  0  1  0  0  0  0  0  0  0  0  0
    0.5869    0.8823    1.8537 O   0  0  0  0  0  0  0  0  0  0  0  0
    1.3117    1.0805    3.0637 C   0  0  1  0  0  0  0  0  0  0  0  0
    1.2080    2.4395    3.4714 O   0  0  0  0  0  0  0  0  0  0  0  0
    1.6456    3.4266    2.5509 C   0  0  2  0  0  0  0  0  0  0  0  0
    3.1626    3.2582    2.3708 C   0  0  1  0  0  0  0  0  0  0  0  0
    3.4301    2.0533    1.6708 O   0  0  0  0  0  0  0  0  0  0  0  0
    3.8310    4.3992    1.5888 C   0  0  2  0  0  0  0  0  0  0  0  0
    5.2905    4.2215    1.5394 N   0  0  0  0  0  0  0  0  0  0  0  0
    3.5045    5.7342    2.2477 C   0  0  0  0  0  0  0  0  0  0  0  0
    1.9931    5.9049    2.3398 C   0  0  2  0  0  0  0  0  0  0  0  0
    1.7084    7.2189    2.9264 N   0  0  0  0  0  0  0  0  0  0  0  0
    1.3725    4.7601    3.1693 C   0  0  1  0  0  0  0  0  0  0  0  0
   -0.0371    5.0311    3.2025 O   0  0  0  0  0  0  0  0  0  0  0  0
   -0.9058    3.9250    3.4228 C   0  0  1  0  0  0  0  0  0  0  0  0
   -1.0147    3.6399    4.8147 O   0  0  0  0  0  0  0  0  0  0  0  0
   -1.7023    4.6078    5.6045 C   0  0  2  0  0  0  0  0  0  0  0  0
   -1.7221    4.1349    7.0642 C   0  0  0  0  0  0  0  0  0  0  0  0
   -1.8272    5.2528    7.9909 N   0  0  0  0  0  0  0  0  0  0  0  0
   -3.1440    4.8031    5.0995 C   0  0  1  0  0  0  0  0  0  0  0  0
   -3.7863    5.8097    5.8616 O   0  0  0  0  0  0  0  0  0  0  0  0
   -3.0976    5.2160    3.6231 C   0  0  2  0  0  0  0  0  0  0  0  0
   -4.4107    5.3183    3.1049 O   0  0  0  0  0  0  0  0  0  0  0  0
   -2.2793    4.2087    2.8041 C   0  0  1  0  0  0  0  0  0  0  0  0
   -2.1355    4.6816    1.4198 N   0  0  0  0  0  0  0  0  0  0  0  0
    0.6650    0.1759    4.1227 C   0  0  2  0  0  0  0  0  0  0  0  0
    1.5334   -0.8983    4.4318 O   0  0  0  0  0  0  0  0  0  0  0  0
   -0.6284   -0.2717    3.4435 C   0  0  2  0  0  0  0  0  0  0  0  0
   -1.1097   -1.5192    3.9030 O   0  0  0  0  0  0  0  0  0  0  0  0
  2  1  1  0  0  0  0
  3  2  1  6  0  0  0
  3 30  1  0  0  0  0
  4  5  1  0  0  0  0
  4  3  1  0  0  0  0
  5 28  1  0  0  0  0
  5  6  1  1  0  0  0
  7  6  1  1  0  0  0
  8  7  1  0  0  0  0
  8  9  1  6  0  0  0
 10 11  1  1  0  0  0
 10  8  1  0  0  0  0
 12 10  1  0  0  0  0
 13 12  1  0  0  0  0
 13 15  1  0  0  0  0
 13 14  1  1  0  0  0
 15  7  1  0  0  0  0
 15 16  1  6  0  0  0
 17 16  1  1  0  0  0
 18 17  1  0  0  0  0
 19 20  1  1  0  0  0
 19 18  1  0  0  0  0
 20 21  1  0  0  0  0
 22 24  1  0  0  0  0
 22 19  1  0  0  0  0
 22 23  1  1  0  0  0
 24 25  1  6  0  0  0
 24 26  1  0  0  0  0
 26 17  1  0  0  0  0
 26 27  1  6  0  0  0
 28 29  1  6  0  0  0
 28 30  1  0  0  0  0
 30 31  1  1  0  0  0
M  END
>  <CHROM.1>
-60.87855964,60.33033867,-57.31048869,-65.68764665,62.22656551,54.78430241
-110.41640645,35.05020781,83.01673937,153.80945253,164.17825408,177.24923781
65.91824863,-108.03096754,-66.17725567,175.12086373,0.00350617,3.19462040
3.27135424,0.68606121,-0.42566275,-2.91101289

>  <Name>
lig.pdb

>  <RI>
3.32461e+07

>  <Rbt.Current_Directory>
/home/itssahil/PROJECTS/Mol_Feturizer/New_Systems/rnas/2n0j

>  <Rbt.Executable>
rbdock ($Id: //depot/dev/client3/rdock/2013.1/src/exe/rbdock.cxx#4 $)

>  <Rbt.Library>
libRbt.so (2013.1, Build901 2013/11/27)

>  <Rbt.Parameter_File>
/export/apps/rDock/src/rDock_2013.1_src/data/scripts/dock_solv.prm

>  <Rbt.Receptor>
prm/pocket_docking_7.prm

>  <SCORE>
-38.6249

>  <SCORE.INTER>
-40.7248

>  <SCORE.INTER.CONST>
1

>  <SCORE.INTER.POLAR>
-4.50472

>  <SCORE.INTER.ROT>
6

>  <SCORE.INTER.SOLV>
18.2646

>  <SCORE.INTER.VDW>
-25.8224

>  <SCORE.INTER.norm>
-1.3137

>  <SCORE.INTRA>
2.09999

>  <SCORE.INTRA.DIHEDRAL>
-12.5911

>  <SCORE.INTRA.DIHEDRAL.0>
28.0161

>  <SCORE.INTRA.POLAR>
0.54222

>  <SCORE.INTRA.POLAR.0>
-1.05798

>  <SCORE.INTRA.REPUL>
0

>  <SCORE.INTRA.REPUL.0>
0

>  <SCORE.INTRA.SOLV>
-0.00622234

>  <SCORE.INTRA.SOLV.lig_0>
-42.5945

>  <SCORE.INTRA.VDW>
6.5551

>  <SCORE.INTRA.VDW.0>
-5.13869

>  <SCORE.INTRA.norm>
0.0677417

>  <SCORE.RESTR>
0

>  <SCORE.RESTR.CAVITY>
0

>  <SCORE.RESTR.norm>
0

>  <SCORE.SYSTEM>
0

>  <SCORE.SYSTEM.CONST>
0

>  <SCORE.SYSTEM.DIHEDRAL>
0

>  <SCORE.SYSTEM.SOLV>
0

>  <SCORE.SYSTEM.norm>
0

>  <SCORE.heavy>
31

>  <SCORE.norm>
-1.24596

>  <RMSD>
6.119

$$$$
lig.pdb
 OpenBabel11021811453D
libRbt.so/2013.1/901 2013/11/27
 31 33  0  0  0  0  0  0  0  0999 V2000
    4.1329    3.4989    0.4866 O   0  0  0  0  0  0  0  0  0  0  0  0
    3.6391    4.0568    1.6887 C   0  0  0  0  0  0  0  0  0  0  0  0
    2.1368    4.3552    1.5932 C   0  0  1  0  0  0  0  0  0  0  0  0
    1.4029    3.2286    1.1403 O   0  0  0  0  0  0  0  0  0  0  0  0
    0.0634    3.3063    1.6182 C   0  0  1  0  0  0  0  0  0  0  0  0
   -0.3220    2.0573    2.1797 O   0  0  0  0  0  0  0  0  0  0  0  0
   -0.4397    0.9572    1.2916 C   0  0  2  0  0  0  0  0  0  0  0  0
   -1.8843    0.9320    0.7673 C   0  0  1  0  0  0  0  0  0  0  0  0
   -2.0997    2.0391   -0.0937 O   0  0  0  0  0  0  0  0  0  0  0  0
   -2.2424   -0.3368   -0.0213 C   0  0  2  0  0  0  0  0  0  0  0  0
   -3.6620   -0.3359   -0.4072 N   0  0  0  0  0  0  0  0  0  0  0  0
   -1.9478   -1.5690    0.8259 C   0  0  0  0  0  0  0  0  0  0  0  0
   -0.4883   -1.5537    1.2638 C   0  0  2  0  0  0  0  0  0  0  0  0
   -0.2197   -2.7756    2.0296 N   0  0  0  0  0  0  0  0  0  0  0  0
   -0.1878   -0.2830    2.0877 C   0  0  1  0  0  0  0  0  0  0  0  0
    1.1963   -0.3834    2.4563 O   0  0  0  0  0  0  0  0  0  0  0  0
    1.6745    0.5297    3.4383 C   0  0  1  0  0  0  0  0  0  0  0  0
    0.7887    0.5789    4.5535 O   0  0  0  0  0  0  0  0  0  0  0  0
    0.7315   -0.5920    5.3653 C   0  0  2  0  0  0  0  0  0  0  0  0
   -0.2645   -0.3560    6.5085 C   0  0  0  0  0  0  0  0  0  0  0  0
   -0.5663   -1.5884    7.2226 N   0  0  0  0  0  0  0  0  0  0  0  0
    2.1193   -0.9268    5.9429 C   0  0  1  0  0  0  0  0  0  0  0  0
    2.0485   -2.1243    6.6962 O   0  0  0  0  0  0  0  0  0  0  0  0
    3.1081   -1.0975    4.7829 C   0  0  2  0  0  0  0  0  0  0  0  0
    4.4128   -1.3197    5.2843 O   0  0  0  0  0  0  0  0  0  0  0  0
    3.0916    0.1364    3.8706 C   0  0  1  0  0  0  0  0  0  0  0  0
    3.9460   -0.0921    2.6966 N   0  0  0  0  0  0  0  0  0  0  0  0
    0.0422    4.3877    2.7082 C   0  0  2  0  0  0  0  0  0  0  0  0
   -0.6494    5.5298    2.2382 O   0  0  0  0  0  0  0  0  0  0  0  0
    1.5269    4.6447    2.9611 C   0  0  2  0  0  0  0  0  0  0  0  0
    1.8049    5.9438    3.4449 O   0  0  0  0  0  0  0  0  0  0  0  0
  2  1  1  0  0  0  0
  3  2  1  1  0  0  0
  3 30  1  0  0  0  0
  4  5  1  0  0  0  0
  4  3  1  0  0  0  0
  5 28  1  0  0  0  0
  5  6  1  1  0  0  0
  7  6  1  1  0  0  0
  8  7  1  0  0  0  0
  8  9  1  6  0  0  0
 10 11  1  1  0  0  0
 10  8  1  0  0  0  0
 12 10  1  0  0  0  0
 13 12  1  0  0  0  0
 13 15  1  0  0  0  0
 13 14  1  1  0  0  0
 15  7  1  0  0  0  0
 15 16  1  6  0  0  0
 17 16  1  6  0  0  0
 18 17  1  0  0  0  0
 19 20  1  1  0  0  0
 19 18  1  0  0  0  0
 20 21  1  0  0  0  0
 22 24  1  0  0  0  0
 22 19  1  0  0  0  0
 22 23  1  6  0  0  0
 24 25  1  1  0  0  0
 24 26  1  0  0  0  0
 26 17  1  0  0  0  0
 26 27  1  6  0  0  0
 28 29  1  6  0  0  0
 28 30  1  0  0  0  0
 30 31  1  6  0  0  0
M  END
>  <CHROM.1>
-69.18275153,51.32288723,-66.85422728,-89.69784226,-64.01793465,65.77246642
22.26482227,70.97054705,47.57052998,168.98323039,177.44998423,178.00617906
-175.01902252,-84.82444181,-176.47826837,56.83284018,0.75381641,0.99046322
2.80451703,-1.79974041,0.65657673,2.62960660

>  <Name>
lig.pdb

>  <RI>
0

>  <Rbt.Current_Directory>
/home/itssahil/PROJECTS/Mol_Feturizer/New_Systems/rnas/2n0j

>  <Rbt.Executable>
rbdock ($Id: //depot/dev/client3/rdock/2013.1/src/exe/rbdock.cxx#4 $)

>  <Rbt.Library>
libRbt.so (2013.1, Build901 2013/11/27)

>  <Rbt.Parameter_File>
/export/apps/rDock/src/rDock_2013.1_src/data/scripts/dock_solv.prm

>  <Rbt.Receptor>
prm/blind_docking_60.prm

>  <SCORE>
-39.2333

>  <SCORE.INTER>
-35.1643

>  <SCORE.INTER.CONST>
1

>  <SCORE.INTER.POLAR>
-4.51008

>  <SCORE.INTER.ROT>
6

>  <SCORE.INTER.SOLV>
24.382

>  <SCORE.INTER.VDW>
-24.1366

>  <SCORE.INTER.norm>
-1.13433

>  <SCORE.INTRA>
-4.5187

>  <SCORE.INTRA.DIHEDRAL>
-17.228

>  <SCORE.INTRA.DIHEDRAL.0>
28.0161

>  <SCORE.INTRA.POLAR>
0.482706

>  <SCORE.INTRA.POLAR.0>
-1.05798

>  <SCORE.INTRA.REPUL>
0.0525759

>  <SCORE.INTRA.REPUL.0>
0

>  <SCORE.INTRA.SOLV>
0.0640329

>  <SCORE.INTRA.SOLV.lig_0>
-42.5945

>  <SCORE.INTRA.VDW>
2.1592

>  <SCORE.INTRA.VDW.0>
-5.13869

>  <SCORE.INTRA.norm>
-0.145764

>  <SCORE.RESTR>
0.449788

>  <SCORE.RESTR.CAVITY>
0.449788

>  <SCORE.RESTR.norm>
0.0145093

>  <SCORE.SYSTEM>
0

>  <SCORE.SYSTEM.CONST>
0

>  <SCORE.SYSTEM.DIHEDRAL>
0

>  <SCORE.SYSTEM.SOLV>
0

>  <SCORE.SYSTEM.norm>
0

>  <SCORE.heavy>
31

>  <SCORE.norm>
-1.26559

>  <RMSD>
6.120

$$$$
lig.pdb
 OpenBabel11021811453D
libRbt.so/2013.1/901 2013/11/27
 31 33  0  0  0  0  0  0  0  0999 V2000
   -3.1994    5.9867    5.2562 O   0  0  0  0  0  0  0  0  0  0  0  0
   -3.3341    5.3600    3.9955 C   0  0  0  0  0  0  0  0  0  0  0  0
   -2.1025    4.5089    3.6576 C   0  0  1  0  0  0  0  0  0  0  0  0
   -1.9433    3.4285    4.5634 O   0  0  0  0  0  0  0  0  0  0  0  0
   -1.2332    2.3708    3.9265 C   0  0  1  0  0  0  0  0  0  0  0  0
   -1.9004    1.1353    4.1550 O   0  0  0  0  0  0  0  0  0  0  0  0
   -1.0937   -0.0278    4.2511 C   0  0  2  0  0  0  0  0  0  0  0  0
   -0.1565    0.1512    5.4560 C   0  0  1  0  0  0  0  0  0  0  0  0
   -0.9081    0.0971    6.6584 O   0  0  0  0  0  0  0  0  0  0  0  0
    0.9447   -0.9151    5.5569 C   0  0  2  0  0  0  0  0  0  0  0  0
    1.8588   -0.6265    6.6728 N   0  0  0  0  0  0  0  0  0  0  0  0
    1.7342   -0.9638    4.2541 C   0  0  0  0  0  0  0  0  0  0  0  0
    0.7862   -1.2209    3.0891 C   0  0  2  0  0  0  0  0  0  0  0  0
    1.5779   -1.3172    1.8579 N   0  0  0  0  0  0  0  0  0  0  0  0
   -0.2746   -0.1024    3.0025 C   0  0  1  0  0  0  0  0  0  0  0  0
   -1.0932   -0.4368    1.8713 O   0  0  0  0  0  0  0  0  0  0  0  0
   -2.4960   -0.5370    2.0920 C   0  0  1  0  0  0  0  0  0  0  0  0
   -3.2152    0.1770    1.0902 O   0  0  0  0  0  0  0  0  0  0  0  0
   -3.1702   -0.3675   -0.2269 C   0  0  2  0  0  0  0  0  0  0  0  0
   -3.9955    0.5259   -1.1626 C   0  0  0  0  0  0  0  0  0  0  0  0
   -5.4202    0.4329   -0.8775 N   0  0  0  0  0  0  0  0  0  0  0  0
   -3.7304   -1.8019   -0.2464 C   0  0  1  0  0  0  0  0  0  0  0  0
   -3.6210   -2.3413   -1.5517 O   0  0  0  0  0  0  0  0  0  0  0  0
   -2.9279   -2.6582    0.7411 C   0  0  2  0  0  0  0  0  0  0  0  0
   -3.4750   -3.9616    0.8114 O   0  0  0  0  0  0  0  0  0  0  0  0
   -2.9141   -2.0112    2.1327 C   0  0  1  0  0  0  0  0  0  0  0  0
   -2.0386   -2.7726    3.0350 N   0  0  0  0  0  0  0  0  0  0  0  0
   -1.2281    2.6810    2.4225 C   0  0  2  0  0  0  0  0  0  0  0  0
    0.0746    3.0544    2.0137 O   0  0  0  0  0  0  0  0  0  0  0  0
   -2.2442    3.8161    2.3061 C   0  0  2  0  0  0  0  0  0  0  0  0
   -2.0186    4.6702    1.2021 O   0  0  0  0  0  0  0  0  0  0  0  0
  2  1  1  0  0  0  0
  3  2  1  1  0  0  0
  3 30  1  0  0  0  0
  4  5  1  0  0  0  0
  4  3  1  0  0  0  0
  5 28  1  0  0  0  0
  5  6  1  6  0  0  0
  7  6  1  6  0  0  0
  8  7  1  0  0  0  0
  8  9  1  1  0  0  0
 10 11  1  1  0  0  0
 10  8  1  0  0  0  0
 12 10  1  0  0  0  0
 13 12  1  0  0  0  0
 13 15  1  0  0  0  0
 13 14  1  6  0  0  0
 15  7  1  0  0  0  0
 15 16  1  6  0  0  0
 17 16  1  6  0  0  0
 18 17  1  0  0  0  0
 19 20  1  6  0  0  0
 19 18  1  0  0  0  0
 20 21  1  0  0  0  0
 22 24  1  0  0  0  0
 22 19  1  0  0  0  0
 22 23  1  6  0  0  0
 24 25  1  1  0  0  0
 24 26  1  0  0  0  0
 26 17  1  0  0  0  0
 26 27  1  1  0  0  0
 28 29  1  1  0  0  0
 28 30  1  0  0  0  0
 30 31  1  6  0  0  0
M  END
>  <CHROM.1>
-179.11381807,64.03358312,-147.65960211,61.84486970,67.76779268,-158.80619611
148.28434701,4.47886544,132.62629099,-69.55042024,24.12581395,-64.04365589
59.45328233,55.30800717,-179.91101657,-65.98065236,-1.71628093,0.53073997
2.63556791,1.10531354,-0.85242914,0.37262966

>  <Name>
lig.pdb

>  <RI>
3.32461e+07

>  <Rbt.Current_Directory>
/home/itssahil/PROJECTS/Mol_Feturizer/New_Systems/rnas/2n0j

>  <Rbt.Executable>
rbdock ($Id: //depot/dev/client3/rdock/2013.1/src/exe/rbdock.cxx#4 $)

>  <Rbt.Library>
libRbt.so (2013.1, Build901 2013/11/27)

>  <Rbt.Parameter_File>
/export/apps/rDock/src/rDock_2013.1_src/data/scripts/dock_solv.prm

>  <Rbt.Receptor>
prm/pocket_docking_7.prm

>  <SCORE>
-44.5515

>  <SCORE.INTER>
-53.2352

>  <SCORE.INTER.CONST>
1

>  <SCORE.INTER.POLAR>
-7.54802

>  <SCORE.INTER.ROT>
6

>  <SCORE.INTER.SOLV>
16.1981

>  <SCORE.INTER.VDW>
-23.3294

>  <SCORE.INTER.norm>
-1.71726

>  <SCORE.INTRA>
8.68367

>  <SCORE.INTRA.DIHEDRAL>
-3.77829

>  <SCORE.INTRA.DIHEDRAL.0>
28.0161

>  <SCORE.INTRA.POLAR>
1.05788

>  <SCORE.INTRA.POLAR.0>
-1.05798

>  <SCORE.INTRA.REPUL>
0

>  <SCORE.INTRA.REPUL.0>
0

>  <SCORE.INTRA.SOLV>
0.432554

>  <SCORE.INTRA.SOLV.lig_0>
-42.5945

>  <SCORE.INTRA.VDW>
6.75975

>  <SCORE.INTRA.VDW.0>
-5.13869

>  <SCORE.INTRA.norm>
0.280118

>  <SCORE.RESTR>
0

>  <SCORE.RESTR.CAVITY>
0

>  <SCORE.RESTR.norm>
0

>  <SCORE.SYSTEM>
0

>  <SCORE.SYSTEM.CONST>
0

>  <SCORE.SYSTEM.DIHEDRAL>
0

>  <SCORE.SYSTEM.SOLV>
0

>  <SCORE.SYSTEM.norm>
0

>  <SCORE.heavy>
31

>  <SCORE.norm>
-1.43714

>  <RMSD>
6.123

$$$$
lig.pdb
 OpenBabel11021811453D
libRbt.so/2013.1/901 2013/11/27
 31 33  0  0  0  0  0  0  0  0999 V2000
    4.1477    3.5485    0.8374 O   0  0  0  0  0  0  0  0  0  0  0  0
    3.4177    4.1168    1.9072 C   0  0  0  0  0  0  0  0  0  0  0  0
    1.9280    4.2484    1.5626 C   0  0  1  0  0  0  0  0  0  0  0  0
    1.3651    3.0058    1.1727 O   0  0  0  0  0  0  0  0  0  0  0  0
   -0.0333    3.0079    1.4437 C   0  0  1  0  0  0  0  0  0  0  0  0
   -0.3968    1.8069    2.1139 O   0  0  0  0  0  0  0  0  0  0  0  0
   -0.5448    0.6413    1.3188 C   0  0  2  0  0  0  0  0  0  0  0  0
   -1.8666    0.7680    0.5448 C   0  0  1  0  0  0  0  0  0  0  0  0
   -1.7513    1.7884   -0.4344 O   0  0  0  0  0  0  0  0  0  0  0  0
   -2.2926   -0.5167   -0.1819 C   0  0  2  0  0  0  0  0  0  0  0  0
   -3.6088   -0.3521   -0.8180 N   0  0  0  0  0  0  0  0  0  0  0  0
   -2.3493   -1.6733    0.8091 C   0  0  0  0  0  0  0  0  0  0  0  0
   -1.0003   -1.8218    1.5020 C   0  0  2  0  0  0  0  0  0  0  0  0
   -1.0670   -2.9738    2.4077 N   0  0  0  0  0  0  0  0  0  0  0  0
   -0.6358   -0.5228    2.2526 C   0  0  1  0  0  0  0  0  0  0  0  0
    0.6323   -0.7818    2.8742 O   0  0  0  0  0  0  0  0  0  0  0  0
    1.1959    0.2630    3.6598 C   0  0  1  0  0  0  0  0  0  0  0  0
    0.5667    0.3279    4.9368 O   0  0  0  0  0  0  0  0  0  0  0  0
    0.8218   -0.7612    5.8213 C   0  0  2  0  0  0  0  0  0  0  0  0
    0.0696   -0.5199    7.1368 C   0  0  0  0  0  0  0  0  0  0  0  0
   -1.3677   -0.6850    6.9731 N   0  0  0  0  0  0  0  0  0  0  0  0
    2.3301   -0.8989    6.1002 C   0  0  1  0  0  0  0  0  0  0  0  0
    2.5629   -2.0212    6.9326 O   0  0  0  0  0  0  0  0  0  0  0  0
    3.0641   -1.0779    4.7654 C   0  0  2  0  0  0  0  0  0  0  0  0
    4.4623   -1.1197    4.9807 O   0  0  0  0  0  0  0  0  0  0  0  0
    2.7087    0.0567    3.7951 C   0  0  1  0  0  0  0  0  0  0  0  0
    3.3162   -0.1944    2.4804 N   0  0  0  0  0  0  0  0  0  0  0  0
   -0.3070    4.2099    2.3592 C   0  0  2  0  0  0  0  0  0  0  0  0
   -1.0096    5.2087    1.6434 O   0  0  0  0  0  0  0  0  0  0  0  0
    1.0965    4.6445    2.7786 C   0  0  2  0  0  0  0  0  0  0  0  0
    1.1917    6.0154    3.1112 O   0  0  0  0  0  0  0  0  0  0  0  0
  2  1  1  0  0  0  0
  3  2  1  1  0  0  0
  3 30  1  0  0  0  0
  4  5  1  0  0  0  0
  4  3  1  0  0  0  0
  5 28  1  0  0  0  0
  5  6  1  1  0  0  0
  7  6  1  1  0  0  0
  8  7  1  0  0  0  0
  8  9  1  6  0  0  0
 10 11  1  1  0  0  0
 10  8  1  0  0  0  0
 12 10  1  0  0  0  0
 13 12  1  0  0  0  0
 13 15  1  0  0  0  0
 13 14  1  1  0  0  0
 15  7  1  0  0  0  0
 15 16  1  6  0  0  0
 17 16  1  6  0  0  0
 18 17  1  0  0  0  0
 19 20  1  1  0  0  0
 19 18  1  0  0  0  0
 20 21  1  0  0  0  0
 22 24  1  0  0  0  0
 22 19  1  0  0  0  0
 22 23  1  1  0  0  0
 24 25  1  1  0  0  0
 24 26  1  0  0  0  0
 26 17  1  0  0  0  0
 26 27  1  6  0  0  0
 28 29  1  6  0  0  0
 28 30  1  0  0  0  0
 30 31  1  6  0  0  0
M  END
>  <CHROM.1>
-66.88596538,55.37211135,-78.97047314,-74.54387176,67.01710349,73.45371757
62.53581526,60.15305705,78.12681527,71.46427903,80.12252792,-54.59841509
-176.71995052,159.46425322,-37.06047862,-171.13142220,0.54587402,0.89574694
2.79935801,-1.92210885,0.69168108,2.57908792

>  <Name>
lig.pdb

>  <RI>
9.20816e+06

>  <Rbt.Current_Directory>
/home/itssahil/PROJECTS/Mol_Feturizer/New_Systems/rnas/2n0j

>  <Rbt.Executable>
rbdock ($Id: //depot/dev/client3/rdock/2013.1/src/exe/rbdock.cxx#4 $)

>  <Rbt.Library>
libRbt.so (2013.1, Build901 2013/11/27)

>  <Rbt.Parameter_File>
/export/apps/rDock/src/rDock_2013.1_src/data/scripts/dock_solv.prm

>  <Rbt.Receptor>
prm/blind_docking_100.prm

>  <SCORE>
-43.211

>  <SCORE.INTER>
-41.2563

>  <SCORE.INTER.CONST>
1

>  <SCORE.INTER.POLAR>
-4.86283

>  <SCORE.INTER.ROT>
6

>  <SCORE.INTER.SOLV>
22.9573

>  <SCORE.INTER.VDW>
-26.5472

>  <SCORE.INTER.norm>
-1.33085

>  <SCORE.INTRA>
-2.47021

>  <SCORE.INTRA.DIHEDRAL>
-17.4081

>  <SCORE.INTRA.DIHEDRAL.0>
28.0161

>  <SCORE.INTRA.POLAR>
1.04965

>  <SCORE.INTRA.POLAR.0>
-1.05798

>  <SCORE.INTRA.REPUL>
0.0103357

>  <SCORE.INTRA.REPUL.0>
0

>  <SCORE.INTRA.SOLV>
-1.00375

>  <SCORE.INTRA.SOLV.lig_0>
-42.5945

>  <SCORE.INTRA.VDW>
3.11522

>  <SCORE.INTRA.VDW.0>
-5.13869

>  <SCORE.INTRA.norm>
-0.0796842

>  <SCORE.RESTR>
0.515603

>  <SCORE.RESTR.CAVITY>
0.515603

>  <SCORE.RESTR.norm>
0.0166323

>  <SCORE.SYSTEM>
0

>  <SCORE.SYSTEM.CONST>
0

>  <SCORE.SYSTEM.DIHEDRAL>
0

>  <SCORE.SYSTEM.SOLV>
0

>  <SCORE.SYSTEM.norm>
0

>  <SCORE.heavy>
31

>  <SCORE.norm>
-1.3939

>  <RMSD>
6.128

$$$$
lig.pdb
 OpenBabel11021811453D
libRbt.so/2013.1/901 2013/11/27
 31 33  0  0  0  0  0  0  0  0999 V2000
    1.5397    7.0021    2.1931 O   0  0  0  0  0  0  0  0  0  0  0  0
    1.1103    5.9576    3.0446 C   0  0  0  0  0  0  0  0  0  0  0  0
    1.6028    4.5913    2.5489 C   0  0  1  0  0  0  0  0  0  0  0  0
    0.7800    3.5333    3.0143 O   0  0  0  0  0  0  0  0  0  0  0  0
    0.8607    2.4326    2.1138 C   0  0  1  0  0  0  0  0  0  0  0  0
   -0.4464    1.9594    1.8116 O   0  0  0  0  0  0  0  0  0  0  0  0
   -0.5428    0.7535    1.0704 C   0  0  2  0  0  0  0  0  0  0  0  0
   -1.9133    0.7404    0.3749 C   0  0  1  0  0  0  0  0  0  0  0  0
   -1.9405    1.7251   -0.6464 O   0  0  0  0  0  0  0  0  0  0  0  0
   -2.2723   -0.6038   -0.2766 C   0  0  2  0  0  0  0  0  0  0  0  0
   -3.6324   -0.5729   -0.8363 N   0  0  0  0  0  0  0  0  0  0  0  0
   -2.1747   -1.7188    0.7579 C   0  0  0  0  0  0  0  0  0  0  0  0
   -0.7800   -1.7285    1.3717 C   0  0  2  0  0  0  0  0  0  0  0  0
   -0.6977   -2.8434    2.3215 N   0  0  0  0  0  0  0  0  0  0  0  0
   -0.4820   -0.3741    2.0503 C   0  0  1  0  0  0  0  0  0  0  0  0
    0.8373   -0.5035    2.6019 O   0  0  0  0  0  0  0  0  0  0  0  0
    1.2281    0.4525    3.5817 C   0  0  1  0  0  0  0  0  0  0  0  0
    0.4156    0.3398    4.7469 O   0  0  0  0  0  0  0  0  0  0  0  0
    0.5901   -0.8423    5.5252 C   0  0  2  0  0  0  0  0  0  0  0  0
   -0.3582   -0.7883    6.7304 C   0  0  0  0  0  0  0  0  0  0  0  0
   -0.7449   -2.1210    7.1711 N   0  0  0  0  0  0  0  0  0  0  0  0
    2.0458   -0.9681    6.0117 C   0  0  1  0  0  0  0  0  0  0  0  0
    2.2076   -2.1772    6.7316 O   0  0  0  0  0  0  0  0  0  0  0  0
    2.9760   -0.9583    4.7922 C   0  0  2  0  0  0  0  0  0  0  0  0
    4.3277   -0.9843    5.2108 O   0  0  0  0  0  0  0  0  0  0  0  0
    2.7128    0.2765    3.9198 C   0  0  1  0  0  0  0  0  0  0  0  0
    3.5184    0.2086    2.6922 N   0  0  0  0  0  0  0  0  0  0  0  0
    1.5270    2.9544    0.8324 C   0  0  2  0  0  0  0  0  0  0  0  0
    2.8344    2.4236    0.7205 O   0  0  0  0  0  0  0  0  0  0  0  0
    1.5071    4.4691    1.0314 C   0  0  2  0  0  0  0  0  0  0  0  0
    2.5371    5.1471    0.3396 O   0  0  0  0  0  0  0  0  0  0  0  0
  2  1  1  0  0  0  0
  3  2  1  1  0  0  0
  3 30  1  0  0  0  0
  4  5  1  0  0  0  0
  4  3  1  0  0  0  0
  5 28  1  0  0  0  0
  5  6  1  6  0  0  0
  7  6  1  1  0  0  0
  8  7  1  0  0  0  0
  8  9  1  6  0  0  0
 10 11  1  1  0  0  0
 10  8  1  0  0  0  0
 12 10  1  0  0  0  0
 13 12  1  0  0  0  0
 13 15  1  0  0  0  0
 13 14  1  1  0  0  0
 15  7  1  0  0  0  0
 15 16  1  6  0  0  0
 17 16  1  6  0  0  0
 18 17  1  0  0  0  0
 19 20  1  1  0  0  0
 19 18  1  0  0  0  0
 20 21  1  0  0  0  0
 22 24  1  0  0  0  0
 22 19  1  0  0  0  0
 22 23  1  6  0  0  0
 24 25  1  1  0  0  0
 24 26  1  0  0  0  0
 26 17  1  0  0  0  0
 26 27  1  6  0  0  0
 28 29  1  1  0  0  0
 28 30  1  0  0  0  0
 30 31  1  6  0  0  0
M  END
>  <CHROM.1>
71.70356204,-155.83121377,-171.75673294,-156.85708090,62.95370407,178.39608223
51.12201781,75.56814566,64.10041729,151.38488355,77.60232195,-83.65906689
-65.41082751,152.09197708,135.69069258,45.41405263,0.63904223,0.89540027
2.69867869,-1.57830959,0.77926876,2.52231186

>  <Name>
lig.pdb

>  <RI>
1.79691e+07

>  <Rbt.Current_Directory>
/home/itssahil/PROJECTS/Mol_Feturizer/New_Systems/rnas/2n0j

>  <Rbt.Executable>
rbdock ($Id: //depot/dev/client3/rdock/2013.1/src/exe/rbdock.cxx#4 $)

>  <Rbt.Library>
libRbt.so (2013.1, Build901 2013/11/27)

>  <Rbt.Parameter_File>
/export/apps/rDock/src/rDock_2013.1_src/data/scripts/dock_solv.prm

>  <Rbt.Receptor>
prm/blind_docking_20.prm

>  <SCORE>
-29.6619

>  <SCORE.INTER>
-36.0034

>  <SCORE.INTER.CONST>
1

>  <SCORE.INTER.POLAR>
-4.30501

>  <SCORE.INTER.ROT>
6

>  <SCORE.INTER.SOLV>
24.0523

>  <SCORE.INTER.VDW>
-25.2696

>  <SCORE.INTER.norm>
-1.1614

>  <SCORE.INTRA>
5.49346

>  <SCORE.INTRA.DIHEDRAL>
-6.83871

>  <SCORE.INTRA.DIHEDRAL.0>
28.0161

>  <SCORE.INTRA.POLAR>
0.057985

>  <SCORE.INTRA.POLAR.0>
-1.05798

>  <SCORE.INTRA.REPUL>
0

>  <SCORE.INTRA.REPUL.0>
0

>  <SCORE.INTRA.SOLV>
1.63488

>  <SCORE.INTRA.SOLV.lig_0>
-42.5945

>  <SCORE.INTRA.VDW>
7.89822

>  <SCORE.INTRA.VDW.0>
-5.13869

>  <SCORE.INTRA.norm>
0.177208

>  <SCORE.RESTR>
0.84799

>  <SCORE.RESTR.CAVITY>
0.84799

>  <SCORE.RESTR.norm>
0.0273545

>  <SCORE.SYSTEM>
0

>  <SCORE.SYSTEM.CONST>
0

>  <SCORE.SYSTEM.DIHEDRAL>
0

>  <SCORE.SYSTEM.SOLV>
0

>  <SCORE.SYSTEM.norm>
0

>  <SCORE.heavy>
31

>  <SCORE.norm>
-0.956836

>  <RMSD>
6.130

$$$$
lig.pdb
 OpenBabel11021811453D
libRbt.so/2013.1/901 2013/11/27
 31 33  0  0  0  0  0  0  0  0999 V2000
    4.0166    2.5632    2.2632 O   0  0  0  0  0  0  0  0  0  0  0  0
    3.8692    3.8045    1.6017 C   0  0  0  0  0  0  0  0  0  0  0  0
    2.3904    4.1799    1.4361 C   0  0  1  0  0  0  0  0  0  0  0  0
    1.6093    3.0733    1.0138 O   0  0  0  0  0  0  0  0  0  0  0  0
    0.2609    3.2498    1.4375 C   0  0  1  0  0  0  0  0  0  0  0  0
   -0.2138    2.0551    2.0467 O   0  0  0  0  0  0  0  0  0  0  0  0
   -0.3591    0.9168    1.2124 C   0  0  2  0  0  0  0  0  0  0  0  0
   -1.8034    0.9032    0.6872 C   0  0  1  0  0  0  0  0  0  0  0  0
   -1.9899    1.9726   -0.2266 O   0  0  0  0  0  0  0  0  0  0  0  0
   -2.1934   -0.3927   -0.0400 C   0  0  2  0  0  0  0  0  0  0  0  0
   -3.6122   -0.3741   -0.4281 N   0  0  0  0  0  0  0  0  0  0  0  0
   -1.9310   -1.5896    0.8663 C   0  0  0  0  0  0  0  0  0  0  0  0
   -0.4719   -1.5904    1.3057 C   0  0  2  0  0  0  0  0  0  0  0  0
   -0.2352   -2.7804    2.1301 N   0  0  0  0  0  0  0  0  0  0  0  0
   -0.1395   -0.2896    2.0679 C   0  0  1  0  0  0  0  0  0  0  0  0
    1.2413   -0.4073    2.4437 O   0  0  0  0  0  0  0  0  0  0  0  0
    1.7348    0.5221    3.4024 C   0  0  1  0  0  0  0  0  0  0  0  0
    0.8636    0.5948    4.5277 O   0  0  0  0  0  0  0  0  0  0  0  0
    0.8132   -0.5608    5.3617 C   0  0  2  0  0  0  0  0  0  0  0  0
   -0.1673   -0.3004    6.5130 C   0  0  0  0  0  0  0  0  0  0  0  0
    0.5141   -0.2459    7.7985 N   0  0  0  0  0  0  0  0  0  0  0  0
    2.2073   -0.8893    5.9276 C   0  0  1  0  0  0  0  0  0  0  0  0
    2.1427   -2.0725    6.7038 O   0  0  0  0  0  0  0  0  0  0  0  0
    3.1807   -1.0846    4.7584 C   0  0  2  0  0  0  0  0  0  0  0  0
    4.4910   -1.3017    5.2471 O   0  0  0  0  0  0  0  0  0  0  0  0
    3.1561    0.1323    3.8238 C   0  0  1  0  0  0  0  0  0  0  0  0
    3.9947   -0.1206    2.6433 N   0  0  0  0  0  0  0  0  0  0  0  0
    0.2645    4.3864    2.4701 C   0  0  2  0  0  0  0  0  0  0  0  0
   -0.3445    5.5387    1.9180 O   0  0  0  0  0  0  0  0  0  0  0  0
    1.7520    4.5739    2.7643 C   0  0  2  0  0  0  0  0  0  0  0  0
    2.0870    5.8793    3.1919 O   0  0  0  0  0  0  0  0  0  0  0  0
  2  1  1  0  0  0  0
  3  2  1  1  0  0  0
  3 30  1  0  0  0  0
  4  5  1  0  0  0  0
  4  3  1  0  0  0  0
  5 28  1  0  0  0  0
  5  6  1  1  0  0  0
  7  6  1  1  0  0  0
  8  7  1  0  0  0  0
  8  9  1  6  0  0  0
 10 11  1  1  0  0  0
 10  8  1  0  0  0  0
 12 10  1  0  0  0  0
 13 12  1  0  0  0  0
 13 15  1  0  0  0  0
 13 14  1  1  0  0  0
 15  7  1  0  0  0  0
 15 16  1  6  0  0  0
 17 16  1  6  0  0  0
 18 17  1  0  0  0  0
 19 20  1  1  0  0  0
 19 18  1  0  0  0  0
 20 21  1  0  0  0  0
 22 24  1  0  0  0  0
 22 19  1  0  0  0  0
 22 23  1  6  0  0  0
 24 25  1  1  0  0  0
 24 26  1  0  0  0  0
 26 17  1  0  0  0  0
 26 27  1  6  0  0  0
 28 29  1  6  0  0  0
 28 30  1  0  0  0  0
 30 31  1  6  0  0  0
M  END
>  <CHROM.1>
178.03256435,-43.77120601,-66.62149401,-92.42708912,77.26224443,-163.61188110
-92.92277331,72.24820874,48.97014877,-113.44483155,-178.01347326,163.68239371
-177.92310834,159.69264467,72.29473561,77.02080561,0.89671737,0.97608775
2.82037091,-2.14030205,0.70174096,2.64805966

>  <Name>
lig.pdb

>  <RI>
0

>  <Rbt.Current_Directory>
/home/itssahil/PROJECTS/Mol_Feturizer/New_Systems/rnas/2n0j

>  <Rbt.Executable>
rbdock ($Id: //depot/dev/client3/rdock/2013.1/src/exe/rbdock.cxx#4 $)

>  <Rbt.Library>
libRbt.so (2013.1, Build901 2013/11/27)

>  <Rbt.Parameter_File>
/export/apps/rDock/src/rDock_2013.1_src/data/scripts/dock_solv.prm

>  <Rbt.Receptor>
prm/blind_docking_40.prm

>  <SCORE>
-32.4534

>  <SCORE.INTER>
-33.42

>  <SCORE.INTER.CONST>
1

>  <SCORE.INTER.POLAR>
-4.26206

>  <SCORE.INTER.ROT>
6

>  <SCORE.INTER.SOLV>
24.5659

>  <SCORE.INTER.VDW>
-23.8617

>  <SCORE.INTER.norm>
-1.07806

>  <SCORE.INTRA>
0.719675

>  <SCORE.INTRA.DIHEDRAL>
-7.77589

>  <SCORE.INTRA.DIHEDRAL.0>
28.0161

>  <SCORE.INTRA.POLAR>
0.0292713

>  <SCORE.INTRA.POLAR.0>
-1.05798

>  <SCORE.INTRA.REPUL>
0

>  <SCORE.INTRA.REPUL.0>
0

>  <SCORE.INTRA.SOLV>
2.07203

>  <SCORE.INTRA.SOLV.lig_0>
-42.5945

>  <SCORE.INTRA.VDW>
3.47208

>  <SCORE.INTRA.VDW.0>
-5.13869

>  <SCORE.INTRA.norm>
0.0232153

>  <SCORE.RESTR>
0.246918

>  <SCORE.RESTR.CAVITY>
0.246918

>  <SCORE.RESTR.norm>
0.00796511

>  <SCORE.SYSTEM>
0

>  <SCORE.SYSTEM.CONST>
0

>  <SCORE.SYSTEM.DIHEDRAL>
0

>  <SCORE.SYSTEM.SOLV>
0

>  <SCORE.SYSTEM.norm>
0

>  <SCORE.heavy>
31

>  <SCORE.norm>
-1.04688

>  <RMSD>
6.136

$$$$
lig.pdb
 OpenBabel11021811453D
libRbt.so/2013.1/901 2013/11/27
 31 33  0  0  0  0  0  0  0  0999 V2000
    4.7769    4.5569    1.8875 O   0  0  0  0  0  0  0  0  0  0  0  0
    3.8731    3.4899    1.6760 C   0  0  0  0  0  0  0  0  0  0  0  0
    2.4392    4.0000    1.4784 C   0  0  1  0  0  0  0  0  0  0  0  0
    1.5740    2.9756    1.0146 O   0  0  0  0  0  0  0  0  0  0  0  0
    0.2356    3.2660    1.4058 C   0  0  1  0  0  0  0  0  0  0  0  0
   -0.3614    2.1092    1.9794 O   0  0  0  0  0  0  0  0  0  0  0  0
   -0.4477    0.9526    1.1621 C   0  0  2  0  0  0  0  0  0  0  0  0
   -1.8997    0.8332    0.6726 C   0  0  1  0  0  0  0  0  0  0  0  0
   -2.1808    1.8751   -0.2487 O   0  0  0  0  0  0  0  0  0  0  0  0
   -2.2166   -0.4958   -0.0298 C   0  0  2  0  0  0  0  0  0  0  0  0
   -3.6421   -0.5796   -0.3834 N   0  0  0  0  0  0  0  0  0  0  0  0
   -1.8512   -1.6599    0.8836 C   0  0  0  0  0  0  0  0  0  0  0  0
   -0.3855   -1.5550    1.2871 C   0  0  2  0  0  0  0  0  0  0  0  0
   -0.0481   -2.7149    2.1192 N   0  0  0  0  0  0  0  0  0  0  0  0
   -0.1255   -0.2244    2.0259 C   0  0  1  0  0  0  0  0  0  0  0  0
    1.2685   -0.2424    2.3691 O   0  0  0  0  0  0  0  0  0  0  0  0
    1.6977    0.6535    3.3889 C   0  0  1  0  0  0  0  0  0  0  0  0
    0.7856    0.6440    4.4836 O   0  0  0  0  0  0  0  0  0  0  0  0
    0.7434   -0.5522    5.2587 C   0  0  2  0  0  0  0  0  0  0  0  0
   -0.2849   -0.3790    6.3844 C   0  0  0  0  0  0  0  0  0  0  0  0
   -0.5766   -1.6426    7.0463 N   0  0  0  0  0  0  0  0  0  0  0  0
    2.1266   -0.8654    5.8590 C   0  0  1  0  0  0  0  0  0  0  0  0
    2.0730   -2.0867    6.5745 O   0  0  0  0  0  0  0  0  0  0  0  0
    3.1462   -0.9730    4.7183 C   0  0  2  0  0  0  0  0  0  0  0  0
    4.4449   -1.1737    5.2437 O   0  0  0  0  0  0  0  0  0  0  0  0
    3.1152    0.2871    3.8429 C   0  0  1  0  0  0  0  0  0  0  0  0
    4.0025    0.1184    2.6833 N   0  0  0  0  0  0  0  0  0  0  0  0
    0.3122    4.3804    2.4595 C   0  0  2  0  0  0  0  0  0  0  0  0
   -0.1751    5.5920    1.9135 O   0  0  0  0  0  0  0  0  0  0  0  0
    1.8017    4.4280    2.7965 C   0  0  2  0  0  0  0  0  0  0  0  0
    2.2404    5.6905    3.2575 O   0  0  0  0  0  0  0  0  0  0  0  0
  2  1  1  0  0  0  0
  3  2  1  1  0  0  0
  3 30  1  0  0  0  0
  4  5  1  0  0  0  0
  4  3  1  0  0  0  0
  5 28  1  0  0  0  0
  5  6  1  1  0  0  0
  7  6  1  1  0  0  0
  8  7  1  0  0  0  0
  8  9  1  6  0  0  0
 10 11  1  1  0  0  0
 10  8  1  0  0  0  0
 12 10  1  0  0  0  0
 13 12  1  0  0  0  0
 13 15  1  0  0  0  0
 13 14  1  1  0  0  0
 15  7  1  0  0  0  0
 15 16  1  6  0  0  0
 17 16  1  6  0  0  0
 18 17  1  0  0  0  0
 19 20  1  1  0  0  0
 19 18  1  0  0  0  0
 20 21  1  0  0  0  0
 22 24  1  0  0  0  0
 22 19  1  0  0  0  0
 22 23  1  6  0  0  0
 24 25  1  1  0  0  0
 24 26  1  0  0  0  0
 26 17  1  0  0  0  0
 26 27  1  6  0  0  0
 28 29  1  6  0  0  0
 28 30  1  0  0  0  0
 30 31  1  6  0  0  0
M  END
>  <CHROM.1>
-61.15854642,168.72955444,-59.72344133,-103.12046078,-78.54956047,-178.97488327
23.61956861,77.52830053,44.00587548,168.46460334,62.32345196,177.86945883
85.59693446,-91.32872067,59.68904918,66.02174383,0.86975409,0.99198215,2.76396030
-1.58776101,0.63257386,2.59011492

>  <Name>
lig.pdb

>  <RI>
0

>  <Rbt.Current_Directory>
/home/itssahil/PROJECTS/Mol_Feturizer/New_Systems/rnas/2n0j

>  <Rbt.Executable>
rbdock ($Id: //depot/dev/client3/rdock/2013.1/src/exe/rbdock.cxx#4 $)

>  <Rbt.Library>
libRbt.so (2013.1, Build901 2013/11/27)

>  <Rbt.Parameter_File>
/export/apps/rDock/src/rDock_2013.1_src/data/scripts/dock_solv.prm

>  <Rbt.Receptor>
prm/blind_docking_60.prm

>  <SCORE>
-35.0395

>  <SCORE.INTER>
-34.4134

>  <SCORE.INTER.CONST>
1

>  <SCORE.INTER.POLAR>
-4.8013

>  <SCORE.INTER.ROT>
6

>  <SCORE.INTER.SOLV>
23.363

>  <SCORE.INTER.VDW>
-22.3256

>  <SCORE.INTER.norm>
-1.11011

>  <SCORE.INTRA>
-1.83735

>  <SCORE.INTRA.DIHEDRAL>
-9.47477

>  <SCORE.INTRA.DIHEDRAL.0>
28.0161

>  <SCORE.INTRA.POLAR>
0.533789

>  <SCORE.INTRA.POLAR.0>
-1.05798

>  <SCORE.INTRA.REPUL>
0

>  <SCORE.INTRA.REPUL.0>
0

>  <SCORE.INTRA.SOLV>
0.570642

>  <SCORE.INTRA.SOLV.lig_0>
-42.5945

>  <SCORE.INTRA.VDW>
0.799826

>  <SCORE.INTRA.VDW.0>
-5.13869

>  <SCORE.INTRA.norm>
-0.0592695

>  <SCORE.RESTR>
1.21129

>  <SCORE.RESTR.CAVITY>
1.21129

>  <SCORE.RESTR.norm>
0.039074

>  <SCORE.SYSTEM>
0

>  <SCORE.SYSTEM.CONST>
0

>  <SCORE.SYSTEM.DIHEDRAL>
0

>  <SCORE.SYSTEM.SOLV>
0

>  <SCORE.SYSTEM.norm>
0

>  <SCORE.heavy>
31

>  <SCORE.norm>
-1.13031

>  <RMSD>
6.137

$$$$
lig.pdb
 OpenBabel11021811453D
libRbt.so/2013.1/901 2013/11/27
 31 33  0  0  0  0  0  0  0  0999 V2000
    4.0597    3.4023    0.7403 O   0  0  0  0  0  0  0  0  0  0  0  0
    3.4063    4.0991    1.7832 C   0  0  0  0  0  0  0  0  0  0  0  0
    1.9023    4.2361    1.5103 C   0  0  1  0  0  0  0  0  0  0  0  0
    1.3192    2.9981    1.1358 O   0  0  0  0  0  0  0  0  0  0  0  0
   -0.0648    2.9998    1.4722 C   0  0  1  0  0  0  0  0  0  0  0  0
   -0.3988    1.7931    2.1477 O   0  0  0  0  0  0  0  0  0  0  0  0
   -0.5434    0.6259    1.3542 C   0  0  2  0  0  0  0  0  0  0  0  0
   -1.8577    0.7548    0.5681 C   0  0  1  0  0  0  0  0  0  0  0  0
   -1.7304    1.7723   -0.4127 O   0  0  0  0  0  0  0  0  0  0  0  0
   -2.2812   -0.5305   -0.1592 C   0  0  2  0  0  0  0  0  0  0  0  0
   -3.5911   -0.3634   -0.8075 N   0  0  0  0  0  0  0  0  0  0  0  0
   -2.3504   -1.6843    0.8343 C   0  0  0  0  0  0  0  0  0  0  0  0
   -1.0082   -1.8352    1.5397 C   0  0  2  0  0  0  0  0  0  0  0  0
   -1.0867   -2.9846    2.4477 N   0  0  0  0  0  0  0  0  0  0  0  0
   -0.6464   -0.5354    2.2902 C   0  0  1  0  0  0  0  0  0  0  0  0
    0.6153   -0.7968    2.9238 O   0  0  0  0  0  0  0  0  0  0  0  0
    1.1690    0.2439    3.7219 C   0  0  1  0  0  0  0  0  0  0  0  0
    0.5512    0.2766    5.0056 O   0  0  0  0  0  0  0  0  0  0  0  0
    0.8327   -0.8228    5.8690 C   0  0  2  0  0  0  0  0  0  0  0  0
    0.0892   -0.6162    7.1953 C   0  0  0  0  0  0  0  0  0  0  0  0
   -1.3401   -0.8543    7.0540 N   0  0  0  0  0  0  0  0  0  0  0  0
    2.3456   -0.9401    6.1314 C   0  0  1  0  0  0  0  0  0  0  0  0
    2.6048   -2.0723    6.9424 O   0  0  0  0  0  0  0  0  0  0  0  0
    3.0696   -1.0843    4.7870 C   0  0  2  0  0  0  0  0  0  0  0  0
    4.4703   -1.1065    4.9885 O   0  0  0  0  0  0  0  0  0  0  0  0
    2.6863    0.0604    3.8395 C   0  0  1  0  0  0  0  0  0  0  0  0
    3.2852   -0.1583    2.5151 N   0  0  0  0  0  0  0  0  0  0  0  0
   -0.2929    4.1936    2.4108 C   0  0  2  0  0  0  0  0  0  0  0  0
   -1.0264    5.2001    1.7380 O   0  0  0  0  0  0  0  0  0  0  0  0
    1.1296    4.6221    2.7676 C   0  0  2  0  0  0  0  0  0  0  0  0
    1.2430    5.9897    3.1081 O   0  0  0  0  0  0  0  0  0  0  0  0
  2  1  1  0  0  0  0
  3  2  1  1  0  0  0
  3 30  1  0  0  0  0
  4  5  1  0  0  0  0
  4  3  1  0  0  0  0
  5 28  1  0  0  0  0
  5  6  1  1  0  0  0
  7  6  1  1  0  0  0
  8  7  1  0  0  0  0
  8  9  1  6  0  0  0
 10 11  1  1  0  0  0
 10  8  1  0  0  0  0
 12 10  1  0  0  0  0
 13 12  1  0  0  0  0
 13 15  1  0  0  0  0
 13 14  1  1  0  0  0
 15  7  1  0  0  0  0
 15 16  1  6  0  0  0
 17 16  1  6  0  0  0
 18 17  1  0  0  0  0
 19 20  1  1  0  0  0
 19 18  1  0  0  0  0
 20 21  1  0  0  0  0
 22 24  1  0  0  0  0
 22 19  1  0  0  0  0
 22 23  1  1  0  0  0
 24 25  1  1  0  0  0
 24 26  1  0  0  0  0
 26 17  1  0  0  0  0
 26 27  1  6  0  0  0
 28 29  1  6  0  0  0
 28 30  1  0  0  0  0
 30 31  1  6  0  0  0
M  END
>  <CHROM.1>
-73.06566873,48.66235541,-76.96458693,-72.70368409,66.47501626,-177.96923361
-60.25491847,60.71919865,79.71008406,73.73387983,-51.34648331,-62.87163155
-58.17292046,-83.98484761,63.90088429,-176.28911998,0.54030582,0.86833916
2.82523419,-1.91323748,0.69086499,2.56645567

>  <Name>
lig.pdb

>  <RI>
9.20816e+06

>  <Rbt.Current_Directory>
/home/itssahil/PROJECTS/Mol_Feturizer/New_Systems/rnas/2n0j

>  <Rbt.Executable>
rbdock ($Id: //depot/dev/client3/rdock/2013.1/src/exe/rbdock.cxx#4 $)

>  <Rbt.Library>
libRbt.so (2013.1, Build901 2013/11/27)

>  <Rbt.Parameter_File>
/export/apps/rDock/src/rDock_2013.1_src/data/scripts/dock_solv.prm

>  <Rbt.Receptor>
prm/blind_docking_100.prm

>  <SCORE>
-44.8244

>  <SCORE.INTER>
-40.9958

>  <SCORE.INTER.CONST>
1

>  <SCORE.INTER.POLAR>
-4.73765

>  <SCORE.INTER.ROT>
6

>  <SCORE.INTER.SOLV>
23.1764

>  <SCORE.INTER.VDW>
-26.8638

>  <SCORE.INTER.norm>
-1.32245

>  <SCORE.INTRA>
-4.37976

>  <SCORE.INTRA.DIHEDRAL>
-20.0799

>  <SCORE.INTRA.DIHEDRAL.0>
28.0161

>  <SCORE.INTRA.POLAR>
1.05683

>  <SCORE.INTRA.POLAR.0>
-1.05798

>  <SCORE.INTRA.REPUL>
0.0152108

>  <SCORE.INTRA.REPUL.0>
0

>  <SCORE.INTRA.SOLV>
-0.863204

>  <SCORE.INTRA.SOLV.lig_0>
-42.5945

>  <SCORE.INTRA.VDW>
2.4225

>  <SCORE.INTRA.VDW.0>
-5.13869

>  <SCORE.INTRA.norm>
-0.141283

>  <SCORE.RESTR>
0.551147

>  <SCORE.RESTR.CAVITY>
0.551147

>  <SCORE.RESTR.norm>
0.0177789

>  <SCORE.SYSTEM>
0

>  <SCORE.SYSTEM.CONST>
0

>  <SCORE.SYSTEM.DIHEDRAL>
0

>  <SCORE.SYSTEM.SOLV>
0

>  <SCORE.SYSTEM.norm>
0

>  <SCORE.heavy>
31

>  <SCORE.norm>
-1.44595

>  <RMSD>
6.143

$$$$
lig.pdb
 OpenBabel11021811453D
libRbt.so/2013.1/901 2013/11/27
 31 33  0  0  0  0  0  0  0  0999 V2000
    3.7846    2.9132    2.5068 O   0  0  0  0  0  0  0  0  0  0  0  0
    3.4797    4.1316    1.8567 C   0  0  0  0  0  0  0  0  0  0  0  0
    1.9747    4.2619    1.5861 C   0  0  1  0  0  0  0  0  0  0  0  0
    1.3969    3.0217    1.2105 O   0  0  0  0  0  0  0  0  0  0  0  0
    0.0133    3.0164    1.5490 C   0  0  1  0  0  0  0  0  0  0  0  0
   -0.3140    1.8071    2.2231 O   0  0  0  0  0  0  0  0  0  0  0  0
   -0.5520    0.6622    1.4197 C   0  0  2  0  0  0  0  0  0  0  0  0
   -1.9268    0.8352    0.7548 C   0  0  1  0  0  0  0  0  0  0  0  0
   -1.8637    1.8732   -0.2106 O   0  0  0  0  0  0  0  0  0  0  0  0
   -2.4393   -0.4239    0.0392 C   0  0  2  0  0  0  0  0  0  0  0  0
   -3.7968   -0.2161   -0.4881 N   0  0  0  0  0  0  0  0  0  0  0  0
   -2.4463   -1.5996    1.0092 C   0  0  0  0  0  0  0  0  0  0  0  0
   -1.0512   -1.7932    1.5907 C   0  0  2  0  0  0  0  0  0  0  0  0
   -1.0747   -2.9622    2.4765 N   0  0  0  0  0  0  0  0  0  0  0  0
   -0.5977   -0.5189    2.3353 C   0  0  1  0  0  0  0  0  0  0  0  0
    0.7084   -0.8197    2.8500 O   0  0  0  0  0  0  0  0  0  0  0  0
    1.2991    0.1381    3.7220 C   0  0  1  0  0  0  0  0  0  0  0  0
    0.6251    0.1588    4.9774 O   0  0  0  0  0  0  0  0  0  0  0  0
    0.7833   -0.9975    5.7969 C   0  0  2  0  0  0  0  0  0  0  0  0
   -0.0050   -0.7960    7.0979 C   0  0  0  0  0  0  0  0  0  0  0  0
   -1.1978    0.0113    6.8852 N   0  0  0  0  0  0  0  0  0  0  0  0
    2.2692   -1.2415    6.1194 C   0  0  1  0  0  0  0  0  0  0  0  0
    2.4052   -2.4261    6.8841 O   0  0  0  0  0  0  0  0  0  0  0  0
    3.0436   -1.3784    4.8026 C   0  0  2  0  0  0  0  0  0  0  0  0
    4.4277   -1.5163    5.0640 O   0  0  0  0  0  0  0  0  0  0  0  0
    2.7914   -0.1655    3.8969 C   0  0  1  0  0  0  0  0  0  0  0  0
    3.4347   -0.3681    2.5909 N   0  0  0  0  0  0  0  0  0  0  0  0
   -0.2190    4.2077    2.4896 C   0  0  2  0  0  0  0  0  0  0  0  0
   -0.9581    5.2117    1.8194 O   0  0  0  0  0  0  0  0  0  0  0  0
    1.2020    4.6424    2.8451 C   0  0  2  0  0  0  0  0  0  0  0  0
    1.3095    6.0100    3.1874 O   0  0  0  0  0  0  0  0  0  0  0  0
  2  1  1  0  0  0  0
  3  2  1  1  0  0  0
  3 30  1  0  0  0  0
  4  5  1  0  0  0  0
  4  3  1  0  0  0  0
  5 28  1  0  0  0  0
  5  6  1  1  0  0  0
  7  6  1  1  0  0  0
  8  7  1  0  0  0  0
  8  9  1  6  0  0  0
 10 11  1  1  0  0  0
 10  8  1  0  0  0  0
 12 10  1  0  0  0  0
 13 12  1  0  0  0  0
 13 15  1  0  0  0  0
 13 14  1  1  0  0  0
 15  7  1  0  0  0  0
 15 16  1  6  0  0  0
 17 16  1  6  0  0  0
 18 17  1  0  0  0  0
 19 20  1  1  0  0  0
 19 18  1  0  0  0  0
 20 21  1  0  0  0  0
 22 24  1  0  0  0  0
 22 19  1  0  0  0  0
 22 23  1  1  0  0  0
 24 25  1  1  0  0  0
 24 26  1  0  0  0  0
 26 17  1  0  0  0  0
 26 27  1  6  0  0  0
 28 29  1  6  0  0  0
 28 30  1  0  0  0  0
 30 31  1  6  0  0  0
M  END
>  <CHROM.1>
58.80812196,-38.14631786,-81.52775578,-73.99900840,-93.04716575,-57.52888130
-176.01070802,66.45805903,70.45240725,32.15714511,60.78715069,176.08236313
-61.22334454,-86.22325560,-179.17576129,-179.43419770,0.53995607,0.83709176
2.94587885,-2.00984431,0.66237214,2.68001878

>  <Name>
lig.pdb

>  <RI>
0

>  <Rbt.Current_Directory>
/home/itssahil/PROJECTS/Mol_Feturizer/New_Systems/rnas/2n0j

>  <Rbt.Executable>
rbdock ($Id: //depot/dev/client3/rdock/2013.1/src/exe/rbdock.cxx#4 $)

>  <Rbt.Library>
libRbt.so (2013.1, Build901 2013/11/27)

>  <Rbt.Parameter_File>
/export/apps/rDock/src/rDock_2013.1_src/data/scripts/dock_solv.prm

>  <Rbt.Receptor>
prm/blind_docking_40.prm

>  <SCORE>
-34.3424

>  <SCORE.INTER>
-33.467

>  <SCORE.INTER.CONST>
1

>  <SCORE.INTER.POLAR>
-4.01644

>  <SCORE.INTER.ROT>
6

>  <SCORE.INTER.SOLV>
22.7953

>  <SCORE.INTER.VDW>
-24.1216

>  <SCORE.INTER.norm>
-1.07958

>  <SCORE.INTRA>
-1.72296

>  <SCORE.INTRA.DIHEDRAL>
-14.3498

>  <SCORE.INTRA.DIHEDRAL.0>
28.0161

>  <SCORE.INTRA.POLAR>
1.0413

>  <SCORE.INTRA.POLAR.0>
-1.05798

>  <SCORE.INTRA.REPUL>
0

>  <SCORE.INTRA.REPUL.0>
0

>  <SCORE.INTRA.SOLV>
0.657631

>  <SCORE.INTRA.SOLV.lig_0>
-42.5945

>  <SCORE.INTRA.VDW>
1.58273

>  <SCORE.INTRA.VDW.0>
-5.13869

>  <SCORE.INTRA.norm>
-0.0555794

>  <SCORE.RESTR>
0.847649

>  <SCORE.RESTR.CAVITY>
0.847649

>  <SCORE.RESTR.norm>
0.0273435

>  <SCORE.SYSTEM>
0

>  <SCORE.SYSTEM.CONST>
0

>  <SCORE.SYSTEM.DIHEDRAL>
0

>  <SCORE.SYSTEM.SOLV>
0

>  <SCORE.SYSTEM.norm>
0

>  <SCORE.heavy>
31

>  <SCORE.norm>
-1.10782

>  <RMSD>
6.145

$$$$
lig.pdb
 OpenBabel11021811453D
libRbt.so/2013.1/901 2013/11/27
 31 33  0  0  0  0  0  0  0  0999 V2000
    4.1637    3.7693    0.7154 O   0  0  0  0  0  0  0  0  0  0  0  0
    3.4120    4.1067    1.8649 C   0  0  0  0  0  0  0  0  0  0  0  0
    1.9162    4.2245    1.5425 C   0  0  1  0  0  0  0  0  0  0  0  0
    1.3547    2.9733    1.1790 O   0  0  0  0  0  0  0  0  0  0  0  0
   -0.0391    2.9709    1.4723 C   0  0  1  0  0  0  0  0  0  0  0  0
   -0.3845    1.7773    2.1650 O   0  0  0  0  0  0  0  0  0  0  0  0
   -0.5281    0.5977    1.3899 C   0  0  2  0  0  0  0  0  0  0  0  0
   -1.8602    0.6971    0.6297 C   0  0  1  0  0  0  0  0  0  0  0  0
   -1.7683    1.7032   -0.3665 O   0  0  0  0  0  0  0  0  0  0  0  0
   -2.2796   -0.6038   -0.0718 C   0  0  2  0  0  0  0  0  0  0  0  0
   -3.6050   -0.4643   -0.6947 N   0  0  0  0  0  0  0  0  0  0  0  0
   -2.3112   -1.7451    0.9378 C   0  0  0  0  0  0  0  0  0  0  0  0
   -0.9526   -1.8672    1.6169 C   0  0  2  0  0  0  0  0  0  0  0  0
   -0.9953   -3.0055    2.5412 N   0  0  0  0  0  0  0  0  0  0  0  0
   -0.5946   -0.5525    2.3428 C   0  0  1  0  0  0  0  0  0  0  0  0
    0.6836   -0.7871    2.9533 O   0  0  0  0  0  0  0  0  0  0  0  0
    1.2426    0.2753    3.7185 C   0  0  1  0  0  0  0  0  0  0  0  0
    0.5952    0.3789    4.9837 O   0  0  0  0  0  0  0  0  0  0  0  0
    0.8300   -0.6872    5.9012 C   0  0  2  0  0  0  0  0  0  0  0  0
    0.0601   -0.4052    7.1983 C   0  0  0  0  0  0  0  0  0  0  0  0
   -0.8113   -1.5144    7.5591 N   0  0  0  0  0  0  0  0  0  0  0  0
    2.3330   -0.8267    6.2062 C   0  0  1  0  0  0  0  0  0  0  0  0
    2.5460   -1.9273    7.0722 O   0  0  0  0  0  0  0  0  0  0  0  0
    3.0853   -1.0467    4.8878 C   0  0  2  0  0  0  0  0  0  0  0  0
    4.4799   -1.0914    5.1249 O   0  0  0  0  0  0  0  0  0  0  0  0
    2.7519    0.0631    3.8818 C   0  0  1  0  0  0  0  0  0  0  0  0
    3.3769   -0.2276    2.5835 N   0  0  0  0  0  0  0  0  0  0  0  0
   -0.3055    4.1841    2.3754 C   0  0  2  0  0  0  0  0  0  0  0  0
   -1.0255    5.1685    1.6571 O   0  0  0  0  0  0  0  0  0  0  0  0
    1.1018    4.6327    2.7660 C   0  0  2  0  0  0  0  0  0  0  0  0
    1.1939    6.0087    3.0780 O   0  0  0  0  0  0  0  0  0  0  0  0
  2  1  1  0  0  0  0
  3  2  1  1  0  0  0
  3 30  1  0  0  0  0
  4  5  1  0  0  0  0
  4  3  1  0  0  0  0
  5 28  1  0  0  0  0
  5  6  1  1  0  0  0
  7  6  1  1  0  0  0
  8  7  1  0  0  0  0
  8  9  1  6  0  0  0
 10 11  1  1  0  0  0
 10  8  1  0  0  0  0
 12 10  1  0  0  0  0
 13 12  1  0  0  0  0
 13 15  1  0  0  0  0
 13 14  1  1  0  0  0
 15  7  1  0  0  0  0
 15 16  1  6  0  0  0
 17 16  1  1  0  0  0
 18 17  1  0  0  0  0
 19 20  1  1  0  0  0
 19 18  1  0  0  0  0
 20 21  1  0  0  0  0
 22 24  1  0  0  0  0
 22 19  1  0  0  0  0
 22 23  1  1  0  0  0
 24 25  1  1  0  0  0
 24 26  1  0  0  0  0
 26 17  1  0  0  0  0
 26 27  1  6  0  0  0
 28 29  1  6  0  0  0
 28 30  1  0  0  0  0
 30 31  1  6  0  0  0
M  END
>  <CHROM.1>
-173.13599212,66.52205414,-78.50776716,-74.71894640,-85.82594827,-54.73528788
178.30203600,60.29941520,76.10827097,125.51747239,86.05057803,61.73697066
-55.85999932,41.16364983,-32.89207179,-175.13283938,0.58291992,0.86400101
2.88391043,-1.86510742,0.69391369,2.54913982

>  <Name>
lig.pdb

>  <RI>
0

>  <Rbt.Current_Directory>
/home/itssahil/PROJECTS/Mol_Feturizer/New_Systems/rnas/2n0j

>  <Rbt.Executable>
rbdock ($Id: //depot/dev/client3/rdock/2013.1/src/exe/rbdock.cxx#4 $)

>  <Rbt.Library>
libRbt.so (2013.1, Build901 2013/11/27)

>  <Rbt.Parameter_File>
/export/apps/rDock/src/rDock_2013.1_src/data/scripts/dock_solv.prm

>  <Rbt.Receptor>
prm/blind_docking_60.prm

>  <SCORE>
-42.7293

>  <SCORE.INTER>
-44.3901

>  <SCORE.INTER.CONST>
1

>  <SCORE.INTER.POLAR>
-5.78898

>  <SCORE.INTER.ROT>
6

>  <SCORE.INTER.SOLV>
23.5457

>  <SCORE.INTER.VDW>
-25.7454

>  <SCORE.INTER.norm>
-1.43194

>  <SCORE.INTRA>
1.01905

>  <SCORE.INTRA.DIHEDRAL>
-10.0335

>  <SCORE.INTRA.DIHEDRAL.0>
28.0161

>  <SCORE.INTRA.POLAR>
1.05798

>  <SCORE.INTRA.POLAR.0>
-1.05798

>  <SCORE.INTRA.REPUL>
0

>  <SCORE.INTRA.REPUL.0>
0

>  <SCORE.INTRA.SOLV>
-0.694785

>  <SCORE.INTRA.SOLV.lig_0>
-42.5945

>  <SCORE.INTRA.VDW>
2.78605

>  <SCORE.INTRA.VDW.0>
-5.13869

>  <SCORE.INTRA.norm>
0.0328725

>  <SCORE.RESTR>
0.641693

>  <SCORE.RESTR.CAVITY>
0.641693

>  <SCORE.RESTR.norm>
0.0206998

>  <SCORE.SYSTEM>
0

>  <SCORE.SYSTEM.CONST>
0

>  <SCORE.SYSTEM.DIHEDRAL>
0

>  <SCORE.SYSTEM.SOLV>
0

>  <SCORE.SYSTEM.norm>
0

>  <SCORE.heavy>
31

>  <SCORE.norm>
-1.37837

>  <RMSD>
6.145

$$$$
lig.pdb
 OpenBabel11021811453D
libRbt.so/2013.1/901 2013/11/27
 31 33  0  0  0  0  0  0  0  0999 V2000
    1.6506    6.9279    2.8641 O   0  0  0  0  0  0  0  0  0  0  0  0
    1.0269    5.7740    3.3928 C   0  0  0  0  0  0  0  0  0  0  0  0
    1.5538    4.4961    2.7261 C   0  0  1  0  0  0  0  0  0  0  0  0
    0.9264    3.3336    3.2439 O   0  0  0  0  0  0  0  0  0  0  0  0
    0.9551    2.2984    2.2660 C   0  0  1  0  0  0  0  0  0  0  0  0
   -0.3340    1.7077    2.1506 O   0  0  0  0  0  0  0  0  0  0  0  0
   -0.4363    0.5240    1.3752 C   0  0  2  0  0  0  0  0  0  0  0  0
   -1.6643    0.6678    0.4621 C   0  0  1  0  0  0  0  0  0  0  0  0
   -1.4124    1.6546   -0.5259 O   0  0  0  0  0  0  0  0  0  0  0  0
   -2.0540   -0.6244   -0.2715 C   0  0  2  0  0  0  0  0  0  0  0  0
   -3.2897   -0.4388   -1.0479 N   0  0  0  0  0  0  0  0  0  0  0  0
   -2.2534   -1.7487    0.7381 C   0  0  0  0  0  0  0  0  0  0  0  0
   -0.9906   -1.9175    1.5740 C   0  0  2  0  0  0  0  0  0  0  0  0
   -1.1907   -3.0394    2.4976 N   0  0  0  0  0  0  0  0  0  0  0  0
   -0.6639   -0.6084    2.3245 C   0  0  1  0  0  0  0  0  0  0  0  0
    0.5223   -0.8873    3.0839 O   0  0  0  0  0  0  0  0  0  0  0  0
    1.0825    0.1872    3.8311 C   0  0  1  0  0  0  0  0  0  0  0  0
    0.4709    0.2801    5.1149 O   0  0  0  0  0  0  0  0  0  0  0  0
    0.7538   -0.7797    6.0261 C   0  0  2  0  0  0  0  0  0  0  0  0
    0.0173   -0.5109    7.3451 C   0  0  0  0  0  0  0  0  0  0  0  0
   -0.9303   -1.5710    7.6583 N   0  0  0  0  0  0  0  0  0  0  0  0
    2.2677   -0.8891    6.2865 C   0  0  1  0  0  0  0  0  0  0  0  0
    2.5280   -1.9838    7.1470 O   0  0  0  0  0  0  0  0  0  0  0  0
    2.9849   -1.0963    4.9467 C   0  0  2  0  0  0  0  0  0  0  0  0
    4.3865   -1.1131    5.1423 O   0  0  0  0  0  0  0  0  0  0  0  0
    2.5999    0.0051    3.9498 C   0  0  1  0  0  0  0  0  0  0  0  0
    3.1918   -0.2753    2.6339 N   0  0  0  0  0  0  0  0  0  0  0  0
    1.3396    2.9565    0.9329 C   0  0  2  0  0  0  0  0  0  0  0  0
    2.6527    2.5729    0.5692 O   0  0  0  0  0  0  0  0  0  0  0  0
    1.2114    4.4477    1.2404 C   0  0  2  0  0  0  0  0  0  0  0  0
    2.0390    5.2669    0.4385 O   0  0  0  0  0  0  0  0  0  0  0  0
  2  1  1  0  0  0  0
  3  2  1  1  0  0  0
  3 30  1  0  0  0  0
  4  5  1  0  0  0  0
  4  3  1  0  0  0  0
  5 28  1  0  0  0  0
  5  6  1  6  0  0  0
  7  6  1  1  0  0  0
  8  7  1  0  0  0  0
  8  9  1  6  0  0  0
 10 11  1  1  0  0  0
 10  8  1  0  0  0  0
 12 10  1  0  0  0  0
 13 12  1  0  0  0  0
 13 15  1  0  0  0  0
 13 14  1  1  0  0  0
 15  7  1  0  0  0  0
 15 16  1  6  0  0  0
 17 16  1  1  0  0  0
 18 17  1  0  0  0  0
 19 20  1  1  0  0  0
 19 18  1  0  0  0  0
 20 21  1  0  0  0  0
 22 24  1  0  0  0  0
 22 19  1  0  0  0  0
 22 23  1  1  0  0  0
 24 25  1  1  0  0  0
 24 26  1  0  0  0  0
 26 17  1  0  0  0  0
 26 27  1  6  0  0  0
 28 29  1  1  0  0  0
 28 30  1  0  0  0  0
 30 31  1  6  0  0  0
M  END
>  <CHROM.1>
52.34491938,-179.58140250,-170.39973623,-134.53356649,61.49984990,55.31185898
-179.01746785,56.30370791,86.42779368,119.26315064,79.67331356,58.76353787
88.08483133,35.77175578,65.65456096,-154.58359169,0.62659213,0.82380131,2.90392348
-1.68737246,0.87426936,2.51299022

>  <Name>
lig.pdb

>  <RI>
1.79691e+07

>  <Rbt.Current_Directory>
/home/itssahil/PROJECTS/Mol_Feturizer/New_Systems/rnas/2n0j

>  <Rbt.Executable>
rbdock ($Id: //depot/dev/client3/rdock/2013.1/src/exe/rbdock.cxx#4 $)

>  <Rbt.Library>
libRbt.so (2013.1, Build901 2013/11/27)

>  <Rbt.Parameter_File>
/export/apps/rDock/src/rDock_2013.1_src/data/scripts/dock_solv.prm

>  <Rbt.Receptor>
prm/blind_docking_20.prm

>  <SCORE>
-30.1244

>  <SCORE.INTER>
-37.1417

>  <SCORE.INTER.CONST>
1

>  <SCORE.INTER.POLAR>
-4.77987

>  <SCORE.INTER.ROT>
6

>  <SCORE.INTER.SOLV>
25.5749

>  <SCORE.INTER.VDW>
-24.9532

>  <SCORE.INTER.norm>
-1.19812

>  <SCORE.INTRA>
6.11272

>  <SCORE.INTRA.DIHEDRAL>
-4.19911

>  <SCORE.INTRA.DIHEDRAL.0>
28.0161

>  <SCORE.INTRA.POLAR>
0.881815

>  <SCORE.INTRA.POLAR.0>
-1.05798

>  <SCORE.INTRA.REPUL>
0.0362919

>  <SCORE.INTRA.REPUL.0>
0

>  <SCORE.INTRA.SOLV>
0.634828

>  <SCORE.INTRA.SOLV.lig_0>
-42.5945

>  <SCORE.INTRA.VDW>
4.71523

>  <SCORE.INTRA.VDW.0>
-5.13869

>  <SCORE.INTRA.norm>
0.197185

>  <SCORE.RESTR>
0.904625

>  <SCORE.RESTR.CAVITY>
0.904625

>  <SCORE.RESTR.norm>
0.0291814

>  <SCORE.SYSTEM>
0

>  <SCORE.SYSTEM.CONST>
0

>  <SCORE.SYSTEM.DIHEDRAL>
0

>  <SCORE.SYSTEM.SOLV>
0

>  <SCORE.SYSTEM.norm>
0

>  <SCORE.heavy>
31

>  <SCORE.norm>
-0.971754

>  <RMSD>
6.148

$$$$
lig.pdb
 OpenBabel11021811453D
libRbt.so/2013.1/901 2013/11/27
 31 33  0  0  0  0  0  0  0  0999 V2000
    1.1654    6.9836    2.3276 O   0  0  0  0  0  0  0  0  0  0  0  0
    1.0968    5.9000    3.2339 C   0  0  0  0  0  0  0  0  0  0  0  0
    1.6182    4.6037    2.5990 C   0  0  1  0  0  0  0  0  0  0  0  0
    0.9827    3.4575    3.1424 O   0  0  0  0  0  0  0  0  0  0  0  0
    1.0080    2.3993    2.1893 C   0  0  1  0  0  0  0  0  0  0  0  0
   -0.2841    1.8134    2.0842 O   0  0  0  0  0  0  0  0  0  0  0  0
   -0.3974    0.6309    1.3084 C   0  0  2  0  0  0  0  0  0  0  0  0
   -1.6945    0.7310    0.4901 C   0  0  1  0  0  0  0  0  0  0  0  0
   -1.5557    1.7326   -0.5054 O   0  0  0  0  0  0  0  0  0  0  0  0
   -2.0869   -0.5715   -0.2238 C   0  0  2  0  0  0  0  0  0  0  0  0
   -3.3832   -0.4308   -0.9049 N   0  0  0  0  0  0  0  0  0  0  0  0
   -2.1663   -1.7085    0.7882 C   0  0  0  0  0  0  0  0  0  0  0  0
   -0.8392   -1.8317    1.5268 C   0  0  2  0  0  0  0  0  0  0  0  0
   -0.9260   -2.9659    2.4529 N   0  0  0  0  0  0  0  0  0  0  0  0
   -0.5092   -0.5150    2.2622 C   0  0  1  0  0  0  0  0  0  0  0  0
    0.7402   -0.7508    2.9292 O   0  0  0  0  0  0  0  0  0  0  0  0
    1.2594    0.3067    3.7283 C   0  0  1  0  0  0  0  0  0  0  0  0
    0.5374    0.4137    4.9522 O   0  0  0  0  0  0  0  0  0  0  0  0
    0.7086   -0.6550    5.8807 C   0  0  2  0  0  0  0  0  0  0  0  0
   -0.1364   -0.3688    7.1292 C   0  0  0  0  0  0  0  0  0  0  0  0
   -0.7492   -1.5807    7.6539 N   0  0  0  0  0  0  0  0  0  0  0  0
    2.1893   -0.8057    6.2758 C   0  0  1  0  0  0  0  0  0  0  0  0
    2.3416   -1.9087    7.1515 O   0  0  0  0  0  0  0  0  0  0  0  0
    3.0185   -1.0298    5.0051 C   0  0  2  0  0  0  0  0  0  0  0  0
    4.3958   -1.0848    5.3261 O   0  0  0  0  0  0  0  0  0  0  0  0
    2.7545    0.0835    3.9824 C   0  0  1  0  0  0  0  0  0  0  0  0
    3.4549   -0.2104    2.7239 N   0  0  0  0  0  0  0  0  0  0  0  0
    1.3999    3.0235    0.8421 C   0  0  2  0  0  0  0  0  0  0  0  0
    2.7116    2.6239    0.4911 O   0  0  0  0  0  0  0  0  0  0  0  0
    1.2794    4.5222    1.1139 C   0  0  2  0  0  0  0  0  0  0  0  0
    2.1139    5.3175    0.2952 O   0  0  0  0  0  0  0  0  0  0  0  0
  2  1  1  0  0  0  0
  3  2  1  1  0  0  0
  3 30  1  0  0  0  0
  4  5  1  0  0  0  0
  4  3  1  0  0  0  0
  5 28  1  0  0  0  0
  5  6  1  6  0  0  0
  7  6  1  1  0  0  0
  8  7  1  0  0  0  0
  8  9  1  6  0  0  0
 10 11  1  1  0  0  0
 10  8  1  0  0  0  0
 12 10  1  0  0  0  0
 13 12  1  0  0  0  0
 13 15  1  0  0  0  0
 13 14  1  1  0  0  0
 15  7  1  0  0  0  0
 15 16  1  6  0  0  0
 17 16  1  6  0  0  0
 18 17  1  0  0  0  0
 19 20  1  1  0  0  0
 19 18  1  0  0  0  0
 20 21  1  0  0  0  0
 22 24  1  0  0  0  0
 22 19  1  0  0  0  0
 22 23  1  1  0  0  0
 24 25  1  1  0  0  0
 24 26  1  0  0  0  0
 26 17  1  0  0  0  0
 26 27  1  6  0  0  0
 28 29  1  1  0  0  0
 28 30  1  0  0  0  0
 30 31  1  6  0  0  0
M  END
>  <CHROM.1>
76.39970435,-150.25459340,-171.96324578,-139.05181974,175.07105973,-170.80177014
176.83617142,61.12777351,75.00731010,141.52731137,-176.38486472,67.41276725
115.19235549,-83.10181998,65.05500262,-57.86831199,0.65744904,0.90472118
2.84658487,-1.70939863,0.84986844,2.52909807

>  <Name>
lig.pdb

>  <RI>
0

>  <Rbt.Current_Directory>
/home/itssahil/PROJECTS/Mol_Feturizer/New_Systems/rnas/2n0j

>  <Rbt.Executable>
rbdock ($Id: //depot/dev/client3/rdock/2013.1/src/exe/rbdock.cxx#4 $)

>  <Rbt.Library>
libRbt.so (2013.1, Build901 2013/11/27)

>  <Rbt.Parameter_File>
/export/apps/rDock/src/rDock_2013.1_src/data/scripts/dock_solv.prm

>  <Rbt.Receptor>
prm/blind_docking_60.prm

>  <SCORE>
-27.5634

>  <SCORE.INTER>
-34.8949

>  <SCORE.INTER.CONST>
1

>  <SCORE.INTER.POLAR>
-5.12825

>  <SCORE.INTER.ROT>
6

>  <SCORE.INTER.SOLV>
24.8103

>  <SCORE.INTER.VDW>
-22.0392

>  <SCORE.INTER.norm>
-1.12564

>  <SCORE.INTRA>
6.99385

>  <SCORE.INTRA.DIHEDRAL>
-4.12413

>  <SCORE.INTRA.DIHEDRAL.0>
28.0161

>  <SCORE.INTRA.POLAR>
0.835582

>  <SCORE.INTRA.POLAR.0>
-1.05798

>  <SCORE.INTRA.REPUL>
0.00279233

>  <SCORE.INTRA.REPUL.0>
0

>  <SCORE.INTRA.SOLV>
0.923344

>  <SCORE.INTRA.SOLV.lig_0>
-42.5945

>  <SCORE.INTRA.VDW>
5.73931

>  <SCORE.INTRA.VDW.0>
-5.13869

>  <SCORE.INTRA.norm>
0.225608

>  <SCORE.RESTR>
0.337649

>  <SCORE.RESTR.CAVITY>
0.337649

>  <SCORE.RESTR.norm>
0.0108919

>  <SCORE.SYSTEM>
0

>  <SCORE.SYSTEM.CONST>
0

>  <SCORE.SYSTEM.DIHEDRAL>
0

>  <SCORE.SYSTEM.SOLV>
0

>  <SCORE.SYSTEM.norm>
0

>  <SCORE.heavy>
31

>  <SCORE.norm>
-0.889142

>  <RMSD>
6.151

$$$$
lig.pdb
 OpenBabel11021811453D
libRbt.so/2013.1/901 2013/11/27
 31 33  0  0  0  0  0  0  0  0999 V2000
    3.9584    5.2546    2.5868 O   0  0  0  0  0  0  0  0  0  0  0  0
    3.4909    4.0538    2.0039 C   0  0  0  0  0  0  0  0  0  0  0  0
    2.0156    4.1652    1.5964 C   0  0  1  0  0  0  0  0  0  0  0  0
    1.4772    2.9090    1.2154 O   0  0  0  0  0  0  0  0  0  0  0  0
    0.0691    2.9070    1.4297 C   0  0  1  0  0  0  0  0  0  0  0  0
   -0.3132    1.7202    2.1148 O   0  0  0  0  0  0  0  0  0  0  0  0
   -0.5045    0.5534    1.3308 C   0  0  2  0  0  0  0  0  0  0  0  0
   -1.8180    0.7239    0.5513 C   0  0  1  0  0  0  0  0  0  0  0  0
   -1.6601    1.7291   -0.4377 O   0  0  0  0  0  0  0  0  0  0  0  0
   -2.2919   -0.5505   -0.1640 C   0  0  2  0  0  0  0  0  0  0  0  0
   -3.5988   -0.3409   -0.8060 N   0  0  0  0  0  0  0  0  0  0  0  0
   -2.3966   -1.6939    0.8384 C   0  0  0  0  0  0  0  0  0  0  0  0
   -1.0564   -1.8880    1.5371 C   0  0  2  0  0  0  0  0  0  0  0  0
   -1.1708   -3.0273    2.4540 N   0  0  0  0  0  0  0  0  0  0  0  0
   -0.6436   -0.5967    2.2759 C   0  0  1  0  0  0  0  0  0  0  0  0
    0.6116   -0.8989    2.9042 O   0  0  0  0  0  0  0  0  0  0  0  0
    1.1385    0.0718    3.8023 C   0  0  1  0  0  0  0  0  0  0  0  0
    0.4474    0.0326    5.0479 O   0  0  0  0  0  0  0  0  0  0  0  0
    0.6557   -1.1292    5.8481 C   0  0  2  0  0  0  0  0  0  0  0  0
   -0.1598   -0.9949    7.1409 C   0  0  0  0  0  0  0  0  0  0  0  0
   -0.0141    0.3265    7.7346 N   0  0  0  0  0  0  0  0  0  0  0  0
    2.1480   -1.3003    6.1877 C   0  0  1  0  0  0  0  0  0  0  0  0
    2.3365   -2.4905    6.9322 O   0  0  0  0  0  0  0  0  0  0  0  0
    2.9465   -1.3706    4.8801 C   0  0  2  0  0  0  0  0  0  0  0  0
    4.3322   -1.4400    5.1591 O   0  0  0  0  0  0  0  0  0  0  0  0
    2.6423   -0.1555    3.9933 C   0  0  1  0  0  0  0  0  0  0  0  0
    3.3132   -0.2985    2.6933 N   0  0  0  0  0  0  0  0  0  0  0  0
   -0.2496    4.1293    2.3028 C   0  0  2  0  0  0  0  0  0  0  0  0
   -0.9293    5.1044    1.5343 O   0  0  0  0  0  0  0  0  0  0  0  0
    1.1328    4.5850    2.7674 C   0  0  2  0  0  0  0  0  0  0  0  0
    1.2052    5.9645    3.0689 O   0  0  0  0  0  0  0  0  0  0  0  0
  2  1  1  0  0  0  0
  3  2  1  1  0  0  0
  3 30  1  0  0  0  0
  4  5  1  0  0  0  0
  4  3  1  0  0  0  0
  5 28  1  0  0  0  0
  5  6  1  1  0  0  0
  7  6  1  1  0  0  0
  8  7  1  0  0  0  0
  8  9  1  6  0  0  0
 10 11  1  1  0  0  0
 10  8  1  0  0  0  0
 12 10  1  0  0  0  0
 13 12  1  0  0  0  0
 13 15  1  0  0  0  0
 13 14  1  1  0  0  0
 15  7  1  0  0  0  0
 15 16  1  6  0  0  0
 17 16  1  6  0  0  0
 18 17  1  0  0  0  0
 19 20  1  1  0  0  0
 19 18  1  0  0  0  0
 20 21  1  0  0  0  0
 22 24  1  0  0  0  0
 22 19  1  0  0  0  0
 22 23  1  6  0  0  0
 24 25  1  1  0  0  0
 24 26  1  0  0  0  0
 26 17  1  0  0  0  0
 26 27  1  6  0  0  0
 28 29  1  6  0  0  0
 28 30  1  0  0  0  0
 30 31  1  6  0  0  0
M  END
>  <CHROM.1>
-54.73589187,-170.38117882,-82.90178762,-73.13603780,69.38015713,-175.63861262
-173.99048386,67.12974454,76.32492930,-45.53531825,-170.15554937,175.69446281
179.48300307,35.69929680,-40.46959773,-170.65181185,0.57297693,0.86216242
2.93008126,-1.88482611,0.76992877,2.63563381

>  <Name>
lig.pdb

>  <RI>
0

>  <Rbt.Current_Directory>
/home/itssahil/PROJECTS/Mol_Feturizer/New_Systems/rnas/2n0j

>  <Rbt.Executable>
rbdock ($Id: //depot/dev/client3/rdock/2013.1/src/exe/rbdock.cxx#4 $)

>  <Rbt.Library>
libRbt.so (2013.1, Build901 2013/11/27)

>  <Rbt.Parameter_File>
/export/apps/rDock/src/rDock_2013.1_src/data/scripts/dock_solv.prm

>  <Rbt.Receptor>
prm/blind_docking_40.prm

>  <SCORE>
-36.9621

>  <SCORE.INTER>
-35.6446

>  <SCORE.INTER.CONST>
1

>  <SCORE.INTER.POLAR>
-3.9261

>  <SCORE.INTER.ROT>
6

>  <SCORE.INTER.SOLV>
23.5438

>  <SCORE.INTER.VDW>
-26.124

>  <SCORE.INTER.norm>
-1.14983

>  <SCORE.INTRA>
-2.80175

>  <SCORE.INTRA.DIHEDRAL>
-17.6264

>  <SCORE.INTRA.DIHEDRAL.0>
28.0161

>  <SCORE.INTRA.POLAR>
1.03722

>  <SCORE.INTRA.POLAR.0>
-1.05798

>  <SCORE.INTRA.REPUL>
0

>  <SCORE.INTRA.REPUL.0>
0

>  <SCORE.INTRA.SOLV>
0.144467

>  <SCORE.INTRA.SOLV.lig_0>
-42.5945

>  <SCORE.INTRA.VDW>
2.41267

>  <SCORE.INTRA.VDW.0>
-5.13869

>  <SCORE.INTRA.norm>
-0.0903791

>  <SCORE.RESTR>
1.48424

>  <SCORE.RESTR.CAVITY>
1.48424

>  <SCORE.RESTR.norm>
0.0478787

>  <SCORE.SYSTEM>
0

>  <SCORE.SYSTEM.CONST>
0

>  <SCORE.SYSTEM.DIHEDRAL>
0

>  <SCORE.SYSTEM.SOLV>
0

>  <SCORE.SYSTEM.norm>
0

>  <SCORE.heavy>
31

>  <SCORE.norm>
-1.19233

>  <RMSD>
6.159

$$$$
lig.pdb
 OpenBabel11021811453D
libRbt.so/2013.1/901 2013/11/27
 31 33  0  0  0  0  0  0  0  0999 V2000
   -3.7296    7.1941    3.5985 O   0  0  0  0  0  0  0  0  0  0  0  0
   -2.9755    6.0086    3.7601 C   0  0  0  0  0  0  0  0  0  0  0  0
   -1.4716    6.2756    3.6112 C   0  0  1  0  0  0  0  0  0  0  0  0
   -0.6964    5.1446    3.9760 O   0  0  0  0  0  0  0  0  0  0  0  0
    0.5529    5.1802    3.2927 C   0  0  1  0  0  0  0  0  0  0  0  0
    0.8227    3.9090    2.7137 O   0  0  0  0  0  0  0  0  0  0  0  0
    2.0977    3.3404    2.9663 C   0  0  2  0  0  0  0  0  0  0  0  0
    3.0981    3.9847    1.9935 C   0  0  1  0  0  0  0  0  0  0  0  0
    3.2993    5.3444    2.3457 O   0  0  0  0  0  0  0  0  0  0  0  0
    4.4774    3.3086    1.9746 C   0  0  2  0  0  0  0  0  0  0  0  0
    5.3483    3.9138    0.9551 N   0  0  0  0  0  0  0  0  0  0  0  0
    4.3167    1.8206    1.6860 C   0  0  0  0  0  0  0  0  0  0  0  0
    3.3816    1.1966    2.7146 C   0  0  2  0  0  0  0  0  0  0  0  0
    3.2890   -0.2425    2.4462 N   0  0  0  0  0  0  0  0  0  0  0  0
    1.9976    1.8790    2.6665 C   0  0  1  0  0  0  0  0  0  0  0  0
    1.2034    1.2059    3.6554 O   0  0  0  0  0  0  0  0  0  0  0  0
   -0.2076    1.2083    3.4666 C   0  0  1  0  0  0  0  0  0  0  0  0
   -0.5305    1.3583    2.0868 O   0  0  0  0  0  0  0  0  0  0  0  0
   -0.2069    0.2573    1.2403 C   0  0  2  0  0  0  0  0  0  0  0  0
   -0.6248    0.5957   -0.1969 C   0  0  0  0  0  0  0  0  0  0  0  0
   -2.0455    0.9015   -0.2865 N   0  0  0  0  0  0  0  0  0  0  0  0
   -0.9270   -1.0220    1.7058 C   0  0  1  0  0  0  0  0  0  0  0  0
   -0.5445   -2.1122    0.8862 O   0  0  0  0  0  0  0  0  0  0  0  0
   -0.5398   -1.3034    3.1630 C   0  0  2  0  0  0  0  0  0  0  0  0
   -1.2540   -2.4247    3.6484 O   0  0  0  0  0  0  0  0  0  0  0  0
   -0.8135   -0.0763    4.0431 C   0  0  1  0  0  0  0  0  0  0  0  0
   -0.3211   -0.3136    5.4076 N   0  0  0  0  0  0  0  0  0  0  0  0
    0.4226    6.2329    2.1823 C   0  0  2  0  0  0  0  0  0  0  0  0
    1.1999    7.3708    2.5057 O   0  0  0  0  0  0  0  0  0  0  0  0
   -1.0785    6.5165    2.1572 C   0  0  2  0  0  0  0  0  0  0  0  0
   -1.4053    7.8089    1.6858 O   0  0  0  0  0  0  0  0  0  0  0  0
  2  1  1  0  0  0  0
  3  2  1  6  0  0  0
  3 30  1  0  0  0  0
  4  5  1  0  0  0  0
  4  3  1  0  0  0  0
  5 28  1  0  0  0  0
  5  6  1  6  0  0  0
  7  6  1  6  0  0  0
  8  7  1  0  0  0  0
  8  9  1  1  0  0  0
 10 11  1  6  0  0  0
 10  8  1  0  0  0  0
 12 10  1  0  0  0  0
 13 12  1  0  0  0  0
 13 15  1  0  0  0  0
 13 14  1  6  0  0  0
 15  7  1  0  0  0  0
 15 16  1  1  0  0  0
 17 16  1  6  0  0  0
 18 17  1  0  0  0  0
 19 20  1  6  0  0  0
 19 18  1  0  0  0  0
 20 21  1  0  0  0  0
 22 24  1  0  0  0  0
 22 19  1  0  0  0  0
 22 23  1  6  0  0  0
 24 25  1  1  0  0  0
 24 26  1  0  0  0  0
 26 17  1  0  0  0  0
 26 27  1  1  0  0  0
 28 29  1  1  0  0  0
 28 30  1  0  0  0  0
 30 31  1  1  0  0  0
M  END
>  <CHROM.1>
-176.07117388,170.80193768,-129.99724797,-81.01837154,64.26270099,-59.38518876
70.51611401,85.06384239,25.41801524,-57.92799411,-63.84293133,58.94616135
97.73538207,62.89919538,57.42314074,71.99553283,0.50387639,2.72846354,2.51410606
1.65661808,0.14935204,0.03268176

>  <Name>
lig.pdb

>  <RI>
0

>  <Rbt.Current_Directory>
/home/itssahil/PROJECTS/Mol_Feturizer/New_Systems/rnas/2n0j

>  <Rbt.Executable>
rbdock ($Id: //depot/dev/client3/rdock/2013.1/src/exe/rbdock.cxx#4 $)

>  <Rbt.Library>
libRbt.so (2013.1, Build901 2013/11/27)

>  <Rbt.Parameter_File>
/export/apps/rDock/src/rDock_2013.1_src/data/scripts/dock_solv.prm

>  <Rbt.Receptor>
prm/blind_docking_40.prm

>  <SCORE>
-36.0342

>  <SCORE.INTER>
-38.4437

>  <SCORE.INTER.CONST>
1

>  <SCORE.INTER.POLAR>
-4.02411

>  <SCORE.INTER.ROT>
6

>  <SCORE.INTER.SOLV>
22.0723

>  <SCORE.INTER.VDW>
-27.1728

>  <SCORE.INTER.norm>
-1.24012

>  <SCORE.INTRA>
-0.428708

>  <SCORE.INTRA.DIHEDRAL>
-5.37806

>  <SCORE.INTRA.DIHEDRAL.0>
28.0161

>  <SCORE.INTRA.POLAR>
0.166208

>  <SCORE.INTRA.POLAR.0>
-1.05798

>  <SCORE.INTRA.REPUL>
0

>  <SCORE.INTRA.REPUL.0>
0

>  <SCORE.INTRA.SOLV>
0.881296

>  <SCORE.INTRA.SOLV.lig_0>
-42.5945

>  <SCORE.INTRA.VDW>
1.25457

>  <SCORE.INTRA.VDW.0>
-5.13869

>  <SCORE.INTRA.norm>
-0.0138293

>  <SCORE.RESTR>
2.8382

>  <SCORE.RESTR.CAVITY>
2.8382

>  <SCORE.RESTR.norm>
0.0915548

>  <SCORE.SYSTEM>
0

>  <SCORE.SYSTEM.CONST>
0

>  <SCORE.SYSTEM.DIHEDRAL>
0

>  <SCORE.SYSTEM.SOLV>
0

>  <SCORE.SYSTEM.norm>
0

>  <SCORE.heavy>
31

>  <SCORE.norm>
-1.16239

>  <RMSD>
6.161

$$$$
lig.pdb
 OpenBabel11021811453D
libRbt.so/2013.1/901 2013/11/27
 31 33  0  0  0  0  0  0  0  0999 V2000
   -3.0671   -1.8013   -0.3419 O   0  0  0  0  0  0  0  0  0  0  0  0
   -3.7358   -0.5613   -0.4657 C   0  0  0  0  0  0  0  0  0  0  0  0
   -4.8008   -0.3869    0.6254 C   0  0  1  0  0  0  0  0  0  0  0  0
   -4.2526    0.1571    1.8156 O   0  0  0  0  0  0  0  0  0  0  0  0
   -5.2677    0.8471    2.5383 C   0  0  1  0  0  0  0  0  0  0  0  0
   -4.7899    2.1254    2.9402 O   0  0  0  0  0  0  0  0  0  0  0  0
   -4.7633    2.3981    4.3322 C   0  0  2  0  0  0  0  0  0  0  0  0
   -6.2170    2.4337    4.8296 C   0  0  1  0  0  0  0  0  0  0  0  0
   -6.7684    1.1269    4.7888 O   0  0  0  0  0  0  0  0  0  0  0  0
   -6.3747    2.9516    6.2674 C   0  0  2  0  0  0  0  0  0  0  0  0
   -7.7942    3.0498    6.6407 N   0  0  0  0  0  0  0  0  0  0  0  0
   -5.7206    4.3223    6.3946 C   0  0  0  0  0  0  0  0  0  0  0  0
   -4.2601    4.2355    5.9688 C   0  0  2  0  0  0  0  0  0  0  0  0
   -3.6428    5.5533    6.1532 N   0  0  0  0  0  0  0  0  0  0  0  0
   -4.1546    3.7526    4.5062 C   0  0  1  0  0  0  0  0  0  0  0  0
   -2.7496    3.7251    4.2117 O   0  0  0  0  0  0  0  0  0  0  0  0
   -2.3751    3.5613    2.8481 C   0  0  1  0  0  0  0  0  0  0  0  0
   -1.8545    4.7780    2.3195 O   0  0  0  0  0  0  0  0  0  0  0  0
   -0.5937    5.2006    2.8345 C   0  0  2  0  0  0  0  0  0  0  0  0
   -0.1948    6.5168    2.1540 C   0  0  0  0  0  0  0  0  0  0  0  0
   -1.1704    7.5686    2.4025 N   0  0  0  0  0  0  0  0  0  0  0  0
    0.4874    4.1335    2.5811 C   0  0  1  0  0  0  0  0  0  0  0  0
    1.7148    4.5499    3.1524 O   0  0  0  0  0  0  0  0  0  0  0  0
    0.0362    2.8134    3.2186 C   0  0  2  0  0  0  0  0  0  0  0  0
    0.9684    1.7889    2.9279 O   0  0  0  0  0  0  0  0  0  0  0  0
   -1.3603    2.4196    2.7189 C   0  0  1  0  0  0  0  0  0  0  0  0
   -1.8331    1.2241    3.4315 N   0  0  0  0  0  0  0  0  0  0  0  0
   -6.4555    1.0207    1.5807 C   0  0  2  0  0  0  0  0  0  0  0  0
   -7.5214    0.1796    1.9803 O   0  0  0  0  0  0  0  0  0  0  0  0
   -5.8600    0.6361    0.2272 C   0  0  2  0  0  0  0  0  0  0  0  0
   -6.8123    0.1407   -0.6930 O   0  0  0  0  0  0  0  0  0  0  0  0
  2  1  1  0  0  0  0
  3  2  1  6  0  0  0
  3 30  1  0  0  0  0
  4  5  1  0  0  0  0
  4  3  1  0  0  0  0
  5 28  1  0  0  0  0
  5  6  1  6  0  0  0
  7  6  1  6  0  0  0
  8  7  1  0  0  0  0
  8  9  1  1  0  0  0
 10 11  1  6  0  0  0
 10  8  1  0  0  0  0
 12 10  1  0  0  0  0
 13 12  1  0  0  0  0
 13 15  1  0  0  0  0
 13 14  1  6  0  0  0
 15  7  1  0  0  0  0
 15 16  1  1  0  0  0
 17 16  1  1  0  0  0
 18 17  1  0  0  0  0
 19 20  1  6  0  0  0
 19 18  1  0  0  0  0
 20 21  1  0  0  0  0
 22 24  1  0  0  0  0
 22 19  1  0  0  0  0
 22 23  1  1  0  0  0
 24 25  1  6  0  0  0
 24 26  1  0  0  0  0
 26 17  1  0  0  0  0
 26 27  1  1  0  0  0
 28 29  1  1  0  0  0
 28 30  1  0  0  0  0
 30 31  1  6  0  0  0
M  END
>  <CHROM.1>
-64.44875041,86.29092809,-120.33861764,-66.04085740,-90.19703675,-178.05421310
-172.63396123,70.93893975,107.91511448,60.23076796,66.77741303,-63.10796553
57.79839008,-172.62525216,-172.53422405,58.27685976,-3.58332486,2.58400357
3.05252969,-2.57339106,0.38613799,0.79844997

>  <Name>
lig.pdb

>  <RI>
3.32461e+07

>  <Rbt.Current_Directory>
/home/itssahil/PROJECTS/Mol_Feturizer/New_Systems/rnas/2n0j

>  <Rbt.Executable>
rbdock ($Id: //depot/dev/client3/rdock/2013.1/src/exe/rbdock.cxx#4 $)

>  <Rbt.Library>
libRbt.so (2013.1, Build901 2013/11/27)

>  <Rbt.Parameter_File>
/export/apps/rDock/src/rDock_2013.1_src/data/scripts/dock_solv.prm

>  <Rbt.Receptor>
prm/pocket_docking_7.prm

>  <SCORE>
-24.9189

>  <SCORE.INTER>
-21.503

>  <SCORE.INTER.CONST>
1

>  <SCORE.INTER.POLAR>
-2.84183

>  <SCORE.INTER.ROT>
6

>  <SCORE.INTER.SOLV>
12.1709

>  <SCORE.INTER.VDW>
-16.5195

>  <SCORE.INTER.norm>
-0.693646

>  <SCORE.INTRA>
-3.41591

>  <SCORE.INTRA.DIHEDRAL>
-6.72517

>  <SCORE.INTRA.DIHEDRAL.0>
28.0161

>  <SCORE.INTRA.POLAR>
-0.825014

>  <SCORE.INTRA.POLAR.0>
-1.05798

>  <SCORE.INTRA.REPUL>
0

>  <SCORE.INTRA.REPUL.0>
0

>  <SCORE.INTRA.SOLV>
0.273343

>  <SCORE.INTRA.SOLV.lig_0>
-42.5945

>  <SCORE.INTRA.VDW>
2.61505

>  <SCORE.INTRA.VDW.0>
-5.13869

>  <SCORE.INTRA.norm>
-0.110191

>  <SCORE.RESTR>
0

>  <SCORE.RESTR.CAVITY>
0

>  <SCORE.RESTR.norm>
0

>  <SCORE.SYSTEM>
0

>  <SCORE.SYSTEM.CONST>
0

>  <SCORE.SYSTEM.DIHEDRAL>
0

>  <SCORE.SYSTEM.SOLV>
0

>  <SCORE.SYSTEM.norm>
0

>  <SCORE.heavy>
31

>  <SCORE.norm>
-0.803837

>  <RMSD>
6.165

$$$$
lig.pdb
 OpenBabel11021811453D
libRbt.so/2013.1/901 2013/11/27
 31 33  0  0  0  0  0  0  0  0999 V2000
   -8.0907    6.3141    8.2532 O   0  0  0  0  0  0  0  0  0  0  0  0
   -7.6534    5.0250    7.8696 C   0  0  0  0  0  0  0  0  0  0  0  0
   -6.1215    4.9328    7.8571 C   0  0  1  0  0  0  0  0  0  0  0  0
   -5.6519    4.0964    6.8117 O   0  0  0  0  0  0  0  0  0  0  0  0
   -4.3324    4.4861    6.4432 C   0  0  1  0  0  0  0  0  0  0  0  0
   -4.2380    4.5920    5.0277 O   0  0  0  0  0  0  0  0  0  0  0  0
   -2.9362    4.6822    4.4708 C   0  0  2  0  0  0  0  0  0  0  0  0
   -2.7585    6.1082    3.9258 C   0  0  1  0  0  0  0  0  0  0  0  0
   -2.6892    7.0272    5.0047 O   0  0  0  0  0  0  0  0  0  0  0  0
   -1.4915    6.3016    3.0787 C   0  0  2  0  0  0  0  0  0  0  0  0
   -1.4370    7.6581    2.5120 N   0  0  0  0  0  0  0  0  0  0  0  0
   -1.4673    5.2787    1.9491 C   0  0  0  0  0  0  0  0  0  0  0  0
   -1.5659    3.8726    2.5280 C   0  0  2  0  0  0  0  0  0  0  0  0
   -1.4851    2.9089    1.4251 N   0  0  0  0  0  0  0  0  0  0  0  0
   -2.8734    3.7136    3.3336 C   0  0  1  0  0  0  0  0  0  0  0  0
   -2.8667    2.3601    3.8125 O   0  0  0  0  0  0  0  0  0  0  0  0
   -4.0373    1.5837    3.5810 C   0  0  1  0  0  0  0  0  0  0  0  0
   -4.0809    1.1292    2.2312 O   0  0  0  0  0  0  0  0  0  0  0  0
   -3.1065    0.1557    1.8619 C   0  0  2  0  0  0  0  0  0  0  0  0
   -3.3066   -0.2126    0.3858 C   0  0  0  0  0  0  0  0  0  0  0  0
   -2.8428    0.8452   -0.5006 N   0  0  0  0  0  0  0  0  0  0  0  0
   -3.2332   -1.1056    2.7364 C   0  0  1  0  0  0  0  0  0  0  0  0
   -2.2191   -2.0322    2.3905 O   0  0  0  0  0  0  0  0  0  0  0  0
   -3.0904   -0.7011    4.2089 C   0  0  2  0  0  0  0  0  0  0  0  0
   -3.2897   -1.8261    5.0442 O   0  0  0  0  0  0  0  0  0  0  0  0
   -4.0879    0.4095    4.5651 C   0  0  1  0  0  0  0  0  0  0  0  0
   -3.8549    0.8758    5.9394 N   0  0  0  0  0  0  0  0  0  0  0  0
   -4.0810    5.8612    7.0789 C   0  0  2  0  0  0  0  0  0  0  0  0
   -3.1497    5.7377    8.1377 O   0  0  0  0  0  0  0  0  0  0  0  0
   -5.4739    6.2788    7.5478 C   0  0  2  0  0  0  0  0  0  0  0  0
   -5.4610    7.1699    8.6454 O   0  0  0  0  0  0  0  0  0  0  0  0
  2  1  1  0  0  0  0
  3  2  1  6  0  0  0
  3 30  1  0  0  0  0
  4  5  1  0  0  0  0
  4  3  1  0  0  0  0
  5 28  1  0  0  0  0
  5  6  1  6  0  0  0
  7  6  1  6  0  0  0
  8  7  1  0  0  0  0
  8  9  1  1  0  0  0
 10 11  1  6  0  0  0
 10  8  1  0  0  0  0
 12 10  1  0  0  0  0
 13 12  1  0  0  0  0
 13 15  1  0  0  0  0
 13 14  1  6  0  0  0
 15  7  1  0  0  0  0
 15 16  1  1  0  0  0
 17 16  1  6  0  0  0
 18 17  1  0  0  0  0
 19 20  1  6  0  0  0
 19 18  1  0  0  0  0
 20 21  1  0  0  0  0
 22 24  1  0  0  0  0
 22 19  1  0  0  0  0
 22 23  1  6  0  0  0
 24 25  1  1  0  0  0
 24 26  1  0  0  0  0
 26 17  1  0  0  0  0
 26 27  1  1  0  0  0
 28 29  1  1  0  0  0
 28 30  1  0  0  0  0
 30 31  1  1  0  0  0
M  END
>  <CHROM.1>
87.22315453,-144.51833181,-166.56020589,-110.06507372,-168.81183571,-176.93758041
-71.69576375,109.65402687,77.75830907,74.12604475,-177.70045037,-176.72478038
-57.95806639,75.99944266,-178.27574687,171.40413506,-3.64504149,3.35028823
4.46631428,2.07944531,0.94388185,0.27571362

>  <Name>
lig.pdb

>  <RI>
2.74555e+07

>  <Rbt.Current_Directory>
/home/itssahil/PROJECTS/Mol_Feturizer/New_Systems/rnas/2n0j

>  <Rbt.Executable>
rbdock ($Id: //depot/dev/client3/rdock/2013.1/src/exe/rbdock.cxx#4 $)

>  <Rbt.Library>
libRbt.so (2013.1, Build901 2013/11/27)

>  <Rbt.Parameter_File>
/export/apps/rDock/src/rDock_2013.1_src/data/scripts/dock_solv.prm

>  <Rbt.Receptor>
prm/pocket_docking_6.prm

>  <SCORE>
-31.7118

>  <SCORE.INTER>
-35.1301

>  <SCORE.INTER.CONST>
1

>  <SCORE.INTER.POLAR>
-4.52712

>  <SCORE.INTER.ROT>
6

>  <SCORE.INTER.SOLV>
13.9499

>  <SCORE.INTER.VDW>
-20.5797

>  <SCORE.INTER.norm>
-1.13323

>  <SCORE.INTRA>
3.41831

>  <SCORE.INTRA.DIHEDRAL>
-2.85332

>  <SCORE.INTRA.DIHEDRAL.0>
28.0161

>  <SCORE.INTRA.POLAR>
0.969726

>  <SCORE.INTRA.POLAR.0>
-1.05798

>  <SCORE.INTRA.REPUL>
0

>  <SCORE.INTRA.REPUL.0>
0

>  <SCORE.INTRA.SOLV>
1.55385

>  <SCORE.INTRA.SOLV.lig_0>
-42.5945

>  <SCORE.INTRA.VDW>
0.770974

>  <SCORE.INTRA.VDW.0>
-5.13869

>  <SCORE.INTRA.norm>
0.110268

>  <SCORE.RESTR>
0

>  <SCORE.RESTR.CAVITY>
0

>  <SCORE.RESTR.norm>
0

>  <SCORE.SYSTEM>
0

>  <SCORE.SYSTEM.CONST>
0

>  <SCORE.SYSTEM.DIHEDRAL>
0

>  <SCORE.SYSTEM.SOLV>
0

>  <SCORE.SYSTEM.norm>
0

>  <SCORE.heavy>
31

>  <SCORE.norm>
-1.02296

>  <RMSD>
6.166

$$$$
lig.pdb
 OpenBabel11021811453D
libRbt.so/2013.1/901 2013/11/27
 31 33  0  0  0  0  0  0  0  0999 V2000
    4.3776    4.9006    2.3256 O   0  0  0  0  0  0  0  0  0  0  0  0
    3.7038    3.6816    2.0806 C   0  0  0  0  0  0  0  0  0  0  0  0
    2.2841    3.9221    1.5495 C   0  0  1  0  0  0  0  0  0  0  0  0
    1.6509    2.7108    1.1691 O   0  0  0  0  0  0  0  0  0  0  0  0
    0.2376    2.8584    1.2668 C   0  0  1  0  0  0  0  0  0  0  0  0
   -0.3172    1.7460    1.9586 O   0  0  0  0  0  0  0  0  0  0  0  0
   -0.4703    0.5400    1.2272 C   0  0  2  0  0  0  0  0  0  0  0  0
   -1.7919    0.6303    0.4478 C   0  0  1  0  0  0  0  0  0  0  0  0
   -1.6728    1.5961   -0.5849 O   0  0  0  0  0  0  0  0  0  0  0  0
   -2.2235   -0.6898   -0.2087 C   0  0  2  0  0  0  0  0  0  0  0  0
   -3.5392   -0.5542   -0.8524 N   0  0  0  0  0  0  0  0  0  0  0  0
   -2.2845   -1.7912    0.8432 C   0  0  0  0  0  0  0  0  0  0  0  0
   -0.9358   -1.9078    1.5428 C   0  0  2  0  0  0  0  0  0  0  0  0
   -1.0069   -3.0091    2.5091 N   0  0  0  0  0  0  0  0  0  0  0  0
   -0.5657   -0.5718    2.2224 C   0  0  1  0  0  0  0  0  0  0  0  0
    0.7016   -0.8023    2.8567 O   0  0  0  0  0  0  0  0  0  0  0  0
    1.2076    0.2336    3.6919 C   0  0  1  0  0  0  0  0  0  0  0  0
    0.5381    0.2379    4.9499 O   0  0  0  0  0  0  0  0  0  0  0  0
    0.8006   -0.8707    5.8075 C   0  0  2  0  0  0  0  0  0  0  0  0
    0.0014   -0.6950    7.1056 C   0  0  0  0  0  0  0  0  0  0  0  0
   -1.0637    0.2860    6.9534 N   0  0  0  0  0  0  0  0  0  0  0  0
    2.3033   -0.9710    6.1293 C   0  0  1  0  0  0  0  0  0  0  0  0
    2.5460   -2.1118    6.9331 O   0  0  0  0  0  0  0  0  0  0  0  0
    3.0829   -1.0843    4.8133 C   0  0  2  0  0  0  0  0  0  0  0  0
    4.4745   -1.0901    5.0709 O   0  0  0  0  0  0  0  0  0  0  0  0
    2.7214    0.0694    3.8681 C   0  0  1  0  0  0  0  0  0  0  0  0
    3.3763   -0.1204    2.5660 N   0  0  0  0  0  0  0  0  0  0  0  0
   -0.0210    4.1425    2.0683 C   0  0  2  0  0  0  0  0  0  0  0  0
   -0.5346    5.1470    1.2134 O   0  0  0  0  0  0  0  0  0  0  0  0
    1.3603    4.4774    2.6289 C   0  0  2  0  0  0  0  0  0  0  0  0
    1.5504    5.8543    2.8878 O   0  0  0  0  0  0  0  0  0  0  0  0
  2  1  1  0  0  0  0
  3  2  1  1  0  0  0
  3 30  1  0  0  0  0
  4  5  1  0  0  0  0
  4  3  1  0  0  0  0
  5 28  1  0  0  0  0
  5  6  1  1  0  0  0
  7  6  1  1  0  0  0
  8  7  1  0  0  0  0
  8  9  1  6  0  0  0
 10 11  1  1  0  0  0
 10  8  1  0  0  0  0
 12 10  1  0  0  0  0
 13 12  1  0  0  0  0
 13 15  1  0  0  0  0
 13 14  1  1  0  0  0
 15  7  1  0  0  0  0
 15 16  1  6  0  0  0
 17 16  1  6  0  0  0
 18 17  1  0  0  0  0
 19 20  1  1  0  0  0
 19 18  1  0  0  0  0
 20 21  1  0  0  0  0
 22 24  1  0  0  0  0
 22 19  1  0  0  0  0
 22 23  1  1  0  0  0
 24 25  1  1  0  0  0
 24 26  1  0  0  0  0
 26 17  1  0  0  0  0
 26 27  1  6  0  0  0
 28 29  1  6  0  0  0
 28 30  1  0  0  0  0
 30 31  1  6  0  0  0
M  END
>  <CHROM.1>
96.23545546,173.85360024,-78.20757030,-83.49363934,-171.41995062,-46.85968634
-60.83205815,66.14867409,77.07548346,16.90782679,-157.06457829,-67.51229751
80.74531570,42.00962649,-170.54246933,-45.11178742,0.67242813,0.88359954
2.82073275,-1.90687264,0.72349007,2.56336692

>  <Name>
lig.pdb

>  <RI>
0

>  <Rbt.Current_Directory>
/home/itssahil/PROJECTS/Mol_Feturizer/New_Systems/rnas/2n0j

>  <Rbt.Executable>
rbdock ($Id: //depot/dev/client3/rdock/2013.1/src/exe/rbdock.cxx#4 $)

>  <Rbt.Library>
libRbt.so (2013.1, Build901 2013/11/27)

>  <Rbt.Parameter_File>
/export/apps/rDock/src/rDock_2013.1_src/data/scripts/dock_solv.prm

>  <Rbt.Receptor>
prm/blind_docking_40.prm

>  <SCORE>
-36.9015

>  <SCORE.INTER>
-39.5909

>  <SCORE.INTER.CONST>
1

>  <SCORE.INTER.POLAR>
-5.08604

>  <SCORE.INTER.ROT>
6

>  <SCORE.INTER.SOLV>
22.861

>  <SCORE.INTER.VDW>
-24.6608

>  <SCORE.INTER.norm>
-1.27712

>  <SCORE.INTRA>
1.33802

>  <SCORE.INTRA.DIHEDRAL>
-6.72064

>  <SCORE.INTRA.DIHEDRAL.0>
28.0161

>  <SCORE.INTRA.POLAR>
0.894588

>  <SCORE.INTRA.POLAR.0>
-1.05798

>  <SCORE.INTRA.REPUL>
0

>  <SCORE.INTRA.REPUL.0>
0

>  <SCORE.INTRA.SOLV>
-0.0220276

>  <SCORE.INTRA.SOLV.lig_0>
-42.5945

>  <SCORE.INTRA.VDW>
1.66776

>  <SCORE.INTRA.VDW.0>
-5.13869

>  <SCORE.INTRA.norm>
0.043162

>  <SCORE.RESTR>
1.35134

>  <SCORE.RESTR.CAVITY>
1.35134

>  <SCORE.RESTR.norm>
0.0435916

>  <SCORE.SYSTEM>
0

>  <SCORE.SYSTEM.CONST>
0

>  <SCORE.SYSTEM.DIHEDRAL>
0

>  <SCORE.SYSTEM.SOLV>
0

>  <SCORE.SYSTEM.norm>
0

>  <SCORE.heavy>
31

>  <SCORE.norm>
-1.19037

>  <RMSD>
6.168

$$$$
lig.pdb
 OpenBabel11021811453D
libRbt.so/2013.1/901 2013/11/27
 31 33  0  0  0  0  0  0  0  0999 V2000
   -2.5987   -0.1787    8.2849 O   0  0  0  0  0  0  0  0  0  0  0  0
   -3.3292    0.7136    9.1035 C   0  0  0  0  0  0  0  0  0  0  0  0
   -4.3556    1.5111    8.2877 C   0  0  1  0  0  0  0  0  0  0  0  0
   -3.7414    2.2457    7.2407 O   0  0  0  0  0  0  0  0  0  0  0  0
   -4.6803    2.4587    6.1909 C   0  0  1  0  0  0  0  0  0  0  0  0
   -4.0870    2.1334    4.9395 O   0  0  0  0  0  0  0  0  0  0  0  0
   -2.9056    2.8329    4.5820 C   0  0  2  0  0  0  0  0  0  0  0  0
   -3.2964    4.2892    4.2843 C   0  0  1  0  0  0  0  0  0  0  0  0
   -3.6781    4.9373    5.4876 O   0  0  0  0  0  0  0  0  0  0  0  0
   -2.1712    5.1233    3.6532 C   0  0  2  0  0  0  0  0  0  0  0  0
   -2.6441    6.4727    3.3075 N   0  0  0  0  0  0  0  0  0  0  0  0
   -1.6586    4.4282    2.3973 C   0  0  0  0  0  0  0  0  0  0  0  0
   -1.2062    3.0145    2.7417 C   0  0  2  0  0  0  0  0  0  0  0  0
   -0.6682    2.3898    1.5284 N   0  0  0  0  0  0  0  0  0  0  0  0
   -2.3799    2.2034    3.3319 C   0  0  1  0  0  0  0  0  0  0  0  0
   -1.8471    0.8974    3.6003 O   0  0  0  0  0  0  0  0  0  0  0  0
   -2.7816   -0.1430    3.8664 C   0  0  1  0  0  0  0  0  0  0  0  0
   -3.9114   -0.0372    3.0044 O   0  0  0  0  0  0  0  0  0  0  0  0
   -3.6793   -0.3110    1.6243 C   0  0  2  0  0  0  0  0  0  0  0  0
   -4.9984   -0.1506    0.8571 C   0  0  0  0  0  0  0  0  0  0  0  0
   -6.0944   -0.8428    1.5201 N   0  0  0  0  0  0  0  0  0  0  0  0
   -3.1344   -1.7386    1.4329 C   0  0  1  0  0  0  0  0  0  0  0  0
   -2.8569   -1.9657    0.0625 O   0  0  0  0  0  0  0  0  0  0  0  0
   -1.8502   -1.8910    2.2576 C   0  0  2  0  0  0  0  0  0  0  0  0
   -1.3719   -3.2203    2.1724 O   0  0  0  0  0  0  0  0  0  0  0  0
   -2.0983   -1.5076    3.7228 C   0  0  1  0  0  0  0  0  0  0  0  0
   -0.8346   -1.5350    4.4729 N   0  0  0  0  0  0  0  0  0  0  0  0
   -5.8655    1.5193    6.4570 C   0  0  2  0  0  0  0  0  0  0  0  0
   -6.9928    2.2720    6.8647 O   0  0  0  0  0  0  0  0  0  0  0  0
   -5.3296    0.5971    7.5509 C   0  0  2  0  0  0  0  0  0  0  0  0
   -6.3373    0.0526    8.3799 O   0  0  0  0  0  0  0  0  0  0  0  0
  2  1  1  0  0  0  0
  3  2  1  6  0  0  0
  3 30  1  0  0  0  0
  4  5  1  0  0  0  0
  4  3  1  0  0  0  0
  5 28  1  0  0  0  0
  5  6  1  6  0  0  0
  7  6  1  6  0  0  0
  8  7  1  0  0  0  0
  8  9  1  1  0  0  0
 10 11  1  6  0  0  0
 10  8  1  0  0  0  0
 12 10  1  0  0  0  0
 13 12  1  0  0  0  0
 13 15  1  0  0  0  0
 13 14  1  6  0  0  0
 15  7  1  0  0  0  0
 15 16  1  1  0  0  0
 17 16  1  6  0  0  0
 18 17  1  0  0  0  0
 19 20  1  6  0  0  0
 19 18  1  0  0  0  0
 20 21  1  0  0  0  0
 22 24  1  0  0  0  0
 22 19  1  0  0  0  0
 22 23  1  6  0  0  0
 24 25  1  1  0  0  0
 24 26  1  0  0  0  0
 26 17  1  0  0  0  0
 26 27  1  1  0  0  0
 28 29  1  1  0  0  0
 28 30  1  0  0  0  0
 30 31  1  1  0  0  0
M  END
>  <CHROM.1>
63.14728138,-57.83242724,-57.95546502,-69.91273532,-159.13354091,168.22993761
26.26919555,73.05536357,40.20161370,-47.68850366,170.23374806,59.24874933
177.73878936,177.41905535,63.96089309,-60.16144486,-3.33887437,1.16086965
4.29643412,2.36977142,1.13824408,0.25885253

>  <Name>
lig.pdb

>  <RI>
3.32461e+07

>  <Rbt.Current_Directory>
/home/itssahil/PROJECTS/Mol_Feturizer/New_Systems/rnas/2n0j

>  <Rbt.Executable>
rbdock ($Id: //depot/dev/client3/rdock/2013.1/src/exe/rbdock.cxx#4 $)

>  <Rbt.Library>
libRbt.so (2013.1, Build901 2013/11/27)

>  <Rbt.Parameter_File>
/export/apps/rDock/src/rDock_2013.1_src/data/scripts/dock_solv.prm

>  <Rbt.Receptor>
prm/pocket_docking_7.prm

>  <SCORE>
-29.3871

>  <SCORE.INTER>
-26.0565

>  <SCORE.INTER.CONST>
1

>  <SCORE.INTER.POLAR>
-5.47102

>  <SCORE.INTER.ROT>
6

>  <SCORE.INTER.SOLV>
10.4629

>  <SCORE.INTER.VDW>
-10.2219

>  <SCORE.INTER.norm>
-0.840532

>  <SCORE.INTRA>
-3.33061

>  <SCORE.INTRA.DIHEDRAL>
-19.2177

>  <SCORE.INTRA.DIHEDRAL.0>
28.0161

>  <SCORE.INTRA.POLAR>
1.01313

>  <SCORE.INTRA.POLAR.0>
-1.05798

>  <SCORE.INTRA.REPUL>
0

>  <SCORE.INTRA.REPUL.0>
0

>  <SCORE.INTRA.SOLV>
-0.0189208

>  <SCORE.INTRA.SOLV.lig_0>
-42.5945

>  <SCORE.INTRA.VDW>
2.84306

>  <SCORE.INTRA.VDW.0>
-5.13869

>  <SCORE.INTRA.norm>
-0.107439

>  <SCORE.RESTR>
0

>  <SCORE.RESTR.CAVITY>
0

>  <SCORE.RESTR.norm>
0

>  <SCORE.SYSTEM>
0

>  <SCORE.SYSTEM.CONST>
0

>  <SCORE.SYSTEM.DIHEDRAL>
0

>  <SCORE.SYSTEM.SOLV>
0

>  <SCORE.SYSTEM.norm>
0

>  <SCORE.heavy>
31

>  <SCORE.norm>
-0.947971

>  <RMSD>
6.168

$$$$
lig.pdb
 OpenBabel11021811453D
libRbt.so/2013.1/901 2013/11/27
 31 33  0  0  0  0  0  0  0  0999 V2000
    4.7102    4.6019    0.7484 O   0  0  0  0  0  0  0  0  0  0  0  0
    3.7979    3.9697    1.6249 C   0  0  0  0  0  0  0  0  0  0  0  0
    2.7944    3.0984    0.8574 C   0  0  1  0  0  0  0  0  0  0  0  0
    1.8559    2.4845    1.7266 O   0  0  0  0  0  0  0  0  0  0  0  0
    0.6516    2.2135    1.0160 C   0  0  1  0  0  0  0  0  0  0  0  0
   -0.4668    2.6584    1.7744 O   0  0  0  0  0  0  0  0  0  0  0  0
   -0.7194    1.9970    3.0038 C   0  0  2  0  0  0  0  0  0  0  0  0
   -1.4102    0.6620    2.6833 C   0  0  1  0  0  0  0  0  0  0  0  0
   -0.4887   -0.2140    2.0534 O   0  0  0  0  0  0  0  0  0  0  0  0
   -1.9652   -0.0678    3.9160 C   0  0  2  0  0  0  0  0  0  0  0  0
   -2.6948   -1.2841    3.5256 N   0  0  0  0  0  0  0  0  0  0  0  0
   -2.8992    0.8592    4.6850 C   0  0  0  0  0  0  0  0  0  0  0  0
   -2.1606    2.1394    5.0557 C   0  0  2  0  0  0  0  0  0  0  0  0
   -3.0646    2.9872    5.8404 N   0  0  0  0  0  0  0  0  0  0  0  0
   -1.6599    2.8582    3.7844 C   0  0  1  0  0  0  0  0  0  0  0  0
   -1.0012    4.0461    4.2496 O   0  0  0  0  0  0  0  0  0  0  0  0
   -0.8907    5.1290    3.3322 C   0  0  1  0  0  0  0  0  0  0  0  0
   -2.1752    5.5111    2.8476 O   0  0  0  0  0  0  0  0  0  0  0  0
   -3.0486    6.1248    3.7931 C   0  0  2  0  0  0  0  0  0  0  0  0
   -4.3730    6.4664    3.0974 C   0  0  0  0  0  0  0  0  0  0  0  0
   -5.4129    6.8081    4.0574 N   0  0  0  0  0  0  0  0  0  0  0  0
   -2.4176    7.4050    4.3716 C   0  0  1  0  0  0  0  0  0  0  0  0
   -3.2773    7.9632    5.3493 O   0  0  0  0  0  0  0  0  0  0  0  0
   -1.0684    7.0462    5.0066 C   0  0  2  0  0  0  0  0  0  0  0  0
   -0.4222    8.2168    5.4704 O   0  0  0  0  0  0  0  0  0  0  0  0
   -0.1749    6.3084    4.0003 C   0  0  1  0  0  0  0  0  0  0  0  0
    1.0608    5.8588    4.6571 N   0  0  0  0  0  0  0  0  0  0  0  0
    0.7253    3.0008   -0.3004 C   0  0  2  0  0  0  0  0  0  0  0  0
    0.9089    2.1087   -1.3839 O   0  0  0  0  0  0  0  0  0  0  0  0
    1.9183    3.9284   -0.0755 C   0  0  2  0  0  0  0  0  0  0  0  0
    2.5681    4.3188   -1.2690 O   0  0  0  0  0  0  0  0  0  0  0  0
  2  1  1  0  0  0  0
  3  2  1  1  0  0  0
  3 30  1  0  0  0  0
  4  5  1  0  0  0  0
  4  3  1  0  0  0  0
  5 28  1  0  0  0  0
  5  6  1  1  0  0  0
  7  6  1  6  0  0  0
  8  7  1  0  0  0  0
  8  9  1  1  0  0  0
 10 11  1  6  0  0  0
 10  8  1  0  0  0  0
 12 10  1  0  0  0  0
 13 12  1  0  0  0  0
 13 15  1  0  0  0  0
 13 14  1  6  0  0  0
 15  7  1  0  0  0  0
 15 16  1  1  0  0  0
 17 16  1  1  0  0  0
 18 17  1  0  0  0  0
 19 20  1  6  0  0  0
 19 18  1  0  0  0  0
 20 21  1  0  0  0  0
 22 24  1  0  0  0  0
 22 19  1  0  0  0  0
 22 23  1  1  0  0  0
 24 25  1  6  0  0  0
 24 26  1  0  0  0  0
 26 17  1  0  0  0  0
 26 27  1  1  0  0  0
 28 29  1  6  0  0  0
 28 30  1  0  0  0  0
 30 31  1  6  0  0  0
M  END
>  <CHROM.1>
82.64449157,-178.64525571,-65.44588163,-78.55419846,71.60385650,52.48094913
66.93115671,82.39525210,56.21739149,166.82745383,165.26254265,71.66434214
162.89007029,-171.88895558,173.06196513,69.99738443,-0.66355080,3.86359377
2.88819268,-0.65225083,0.60972239,0.21204602

>  <Name>
lig.pdb

>  <RI>
3.50357e+07

>  <Rbt.Current_Directory>
/home/itssahil/PROJECTS/Mol_Feturizer/New_Systems/rnas/2n0j

>  <Rbt.Executable>
rbdock ($Id: //depot/dev/client3/rdock/2013.1/src/exe/rbdock.cxx#4 $)

>  <Rbt.Library>
libRbt.so (2013.1, Build901 2013/11/27)

>  <Rbt.Parameter_File>
/export/apps/rDock/src/rDock_2013.1_src/data/scripts/dock_solv.prm

>  <Rbt.Receptor>
prm/pocket_docking_3.prm

>  <SCORE>
1111.47

>  <SCORE.INTER>
1110.77

>  <SCORE.INTER.CONST>
1

>  <SCORE.INTER.POLAR>
-0.945379

>  <SCORE.INTER.ROT>
6

>  <SCORE.INTER.SOLV>
30.9719

>  <SCORE.INTER.VDW>
725.742

>  <SCORE.INTER.norm>
35.8313

>  <SCORE.INTRA>
-4.92595

>  <SCORE.INTRA.DIHEDRAL>
-16.4875

>  <SCORE.INTRA.DIHEDRAL.0>
28.0161

>  <SCORE.INTRA.POLAR>
0.509194

>  <SCORE.INTRA.POLAR.0>
-1.05798

>  <SCORE.INTRA.REPUL>
0

>  <SCORE.INTRA.REPUL.0>
0

>  <SCORE.INTRA.SOLV>
0.375382

>  <SCORE.INTRA.SOLV.lig_0>
-42.5945

>  <SCORE.INTRA.VDW>
1.39883

>  <SCORE.INTRA.VDW.0>
-5.13869

>  <SCORE.INTRA.norm>
-0.158902

>  <SCORE.RESTR>
5.62452

>  <SCORE.RESTR.CAVITY>
5.62452

>  <SCORE.RESTR.norm>
0.181436

>  <SCORE.SYSTEM>
0

>  <SCORE.SYSTEM.CONST>
0

>  <SCORE.SYSTEM.DIHEDRAL>
0

>  <SCORE.SYSTEM.SOLV>
0

>  <SCORE.SYSTEM.norm>
0

>  <SCORE.heavy>
31

>  <SCORE.norm>
35.8539

>  <RMSD>
6.170

$$$$
lig.pdb
 OpenBabel11021811453D
libRbt.so/2013.1/901 2013/11/27
 31 33  0  0  0  0  0  0  0  0999 V2000
    4.4096    3.4589    1.1772 O   0  0  0  0  0  0  0  0  0  0  0  0
    3.6006    4.0765    2.1591 C   0  0  0  0  0  0  0  0  0  0  0  0
    2.1526    4.2335    1.6754 C   0  0  1  0  0  0  0  0  0  0  0  0
    1.5966    2.9948    1.2638 O   0  0  0  0  0  0  0  0  0  0  0  0
    0.1798    3.0359    1.4043 C   0  0  1  0  0  0  0  0  0  0  0  0
   -0.2740    1.8610    2.0657 O   0  0  0  0  0  0  0  0  0  0  0  0
   -0.4216    0.6907    1.2774 C   0  0  2  0  0  0  0  0  0  0  0  0
   -1.7594    0.7972    0.5282 C   0  0  1  0  0  0  0  0  0  0  0  0
   -1.6761    1.8155   -0.4565 O   0  0  0  0  0  0  0  0  0  0  0  0
   -2.1820   -0.4957   -0.1860 C   0  0  2  0  0  0  0  0  0  0  0  0
   -3.5121   -0.3507   -0.7975 N   0  0  0  0  0  0  0  0  0  0  0  0
   -2.2046   -1.6492    0.8099 C   0  0  0  0  0  0  0  0  0  0  0  0
   -0.8409   -1.7775    1.4776 C   0  0  2  0  0  0  0  0  0  0  0  0
   -0.8752   -2.9269    2.3882 N   0  0  0  0  0  0  0  0  0  0  0  0
   -0.4795   -0.4711    2.2167 C   0  0  1  0  0  0  0  0  0  0  0  0
    0.8035   -0.7112    2.8150 O   0  0  0  0  0  0  0  0  0  0  0  0
    1.2811    0.2607    3.7391 C   0  0  1  0  0  0  0  0  0  0  0  0
    0.5797    0.1665    4.9760 O   0  0  0  0  0  0  0  0  0  0  0  0
    0.8274   -1.0028    5.7537 C   0  0  2  0  0  0  0  0  0  0  0  0
   -0.0059   -0.9298    7.0401 C   0  0  0  0  0  0  0  0  0  0  0  0
   -0.0917    0.4314    7.5495 N   0  0  0  0  0  0  0  0  0  0  0  0
    2.3220   -1.1202    6.1059 C   0  0  1  0  0  0  0  0  0  0  0  0
    2.5516   -2.3176    6.8271 O   0  0  0  0  0  0  0  0  0  0  0  0
    3.1357   -1.1297    4.8058 C   0  0  2  0  0  0  0  0  0  0  0  0
    4.5203   -1.1486    5.0984 O   0  0  0  0  0  0  0  0  0  0  0  0
    2.7910    0.0907    3.9417 C   0  0  1  0  0  0  0  0  0  0  0  0
    3.4802    0.0033    2.6464 N   0  0  0  0  0  0  0  0  0  0  0  0
   -0.1464    4.2668    2.2626 C   0  0  2  0  0  0  0  0  0  0  0  0
   -0.7548    5.2630    1.4620 O   0  0  0  0  0  0  0  0  0  0  0  0
    1.2232    4.6794    2.7997 C   0  0  2  0  0  0  0  0  0  0  0  0
    1.3221    6.0557    3.1080 O   0  0  0  0  0  0  0  0  0  0  0  0
  2  1  1  0  0  0  0
  3  2  1  1  0  0  0
  3 30  1  0  0  0  0
  4  5  1  0  0  0  0
  4  3  1  0  0  0  0
  5 28  1  0  0  0  0
  5  6  1  1  0  0  0
  7  6  1  1  0  0  0
  8  7  1  0  0  0  0
  8  9  1  6  0  0  0
 10 11  1  1  0  0  0
 10  8  1  0  0  0  0
 12 10  1  0  0  0  0
 13 12  1  0  0  0  0
 13 15  1  0  0  0  0
 13 14  1  1  0  0  0
 15  7  1  0  0  0  0
 15 16  1  6  0  0  0
 17 16  1  6  0  0  0
 18 17  1  0  0  0  0
 19 20  1  1  0  0  0
 19 18  1  0  0  0  0
 20 21  1  0  0  0  0
 22 24  1  0  0  0  0
 22 19  1  0  0  0  0
 22 23  1  6  0  0  0
 24 25  1  1  0  0  0
 24 26  1  0  0  0  0
 26 17  1  0  0  0  0
 26 27  1  6  0  0  0
 28 29  1  6  0  0  0
 28 30  1  0  0  0  0
 30 31  1  6  0  0  0
M  END
>  <CHROM.1>
-55.71039913,55.09339299,-81.07528341,-80.15023168,69.23492245,-53.99638343
178.34126191,68.95714786,74.09244163,-36.58465961,168.84049232,-58.30488060
-178.48301151,150.49304246,63.72538994,-169.16772645,0.71034693,0.91753876
2.84220655,-2.01269782,0.73160337,2.60874539

>  <Name>
lig.pdb

>  <RI>
9.20816e+06

>  <Rbt.Current_Directory>
/home/itssahil/PROJECTS/Mol_Feturizer/New_Systems/rnas/2n0j

>  <Rbt.Executable>
rbdock ($Id: //depot/dev/client3/rdock/2013.1/src/exe/rbdock.cxx#4 $)

>  <Rbt.Library>
libRbt.so (2013.1, Build901 2013/11/27)

>  <Rbt.Parameter_File>
/export/apps/rDock/src/rDock_2013.1_src/data/scripts/dock_solv.prm

>  <Rbt.Receptor>
prm/blind_docking_100.prm

>  <SCORE>
-39.0528

>  <SCORE.INTER>
-35.5477

>  <SCORE.INTER.CONST>
1

>  <SCORE.INTER.POLAR>
-4.18171

>  <SCORE.INTER.ROT>
6

>  <SCORE.INTER.SOLV>
24.17

>  <SCORE.INTER.VDW>
-25.4161

>  <SCORE.INTER.norm>
-1.1467

>  <SCORE.INTRA>
-3.84273

>  <SCORE.INTRA.DIHEDRAL>
-17.425

>  <SCORE.INTRA.DIHEDRAL.0>
28.0161

>  <SCORE.INTRA.POLAR>
0.978627

>  <SCORE.INTRA.POLAR.0>
-1.05798

>  <SCORE.INTRA.REPUL>
0.00274287

>  <SCORE.INTRA.REPUL.0>
0

>  <SCORE.INTRA.SOLV>
-0.489424

>  <SCORE.INTRA.SOLV.lig_0>
-42.5945

>  <SCORE.INTRA.VDW>
1.77345

>  <SCORE.INTRA.VDW.0>
-5.13869

>  <SCORE.INTRA.norm>
-0.123959

>  <SCORE.RESTR>
0.337631

>  <SCORE.RESTR.CAVITY>
0.337631

>  <SCORE.RESTR.norm>
0.0108913

>  <SCORE.SYSTEM>
0

>  <SCORE.SYSTEM.CONST>
0

>  <SCORE.SYSTEM.DIHEDRAL>
0

>  <SCORE.SYSTEM.SOLV>
0

>  <SCORE.SYSTEM.norm>
0

>  <SCORE.heavy>
31

>  <SCORE.norm>
-1.25977

>  <RMSD>
6.173

$$$$
lig.pdb
 OpenBabel11021811453D
libRbt.so/2013.1/901 2013/11/27
 31 33  0  0  0  0  0  0  0  0999 V2000
    4.1456    3.5137    0.7876 O   0  0  0  0  0  0  0  0  0  0  0  0
    3.4629    4.1418    1.8551 C   0  0  0  0  0  0  0  0  0  0  0  0
    1.9743    4.3324    1.5343 C   0  0  1  0  0  0  0  0  0  0  0  0
    1.3649    3.1207    1.1181 O   0  0  0  0  0  0  0  0  0  0  0  0
   -0.0291    3.1619    1.4077 C   0  0  1  0  0  0  0  0  0  0  0  0
   -0.4245    1.9556    2.0497 O   0  0  0  0  0  0  0  0  0  0  0  0
   -0.5401    0.7980    1.2376 C   0  0  2  0  0  0  0  0  0  0  0  0
   -1.9208    0.8357    0.5635 C   0  0  1  0  0  0  0  0  0  0  0  0
   -1.9565    1.8813   -0.3950 O   0  0  0  0  0  0  0  0  0  0  0  0
   -2.2986   -0.4639   -0.1635 C   0  0  2  0  0  0  0  0  0  0  0  0
   -3.6666   -0.3907   -0.6995 N   0  0  0  0  0  0  0  0  0  0  0  0
   -2.1933   -1.6408    0.7992 C   0  0  0  0  0  0  0  0  0  0  0  0
   -0.7897   -1.6964    1.3900 C   0  0  2  0  0  0  0  0  0  0  0  0
   -0.7010   -2.8678    2.2683 N   0  0  0  0  0  0  0  0  0  0  0  0
   -0.4725   -0.3879    2.1456 C   0  0  1  0  0  0  0  0  0  0  0  0
    0.8539   -0.5587    2.6681 O   0  0  0  0  0  0  0  0  0  0  0  0
    1.2896    0.3742    3.6512 C   0  0  1  0  0  0  0  0  0  0  0  0
    0.4767    0.2915    4.8187 O   0  0  0  0  0  0  0  0  0  0  0  0
    0.6015   -0.9010    5.5906 C   0  0  2  0  0  0  0  0  0  0  0  0
   -0.3397   -0.8114    6.7993 C   0  0  0  0  0  0  0  0  0  0  0  0
   -0.6630   -2.1286    7.3286 N   0  0  0  0  0  0  0  0  0  0  0  0
    2.0518   -1.0932    6.0715 C   0  0  1  0  0  0  0  0  0  0  0  0
    2.1624   -2.3120    6.7849 O   0  0  0  0  0  0  0  0  0  0  0  0
    2.9775   -1.1183    4.8488 C   0  0  2  0  0  0  0  0  0  0  0  0
    4.3281   -1.2060    5.2626 O   0  0  0  0  0  0  0  0  0  0  0  0
    2.7662    0.1313    3.9833 C   0  0  1  0  0  0  0  0  0  0  0  0
    3.5641    0.0340    2.7527 N   0  0  0  0  0  0  0  0  0  0  0  0
   -0.2506    4.3466    2.3593 C   0  0  2  0  0  0  0  0  0  0  0  0
   -0.9280    5.3877    1.6805 O   0  0  0  0  0  0  0  0  0  0  0  0
    1.1718    4.7222    2.7715 C   0  0  2  0  0  0  0  0  0  0  0  0
    1.3174    6.0794    3.1402 O   0  0  0  0  0  0  0  0  0  0  0  0
  2  1  1  0  0  0  0
  3  2  1  1  0  0  0
  3 30  1  0  0  0  0
  4  5  1  0  0  0  0
  4  3  1  0  0  0  0
  5 28  1  0  0  0  0
  5  6  1  1  0  0  0
  7  6  1  1  0  0  0
  8  7  1  0  0  0  0
  8  9  1  6  0  0  0
 10 11  1  1  0  0  0
 10  8  1  0  0  0  0
 12 10  1  0  0  0  0
 13 12  1  0  0  0  0
 13 15  1  0  0  0  0
 13 14  1  1  0  0  0
 15  7  1  0  0  0  0
 15 16  1  6  0  0  0
 17 16  1  6  0  0  0
 18 17  1  0  0  0  0
 19 20  1  1  0  0  0
 19 18  1  0  0  0  0
 20 21  1  0  0  0  0
 22 24  1  0  0  0  0
 22 19  1  0  0  0  0
 22 23  1  6  0  0  0
 24 25  1  1  0  0  0
 24 26  1  0  0  0  0
 26 17  1  0  0  0  0
 26 27  1  6  0  0  0
 28 29  1  6  0  0  0
 28 30  1  0  0  0  0
 30 31  1  6  0  0  0
M  END
>  <CHROM.1>
-73.22569985,52.22047403,-75.11445908,-82.69373591,73.13785636,-179.34060247
171.36643871,72.53225663,62.61299048,157.85278928,-55.29372822,176.44251914
86.61760209,21.48368298,-57.89693007,-175.28424866,0.57705758,0.87805668
2.79433552,-1.79342432,0.68085873,2.58519277

>  <Name>
lig.pdb

>  <RI>
1.79691e+07

>  <Rbt.Current_Directory>
/home/itssahil/PROJECTS/Mol_Feturizer/New_Systems/rnas/2n0j

>  <Rbt.Executable>
rbdock ($Id: //depot/dev/client3/rdock/2013.1/src/exe/rbdock.cxx#4 $)

>  <Rbt.Library>
libRbt.so (2013.1, Build901 2013/11/27)

>  <Rbt.Parameter_File>
/export/apps/rDock/src/rDock_2013.1_src/data/scripts/dock_solv.prm

>  <Rbt.Receptor>
prm/blind_docking_20.prm

>  <SCORE>
-45.7505

>  <SCORE.INTER>
-43.0081

>  <SCORE.INTER.CONST>
1

>  <SCORE.INTER.POLAR>
-6.06915

>  <SCORE.INTER.ROT>
6

>  <SCORE.INTER.SOLV>
24.4314

>  <SCORE.INTER.VDW>
-24.1854

>  <SCORE.INTER.norm>
-1.38736

>  <SCORE.INTRA>
-3.42364

>  <SCORE.INTRA.DIHEDRAL>
-14.1864

>  <SCORE.INTRA.DIHEDRAL.0>
28.0161

>  <SCORE.INTRA.POLAR>
0.648815

>  <SCORE.INTRA.POLAR.0>
-1.05798

>  <SCORE.INTRA.REPUL>
0.0228594

>  <SCORE.INTRA.REPUL.0>
0

>  <SCORE.INTRA.SOLV>
-0.0813795

>  <SCORE.INTRA.SOLV.lig_0>
-42.5945

>  <SCORE.INTRA.VDW>
1.39

>  <SCORE.INTRA.VDW.0>
-5.13869

>  <SCORE.INTRA.norm>
-0.11044

>  <SCORE.RESTR>
0.681251

>  <SCORE.RESTR.CAVITY>
0.681251

>  <SCORE.RESTR.norm>
0.0219758

>  <SCORE.SYSTEM>
0

>  <SCORE.SYSTEM.CONST>
0

>  <SCORE.SYSTEM.DIHEDRAL>
0

>  <SCORE.SYSTEM.SOLV>
0

>  <SCORE.SYSTEM.norm>
0

>  <SCORE.heavy>
31

>  <SCORE.norm>
-1.47582

>  <RMSD>
6.178

$$$$
lig.pdb
 OpenBabel11021811453D
libRbt.so/2013.1/901 2013/11/27
 31 33  0  0  0  0  0  0  0  0999 V2000
    4.2240    2.6831    1.8993 O   0  0  0  0  0  0  0  0  0  0  0  0
    3.7387    3.9596    2.2671 C   0  0  0  0  0  0  0  0  0  0  0  0
    2.3127    4.1886    1.7482 C   0  0  1  0  0  0  0  0  0  0  0  0
    1.7025    2.9777    1.3305 O   0  0  0  0  0  0  0  0  0  0  0  0
    0.2868    3.0937    1.4370 C   0  0  1  0  0  0  0  0  0  0  0  0
   -0.2432    1.9486    2.0940 O   0  0  0  0  0  0  0  0  0  0  0  0
   -0.4123    0.7754    1.3143 C   0  0  2  0  0  0  0  0  0  0  0  0
   -1.7827    0.8659    0.6244 C   0  0  1  0  0  0  0  0  0  0  0  0
   -1.7540    1.8835   -0.3641 O   0  0  0  0  0  0  0  0  0  0  0  0
   -2.2218   -0.4327   -0.0690 C   0  0  2  0  0  0  0  0  0  0  0  0
   -3.5790   -0.3034   -0.6218 N   0  0  0  0  0  0  0  0  0  0  0  0
   -2.1879   -1.5848    0.9283 C   0  0  0  0  0  0  0  0  0  0  0  0
   -0.7949   -1.6969    1.5356 C   0  0  2  0  0  0  0  0  0  0  0  0
   -0.7765   -2.8451    2.4482 N   0  0  0  0  0  0  0  0  0  0  0  0
   -0.4159   -0.3853    2.2567 C   0  0  1  0  0  0  0  0  0  0  0  0
    0.8946   -0.6102    2.7984 O   0  0  0  0  0  0  0  0  0  0  0  0
    1.3991    0.3654    3.7041 C   0  0  1  0  0  0  0  0  0  0  0  0
    0.6901    0.3195    4.9394 O   0  0  0  0  0  0  0  0  0  0  0  0
    0.8977   -0.8403    5.7426 C   0  0  2  0  0  0  0  0  0  0  0  0
    0.0620   -0.7138    7.0234 C   0  0  0  0  0  0  0  0  0  0  0  0
   -0.9962   -1.7124    7.0766 N   0  0  0  0  0  0  0  0  0  0  0  0
    2.3864   -0.9973    6.1041 C   0  0  1  0  0  0  0  0  0  0  0  0
    2.5752   -2.1858    6.8514 O   0  0  0  0  0  0  0  0  0  0  0  0
    3.2046   -1.0600    4.8083 C   0  0  2  0  0  0  0  0  0  0  0  0
    4.5867   -1.1163    5.1076 O   0  0  0  0  0  0  0  0  0  0  0  0
    2.9020    0.1522    3.9171 C   0  0  1  0  0  0  0  0  0  0  0  0
    3.5932    0.0157    2.6271 N   0  0  0  0  0  0  0  0  0  0  0  0
    0.0054    4.3458    2.2803 C   0  0  2  0  0  0  0  0  0  0  0  0
   -0.5310    5.3668    1.4598 O   0  0  0  0  0  0  0  0  0  0  0  0
    1.3817    4.6901    2.8475 C   0  0  2  0  0  0  0  0  0  0  0  0
    1.5452    6.0615    3.1502 O   0  0  0  0  0  0  0  0  0  0  0  0
  2  1  1  0  0  0  0
  3  2  1  1  0  0  0
  3 30  1  0  0  0  0
  4  5  1  0  0  0  0
  4  3  1  0  0  0  0
  5 28  1  0  0  0  0
  5  6  1  1  0  0  0
  7  6  1  1  0  0  0
  8  7  1  0  0  0  0
  8  9  1  6  0  0  0
 10 11  1  1  0  0  0
 10  8  1  0  0  0  0
 12 10  1  0  0  0  0
 13 12  1  0  0  0  0
 13 15  1  0  0  0  0
 13 14  1  1  0  0  0
 15  7  1  0  0  0  0
 15 16  1  6  0  0  0
 17 16  1  6  0  0  0
 18 17  1  0  0  0  0
 19 20  1  1  0  0  0
 19 18  1  0  0  0  0
 20 21  1  0  0  0  0
 22 24  1  0  0  0  0
 22 19  1  0  0  0  0
 22 23  1  6  0  0  0
 24 25  1  1  0  0  0
 24 26  1  0  0  0  0
 26 17  1  0  0  0  0
 26 27  1  6  0  0  0
 28 29  1  6  0  0  0
 28 30  1  0  0  0  0
 30 31  1  6  0  0  0
M  END
>  <CHROM.1>
-170.35337983,14.85078834,-80.04347439,-85.85394320,64.82843380,-175.44084570
177.25815762,69.22560893,70.12129389,113.66847704,-68.93851007,-55.07730294
176.22714697,-74.68050454,-177.38834189,-176.33511475,0.74371080,0.87221707
2.88888122,-1.91232175,0.65816397,2.59675446

>  <Name>
lig.pdb

>  <RI>
1.55206e+07

>  <Rbt.Current_Directory>
/home/itssahil/PROJECTS/Mol_Feturizer/New_Systems/rnas/2n0j

>  <Rbt.Executable>
rbdock ($Id: //depot/dev/client3/rdock/2013.1/src/exe/rbdock.cxx#4 $)

>  <Rbt.Library>
libRbt.so (2013.1, Build901 2013/11/27)

>  <Rbt.Parameter_File>
/export/apps/rDock/src/rDock_2013.1_src/data/scripts/dock_solv.prm

>  <Rbt.Receptor>
prm/blind_docking_80.prm

>  <SCORE>
-43.4781

>  <SCORE.INTER>
-42.1115

>  <SCORE.INTER.CONST>
1

>  <SCORE.INTER.POLAR>
-4.89417

>  <SCORE.INTER.ROT>
6

>  <SCORE.INTER.SOLV>
25.1944

>  <SCORE.INTER.VDW>
-27.7586

>  <SCORE.INTER.norm>
-1.35844

>  <SCORE.INTRA>
-1.87335

>  <SCORE.INTRA.DIHEDRAL>
-10.9422

>  <SCORE.INTRA.DIHEDRAL.0>
28.0161

>  <SCORE.INTRA.POLAR>
0.662806

>  <SCORE.INTRA.POLAR.0>
-1.05798

>  <SCORE.INTRA.REPUL>
0

>  <SCORE.INTRA.REPUL.0>
0

>  <SCORE.INTRA.SOLV>
0.576634

>  <SCORE.INTRA.SOLV.lig_0>
-42.5945

>  <SCORE.INTRA.VDW>
1.05588

>  <SCORE.INTRA.VDW.0>
-5.13869

>  <SCORE.INTRA.norm>
-0.0604306

>  <SCORE.RESTR>
0.506734

>  <SCORE.RESTR.CAVITY>
0.506734

>  <SCORE.RESTR.norm>
0.0163463

>  <SCORE.SYSTEM>
0

>  <SCORE.SYSTEM.CONST>
0

>  <SCORE.SYSTEM.DIHEDRAL>
0

>  <SCORE.SYSTEM.SOLV>
0

>  <SCORE.SYSTEM.norm>
0

>  <SCORE.heavy>
31

>  <SCORE.norm>
-1.40252

>  <RMSD>
6.189

$$$$
lig.pdb
 OpenBabel11021811453D
libRbt.so/2013.1/901 2013/11/27
 31 33  0  0  0  0  0  0  0  0999 V2000
    0.0382    6.1237    2.6916 O   0  0  0  0  0  0  0  0  0  0  0  0
    1.2903    5.7466    3.2301 C   0  0  0  0  0  0  0  0  0  0  0  0
    1.7626    4.4009    2.6632 C   0  0  1  0  0  0  0  0  0  0  0  0
    0.9344    3.3299    3.0877 O   0  0  0  0  0  0  0  0  0  0  0  0
    0.9928    2.2731    2.1345 C   0  0  1  0  0  0  0  0  0  0  0  0
   -0.3228    1.8278    1.8265 O   0  0  0  0  0  0  0  0  0  0  0  0
   -0.4419    0.6169    1.0968 C   0  0  2  0  0  0  0  0  0  0  0  0
   -1.7515    0.6810    0.2950 C   0  0  1  0  0  0  0  0  0  0  0  0
   -1.6325    1.6456   -0.7388 O   0  0  0  0  0  0  0  0  0  0  0  0
   -2.1482   -0.6487   -0.3642 C   0  0  2  0  0  0  0  0  0  0  0  0
   -3.4552   -0.5388   -1.0304 N   0  0  0  0  0  0  0  0  0  0  0  0
   -2.2071   -1.7477    0.6902 C   0  0  0  0  0  0  0  0  0  0  0  0
   -0.8685   -1.8378    1.4127 C   0  0  2  0  0  0  0  0  0  0  0  0
   -0.9360   -2.9373    2.3814 N   0  0  0  0  0  0  0  0  0  0  0  0
   -0.5339   -0.4933    2.0939 C   0  0  1  0  0  0  0  0  0  0  0  0
    0.7264   -0.6990    2.7502 O   0  0  0  0  0  0  0  0  0  0  0  0
    1.0949    0.2379    3.7567 C   0  0  1  0  0  0  0  0  0  0  0  0
    0.2913    0.0677    4.9212 O   0  0  0  0  0  0  0  0  0  0  0  0
    0.5026   -1.1318    5.6630 C   0  0  2  0  0  0  0  0  0  0  0  0
   -0.4412   -1.1405    6.8729 C   0  0  0  0  0  0  0  0  0  0  0  0
   -1.6544   -1.8993    6.6038 N   0  0  0  0  0  0  0  0  0  0  0  0
    1.9635   -1.2311    6.1399 C   0  0  1  0  0  0  0  0  0  0  0  0
    2.1624   -2.4562    6.8225 O   0  0  0  0  0  0  0  0  0  0  0  0
    2.8872   -1.1587    4.9176 C   0  0  2  0  0  0  0  0  0  0  0  0
    4.2411   -1.1593    5.3300 O   0  0  0  0  0  0  0  0  0  0  0  0
    2.5855    0.0937    4.0836 C   0  0  1  0  0  0  0  0  0  0  0  0
    3.3870    0.0851    2.8515 N   0  0  0  0  0  0  0  0  0  0  0  0
    1.6488    2.8493    0.8713 C   0  0  2  0  0  0  0  0  0  0  0  0
    2.9492    2.3117    0.7176 O   0  0  0  0  0  0  0  0  0  0  0  0
    1.6472    4.3528    1.1430 C   0  0  2  0  0  0  0  0  0  0  0  0
    2.6757    5.0531    0.4716 O   0  0  0  0  0  0  0  0  0  0  0  0
  2  1  1  0  0  0  0
  3  2  1  1  0  0  0
  3 30  1  0  0  0  0
  4  5  1  0  0  0  0
  4  3  1  0  0  0  0
  5 28  1  0  0  0  0
  5  6  1  6  0  0  0
  7  6  1  1  0  0  0
  8  7  1  0  0  0  0
  8  9  1  6  0  0  0
 10 11  1  1  0  0  0
 10  8  1  0  0  0  0
 12 10  1  0  0  0  0
 13 12  1  0  0  0  0
 13 15  1  0  0  0  0
 13 14  1  1  0  0  0
 15  7  1  0  0  0  0
 15 16  1  6  0  0  0
 17 16  1  6  0  0  0
 18 17  1  0  0  0  0
 19 20  1  1  0  0  0
 19 18  1  0  0  0  0
 20 21  1  0  0  0  0
 22 24  1  0  0  0  0
 22 19  1  0  0  0  0
 22 23  1  6  0  0  0
 24 25  1  1  0  0  0
 24 26  1  0  0  0  0
 26 17  1  0  0  0  0
 26 27  1  6  0  0  0
 28 29  1  1  0  0  0
 28 30  1  0  0  0  0
 30 31  1  6  0  0  0
M  END
>  <CHROM.1>
62.08013269,-67.00448606,-168.13468667,-152.09036363,59.39125035,57.63744879
-63.76080267,76.36185045,71.40985240,96.46694347,80.76442413,176.56004805
93.38929560,35.85572843,-68.48209643,46.71847528,0.57207349,0.72520853,2.75799555
-1.62593501,0.77969037,2.50518300

>  <Name>
lig.pdb

>  <RI>
1.55206e+07

>  <Rbt.Current_Directory>
/home/itssahil/PROJECTS/Mol_Feturizer/New_Systems/rnas/2n0j

>  <Rbt.Executable>
rbdock ($Id: //depot/dev/client3/rdock/2013.1/src/exe/rbdock.cxx#4 $)

>  <Rbt.Library>
libRbt.so (2013.1, Build901 2013/11/27)

>  <Rbt.Parameter_File>
/export/apps/rDock/src/rDock_2013.1_src/data/scripts/dock_solv.prm

>  <Rbt.Receptor>
prm/blind_docking_80.prm

>  <SCORE>
-32.003

>  <SCORE.INTER>
-34.5883

>  <SCORE.INTER.CONST>
1

>  <SCORE.INTER.POLAR>
-4.21452

>  <SCORE.INTER.ROT>
6

>  <SCORE.INTER.SOLV>
23.9455

>  <SCORE.INTER.VDW>
-24.5923

>  <SCORE.INTER.norm>
-1.11575

>  <SCORE.INTRA>
2.04444

>  <SCORE.INTRA.DIHEDRAL>
-10.5209

>  <SCORE.INTRA.DIHEDRAL.0>
28.0161

>  <SCORE.INTRA.POLAR>
0.738792

>  <SCORE.INTRA.POLAR.0>
-1.05798

>  <SCORE.INTRA.REPUL>
0

>  <SCORE.INTRA.REPUL.0>
0

>  <SCORE.INTRA.SOLV>
1.00958

>  <SCORE.INTRA.SOLV.lig_0>
-42.5945

>  <SCORE.INTRA.VDW>
4.28818

>  <SCORE.INTRA.VDW.0>
-5.13869

>  <SCORE.INTRA.norm>
0.0659496

>  <SCORE.RESTR>
0.540871

>  <SCORE.RESTR.CAVITY>
0.540871

>  <SCORE.RESTR.norm>
0.0174474

>  <SCORE.SYSTEM>
0

>  <SCORE.SYSTEM.CONST>
0

>  <SCORE.SYSTEM.DIHEDRAL>
0

>  <SCORE.SYSTEM.SOLV>
0

>  <SCORE.SYSTEM.norm>
0

>  <SCORE.heavy>
31

>  <SCORE.norm>
-1.03235

>  <RMSD>
6.191

$$$$
lig.pdb
 OpenBabel11021811453D
libRbt.so/2013.1/901 2013/11/27
 31 33  0  0  0  0  0  0  0  0999 V2000
   -4.0530    0.8232   -1.3195 O   0  0  0  0  0  0  0  0  0  0  0  0
   -2.6900    0.4687   -1.1898 C   0  0  0  0  0  0  0  0  0  0  0  0
   -2.0054    1.2705   -0.0746 C   0  0  1  0  0  0  0  0  0  0  0  0
   -2.7914    1.3094    1.1059 O   0  0  0  0  0  0  0  0  0  0  0  0
   -1.9466    1.4962    2.2374 C   0  0  1  0  0  0  0  0  0  0  0  0
   -2.2901    0.5638    3.2555 O   0  0  0  0  0  0  0  0  0  0  0  0
   -1.4798    0.5493    4.4199 C   0  0  2  0  0  0  0  0  0  0  0  0
   -1.2195   -0.9194    4.7903 C   0  0  1  0  0  0  0  0  0  0  0  0
   -0.3678   -1.5127    3.8228 O   0  0  0  0  0  0  0  0  0  0  0  0
   -0.5559   -1.1113    6.1625 C   0  0  2  0  0  0  0  0  0  0  0  0
   -0.4265   -2.5393    6.4915 N   0  0  0  0  0  0  0  0  0  0  0  0
   -1.3851   -0.4165    7.2362 C   0  0  0  0  0  0  0  0  0  0  0  0
   -1.5581    1.0547    6.8788 C   0  0  2  0  0  0  0  0  0  0  0  0
   -2.3113    1.7090    7.9542 N   0  0  0  0  0  0  0  0  0  0  0  0
   -2.2664    1.1966    5.5143 C   0  0  1  0  0  0  0  0  0  0  0  0
   -2.3891    2.6096    5.2910 O   0  0  0  0  0  0  0  0  0  0  0  0
   -3.6540    3.2028    5.5647 C   0  0  1  0  0  0  0  0  0  0  0  0
   -3.6601    3.8008    6.8581 O   0  0  0  0  0  0  0  0  0  0  0  0
   -2.8449    4.9594    7.0208 C   0  0  2  0  0  0  0  0  0  0  0  0
   -2.9781    5.4621    8.4645 C   0  0  0  0  0  0  0  0  0  0  0  0
   -1.9650    6.4580    8.7834 N   0  0  0  0  0  0  0  0  0  0  0  0
   -3.2680    6.0693    6.0405 C   0  0  1  0  0  0  0  0  0  0  0  0
   -2.4077    7.1858    6.1807 O   0  0  0  0  0  0  0  0  0  0  0  0
   -3.1842    5.5221    4.6101 C   0  0  2  0  0  0  0  0  0  0  0  0
   -3.6510    6.4911    3.6902 O   0  0  0  0  0  0  0  0  0  0  0  0
   -3.9966    4.2269    4.4768 C   0  0  1  0  0  0  0  0  0  0  0  0
   -3.8049    3.6459    3.1404 N   0  0  0  0  0  0  0  0  0  0  0  0
   -0.5084    1.2356    1.7664 C   0  0  2  0  0  0  0  0  0  0  0  0
    0.2119    2.4534    1.7261 O   0  0  0  0  0  0  0  0  0  0  0  0
   -0.7104    0.6097    0.3873 C   0  0  2  0  0  0  0  0  0  0  0  0
    0.3771    0.8112   -0.4935 O   0  0  0  0  0  0  0  0  0  0  0  0
  2  1  1  0  0  0  0
  3  2  1  6  0  0  0
  3 30  1  0  0  0  0
  4  5  1  0  0  0  0
  4  3  1  0  0  0  0
  5 28  1  0  0  0  0
  5  6  1  1  0  0  0
  7  6  1  6  0  0  0
  8  7  1  0  0  0  0
  8  9  1  6  0  0  0
 10 11  1  1  0  0  0
 10  8  1  0  0  0  0
 12 10  1  0  0  0  0
 13 12  1  0  0  0  0
 13 15  1  0  0  0  0
 13 14  1  1  0  0  0
 15  7  1  0  0  0  0
 15 16  1  6  0  0  0
 17 16  1  6  0  0  0
 18 17  1  0  0  0  0
 19 20  1  1  0  0  0
 19 18  1  0  0  0  0
 20 21  1  0  0  0  0
 22 24  1  0  0  0  0
 22 19  1  0  0  0  0
 22 23  1  6  0  0  0
 24 25  1  6  0  0  0
 24 26  1  0  0  0  0
 26 17  1  0  0  0  0
 26 27  1  6  0  0  0
 28 29  1  6  0  0  0
 28 30  1  0  0  0  0
 30 31  1  6  0  0  0
M  END
>  <CHROM.1>
-46.67775778,45.97937573,175.60078329,-136.91477176,57.29522782,155.81782104
69.19994251,138.82374941,97.66685593,167.66905315,169.47568583,-172.50847236
174.88581208,44.41813272,-70.31356303,172.85400632,-2.11377787,2.24061475
4.20063941,1.02721816,1.22389121,-1.72615673

>  <Name>
lig.pdb

>  <RI>
0

>  <Rbt.Current_Directory>
/home/itssahil/PROJECTS/Mol_Feturizer/New_Systems/rnas/2n0j

>  <Rbt.Executable>
rbdock ($Id: //depot/dev/client3/rdock/2013.1/src/exe/rbdock.cxx#4 $)

>  <Rbt.Library>
libRbt.so (2013.1, Build901 2013/11/27)

>  <Rbt.Parameter_File>
/export/apps/rDock/src/rDock_2013.1_src/data/scripts/dock_solv.prm

>  <Rbt.Receptor>
prm/pocket_docking_8.prm

>  <SCORE>
-33.6944

>  <SCORE.INTER>
-32.6922

>  <SCORE.INTER.CONST>
1

>  <SCORE.INTER.POLAR>
-4.98391

>  <SCORE.INTER.ROT>
6

>  <SCORE.INTER.SOLV>
19.2888

>  <SCORE.INTER.VDW>
-19.2114

>  <SCORE.INTER.norm>
-1.05459

>  <SCORE.INTRA>
-1.0022

>  <SCORE.INTRA.DIHEDRAL>
-5.6354

>  <SCORE.INTRA.DIHEDRAL.0>
28.0161

>  <SCORE.INTRA.POLAR>
-0.340669

>  <SCORE.INTRA.POLAR.0>
-1.05798

>  <SCORE.INTRA.REPUL>
0

>  <SCORE.INTRA.REPUL.0>
0

>  <SCORE.INTRA.SOLV>
0.937327

>  <SCORE.INTRA.SOLV.lig_0>
-42.5945

>  <SCORE.INTRA.VDW>
2.50511

>  <SCORE.INTRA.VDW.0>
-5.13869

>  <SCORE.INTRA.norm>
-0.0323291

>  <SCORE.RESTR>
0

>  <SCORE.RESTR.CAVITY>
0

>  <SCORE.RESTR.norm>
0

>  <SCORE.SYSTEM>
0

>  <SCORE.SYSTEM.CONST>
0

>  <SCORE.SYSTEM.DIHEDRAL>
0

>  <SCORE.SYSTEM.SOLV>
0

>  <SCORE.SYSTEM.norm>
0

>  <SCORE.heavy>
31

>  <SCORE.norm>
-1.08692

>  <RMSD>
6.199

$$$$
lig.pdb
 OpenBabel11021811453D
libRbt.so/2013.1/901 2013/11/27
 31 33  0  0  0  0  0  0  0  0999 V2000
    4.2333    3.7565    1.4145 O   0  0  0  0  0  0  0  0  0  0  0  0
    3.2594    4.2064    2.3360 C   0  0  0  0  0  0  0  0  0  0  0  0
    1.8617    4.2408    1.7031 C   0  0  1  0  0  0  0  0  0  0  0  0
    1.4277    2.9479    1.3121 O   0  0  0  0  0  0  0  0  0  0  0  0
    0.0041    2.9015    1.3091 C   0  0  1  0  0  0  0  0  0  0  0  0
   -0.4423    1.7350    1.9903 O   0  0  0  0  0  0  0  0  0  0  0  0
   -0.5929    0.5534    1.2196 C   0  0  2  0  0  0  0  0  0  0  0  0
   -1.9261    0.6560    0.4619 C   0  0  1  0  0  0  0  0  0  0  0  0
   -1.8318    1.6582   -0.5381 O   0  0  0  0  0  0  0  0  0  0  0  0
   -2.3528   -0.6454   -0.2341 C   0  0  2  0  0  0  0  0  0  0  0  0
   -3.6788   -0.5022   -0.8548 N   0  0  0  0  0  0  0  0  0  0  0  0
   -2.3873   -1.7831    0.7796 C   0  0  0  0  0  0  0  0  0  0  0  0
   -1.0278   -1.9088    1.4563 C   0  0  2  0  0  0  0  0  0  0  0  0
   -1.0736   -3.0436    2.3846 N   0  0  0  0  0  0  0  0  0  0  0  0
   -0.6624   -0.5931    2.1768 C   0  0  1  0  0  0  0  0  0  0  0  0
    0.6160   -0.8313    2.7854 O   0  0  0  0  0  0  0  0  0  0  0  0
    1.0944    0.1518    3.6970 C   0  0  1  0  0  0  0  0  0  0  0  0
    0.3535    0.1130    4.9136 O   0  0  0  0  0  0  0  0  0  0  0  0
    0.5425   -1.0407    5.7303 C   0  0  2  0  0  0  0  0  0  0  0  0
   -0.3266   -0.9072    6.9878 C   0  0  0  0  0  0  0  0  0  0  0  0
   -0.8604   -2.1936    7.4122 N   0  0  0  0  0  0  0  0  0  0  0  0
    2.0216   -1.1916    6.1317 C   0  0  1  0  0  0  0  0  0  0  0  0
    2.1935   -2.3743    6.8920 O   0  0  0  0  0  0  0  0  0  0  0  0
    2.8736   -1.2614    4.8582 C   0  0  2  0  0  0  0  0  0  0  0  0
    4.2475   -1.3123    5.1939 O   0  0  0  0  0  0  0  0  0  0  0  0
    2.5918   -0.0562    3.9508 C   0  0  1  0  0  0  0  0  0  0  0  0
    3.3168   -0.2002    2.6803 N   0  0  0  0  0  0  0  0  0  0  0  0
   -0.4831    4.1510    2.0572 C   0  0  2  0  0  0  0  0  0  0  0  0
   -1.0661    5.0611    1.1433 O   0  0  0  0  0  0  0  0  0  0  0  0
    0.7964    4.6817    2.7020 C   0  0  2  0  0  0  0  0  0  0  0  0
    0.7788    6.0758    2.9371 O   0  0  0  0  0  0  0  0  0  0  0  0
  2  1  1  0  0  0  0
  3  2  1  1  0  0  0
  3 30  1  0  0  0  0
  4  5  1  0  0  0  0
  4  3  1  0  0  0  0
  5 28  1  0  0  0  0
  5  6  1  1  0  0  0
  7  6  1  1  0  0  0
  8  7  1  0  0  0  0
  8  9  1  6  0  0  0
 10 11  1  1  0  0  0
 10  8  1  0  0  0  0
 12 10  1  0  0  0  0
 13 12  1  0  0  0  0
 13 15  1  0  0  0  0
 13 14  1  1  0  0  0
 15  7  1  0  0  0  0
 15 16  1  6  0  0  0
 17 16  1  6  0  0  0
 18 17  1  0  0  0  0
 19 20  1  1  0  0  0
 19 18  1  0  0  0  0
 20 21  1  0  0  0  0
 22 24  1  0  0  0  0
 22 19  1  0  0  0  0
 22 23  1  6  0  0  0
 24 25  1  1  0  0  0
 24 26  1  0  0  0  0
 26 17  1  0  0  0  0
 26 27  1  6  0  0  0
 28 29  1  6  0  0  0
 28 30  1  0  0  0  0
 30 31  1  6  0  0  0
M  END
>  <CHROM.1>
66.75010217,62.81737470,-88.60004615,-79.30034053,64.16976611,61.96002648
-177.37059414,68.98007277,71.97648305,144.24125110,-35.26581088,173.44653026
113.87482185,158.94588233,60.77381348,62.65406559,0.45209723,0.73840467,2.80693467
-1.81279203,0.70136427,2.58286185

>  <Name>
lig.pdb

>  <RI>
1.55206e+07

>  <Rbt.Current_Directory>
/home/itssahil/PROJECTS/Mol_Feturizer/New_Systems/rnas/2n0j

>  <Rbt.Executable>
rbdock ($Id: //depot/dev/client3/rdock/2013.1/src/exe/rbdock.cxx#4 $)

>  <Rbt.Library>
libRbt.so (2013.1, Build901 2013/11/27)

>  <Rbt.Parameter_File>
/export/apps/rDock/src/rDock_2013.1_src/data/scripts/dock_solv.prm

>  <Rbt.Receptor>
prm/blind_docking_80.prm

>  <SCORE>
-39.079

>  <SCORE.INTER>
-40.4326

>  <SCORE.INTER.CONST>
1

>  <SCORE.INTER.POLAR>
-5.06116

>  <SCORE.INTER.ROT>
6

>  <SCORE.INTER.SOLV>
24.2166

>  <SCORE.INTER.VDW>
-25.7567

>  <SCORE.INTER.norm>
-1.30428

>  <SCORE.INTRA>
0.690652

>  <SCORE.INTRA.DIHEDRAL>
-8.24135

>  <SCORE.INTRA.DIHEDRAL.0>
28.0161

>  <SCORE.INTRA.POLAR>
1.03819

>  <SCORE.INTRA.POLAR.0>
-1.05798

>  <SCORE.INTRA.REPUL>
0

>  <SCORE.INTRA.REPUL.0>
0

>  <SCORE.INTRA.SOLV>
-0.299019

>  <SCORE.INTRA.SOLV.lig_0>
-42.5945

>  <SCORE.INTRA.VDW>
1.43099

>  <SCORE.INTRA.VDW.0>
-5.13869

>  <SCORE.INTRA.norm>
0.0222791

>  <SCORE.RESTR>
0.663021

>  <SCORE.RESTR.CAVITY>
0.663021

>  <SCORE.RESTR.norm>
0.0213878

>  <SCORE.SYSTEM>
0

>  <SCORE.SYSTEM.CONST>
0

>  <SCORE.SYSTEM.DIHEDRAL>
0

>  <SCORE.SYSTEM.SOLV>
0

>  <SCORE.SYSTEM.norm>
0

>  <SCORE.heavy>
31

>  <SCORE.norm>
-1.26061

>  <RMSD>
6.202

$$$$
lig.pdb
 OpenBabel11021811453D
libRbt.so/2013.1/901 2013/11/27
 31 33  0  0  0  0  0  0  0  0999 V2000
   -3.8005    6.6997    3.6745 O   0  0  0  0  0  0  0  0  0  0  0  0
   -2.9659    5.5608    3.7550 C   0  0  0  0  0  0  0  0  0  0  0  0
   -1.4821    5.9467    3.6871 C   0  0  1  0  0  0  0  0  0  0  0  0
   -0.6374    4.8542    4.0128 O   0  0  0  0  0  0  0  0  0  0  0  0
    0.6303    5.0262    3.3868 C   0  0  1  0  0  0  0  0  0  0  0  0
    1.0176    3.8190    2.7413 O   0  0  0  0  0  0  0  0  0  0  0  0
    2.3663    3.4066    2.8954 C   0  0  2  0  0  0  0  0  0  0  0  0
    3.1941    4.0953    1.7987 C   0  0  1  0  0  0  0  0  0  0  0  0
    3.2725    5.4874    2.0620 O   0  0  0  0  0  0  0  0  0  0  0  0
    4.6331    3.5712    1.6780 C   0  0  2  0  0  0  0  0  0  0  0  0
    5.3329    4.2043    0.5494 N   0  0  0  0  0  0  0  0  0  0  0  0
    4.6150    2.0600    1.4802 C   0  0  0  0  0  0  0  0  0  0  0  0
    3.8547    1.4018    2.6250 C   0  0  2  0  0  0  0  0  0  0  0  0
    3.9003   -0.0524    2.4381 N   0  0  0  0  0  0  0  0  0  0  0  0
    2.4041    1.9277    2.6792 C   0  0  1  0  0  0  0  0  0  0  0  0
    1.7851    1.2336    3.7731 O   0  0  0  0  0  0  0  0  0  0  0  0
    0.3625    1.1830    3.7882 C   0  0  1  0  0  0  0  0  0  0  0  0
   -0.1495    1.0235    2.4680 O   0  0  0  0  0  0  0  0  0  0  0  0
    0.0990   -0.2339    1.8431 C   0  0  2  0  0  0  0  0  0  0  0  0
   -0.5221   -0.2230    0.4400 C   0  0  0  0  0  0  0  0  0  0  0  0
    0.2663    0.5709   -0.4916 N   0  0  0  0  0  0  0  0  0  0  0  0
   -0.5016   -1.3854    2.6707 C   0  0  1  0  0  0  0  0  0  0  0  0
   -0.1916   -2.6259    2.0613 O   0  0  0  0  0  0  0  0  0  0  0  0
    0.0895   -1.3366    4.0852 C   0  0  2  0  0  0  0  0  0  0  0  0
   -0.5086   -2.3295    4.8972 O   0  0  0  0  0  0  0  0  0  0  0  0
   -0.1099    0.0516    4.7083 C   0  0  1  0  0  0  0  0  0  0  0  0
    0.5712    0.1239    6.0089 N   0  0  0  0  0  0  0  0  0  0  0  0
    0.4623    6.1372    2.3400 C   0  0  2  0  0  0  0  0  0  0  0  0
    1.1381    7.3053    2.7669 O   0  0  0  0  0  0  0  0  0  0  0  0
   -1.0540    6.3108    2.2690 C   0  0  2  0  0  0  0  0  0  0  0  0
   -1.4600    7.6039    1.8662 O   0  0  0  0  0  0  0  0  0  0  0  0
  2  1  1  0  0  0  0
  3  2  1  6  0  0  0
  3 30  1  0  0  0  0
  4  5  1  0  0  0  0
  4  3  1  0  0  0  0
  5 28  1  0  0  0  0
  5  6  1  6  0  0  0
  7  6  1  6  0  0  0
  8  7  1  0  0  0  0
  8  9  1  1  0  0  0
 10 11  1  6  0  0  0
 10  8  1  0  0  0  0
 12 10  1  0  0  0  0
 13 12  1  0  0  0  0
 13 15  1  0  0  0  0
 13 14  1  6  0  0  0
 15  7  1  0  0  0  0
 15 16  1  1  0  0  0
 17 16  1  6  0  0  0
 18 17  1  0  0  0  0
 19 20  1  6  0  0  0
 19 18  1  0  0  0  0
 20 21  1  0  0  0  0
 22 24  1  0  0  0  0
 22 19  1  0  0  0  0
 22 23  1  6  0  0  0
 24 25  1  1  0  0  0
 24 26  1  0  0  0  0
 26 17  1  0  0  0  0
 26 27  1  1  0  0  0
 28 29  1  1  0  0  0
 28 30  1  0  0  0  0
 30 31  1  1  0  0  0
M  END
>  <CHROM.1>
62.94121447,169.11932254,-136.63083629,-86.71274980,-156.42771260,-59.78165506
-47.26287825,79.28475450,37.78975818,75.11436875,155.05844863,169.15006258
178.42131117,88.62135285,-174.96568191,66.89955732,0.85090279,2.63759610
2.73228624,1.73435918,0.33157365,-0.09126355

>  <Name>
lig.pdb

>  <RI>
1.55206e+07

>  <Rbt.Current_Directory>
/home/itssahil/PROJECTS/Mol_Feturizer/New_Systems/rnas/2n0j

>  <Rbt.Executable>
rbdock ($Id: //depot/dev/client3/rdock/2013.1/src/exe/rbdock.cxx#4 $)

>  <Rbt.Library>
libRbt.so (2013.1, Build901 2013/11/27)

>  <Rbt.Parameter_File>
/export/apps/rDock/src/rDock_2013.1_src/data/scripts/dock_solv.prm

>  <Rbt.Receptor>
prm/blind_docking_80.prm

>  <SCORE>
-30.9098

>  <SCORE.INTER>
-35.1101

>  <SCORE.INTER.CONST>
1

>  <SCORE.INTER.POLAR>
-4.91717

>  <SCORE.INTER.ROT>
6

>  <SCORE.INTER.SOLV>
23.5212

>  <SCORE.INTER.VDW>
-22.4566

>  <SCORE.INTER.norm>
-1.13258

>  <SCORE.INTRA>
2.17783

>  <SCORE.INTRA.DIHEDRAL>
-7.04574

>  <SCORE.INTRA.DIHEDRAL.0>
28.0161

>  <SCORE.INTRA.POLAR>
0.812798

>  <SCORE.INTRA.POLAR.0>
-1.05798

>  <SCORE.INTRA.REPUL>
0.0184217

>  <SCORE.INTRA.REPUL.0>
0

>  <SCORE.INTRA.SOLV>
0.562652

>  <SCORE.INTRA.SOLV.lig_0>
-42.5945

>  <SCORE.INTRA.VDW>
2.56376

>  <SCORE.INTRA.VDW.0>
-5.13869

>  <SCORE.INTRA.norm>
0.0702527

>  <SCORE.RESTR>
2.02247

>  <SCORE.RESTR.CAVITY>
2.02247

>  <SCORE.RESTR.norm>
0.0652408

>  <SCORE.SYSTEM>
0

>  <SCORE.SYSTEM.CONST>
0

>  <SCORE.SYSTEM.DIHEDRAL>
0

>  <SCORE.SYSTEM.SOLV>
0

>  <SCORE.SYSTEM.norm>
0

>  <SCORE.heavy>
31

>  <SCORE.norm>
-0.997091

>  <RMSD>
6.206

$$$$
lig.pdb
 OpenBabel11021811453D
libRbt.so/2013.1/901 2013/11/27
 31 33  0  0  0  0  0  0  0  0999 V2000
   -3.5020    5.8948    4.9089 O   0  0  0  0  0  0  0  0  0  0  0  0
   -2.9812    5.8377    3.5952 C   0  0  0  0  0  0  0  0  0  0  0  0
   -1.4768    6.1405    3.5745 C   0  0  1  0  0  0  0  0  0  0  0  0
   -0.7065    5.0140    3.9626 O   0  0  0  0  0  0  0  0  0  0  0  0
    0.5912    5.0985    3.3818 C   0  0  1  0  0  0  0  0  0  0  0  0
    0.9350    3.8536    2.7851 O   0  0  0  0  0  0  0  0  0  0  0  0
    2.2609    3.3874    2.9787 C   0  0  2  0  0  0  0  0  0  0  0  0
    3.1572    4.0827    1.9416 C   0  0  1  0  0  0  0  0  0  0  0  0
    3.2731    5.4612    2.2574 O   0  0  0  0  0  0  0  0  0  0  0  0
    4.5808    3.5111    1.8605 C   0  0  2  0  0  0  0  0  0  0  0  0
    5.3486    4.1566    0.7844 N   0  0  0  0  0  0  0  0  0  0  0  0
    4.5182    2.0092    1.6083 C   0  0  0  0  0  0  0  0  0  0  0  0
    3.6884    1.3403    2.6973 C   0  0  2  0  0  0  0  0  0  0  0  0
    3.6909   -0.1074    2.4607 N   0  0  0  0  0  0  0  0  0  0  0  0
    2.2561    1.9164    2.7117 C   0  0  1  0  0  0  0  0  0  0  0  0
    1.5682    1.2082    3.7542 O   0  0  0  0  0  0  0  0  0  0  0  0
    0.1476    1.1590    3.6777 C   0  0  1  0  0  0  0  0  0  0  0  0
   -0.2769    0.9407    2.3350 O   0  0  0  0  0  0  0  0  0  0  0  0
    0.0079   -0.3437    1.7848 C   0  0  2  0  0  0  0  0  0  0  0  0
   -0.5194   -0.3955    0.3447 C   0  0  0  0  0  0  0  0  0  0  0  0
    0.2911    0.4131   -0.5548 N   0  0  0  0  0  0  0  0  0  0  0  0
   -0.6499   -1.4566    2.6218 C   0  0  1  0  0  0  0  0  0  0  0  0
   -0.3047   -2.7234    2.0903 O   0  0  0  0  0  0  0  0  0  0  0  0
   -0.1530   -1.3445    4.0685 C   0  0  2  0  0  0  0  0  0  0  0  0
   -0.8067   -2.2997    4.8829 O   0  0  0  0  0  0  0  0  0  0  0  0
   -0.3883    0.0703    4.6143 C   0  0  1  0  0  0  0  0  0  0  0  0
    0.2059    0.2006    5.9525 N   0  0  0  0  0  0  0  0  0  0  0  0
    0.5239    6.1856    2.2992 C   0  0  2  0  0  0  0  0  0  0  0  0
    1.2469    7.3275    2.7197 O   0  0  0  0  0  0  0  0  0  0  0  0
   -0.9768    6.4389    2.1646 C   0  0  2  0  0  0  0  0  0  0  0  0
   -1.2954    7.7396    1.7110 O   0  0  0  0  0  0  0  0  0  0  0  0
  2  1  1  0  0  0  0
  3  2  1  6  0  0  0
  3 30  1  0  0  0  0
  4  5  1  0  0  0  0
  4  3  1  0  0  0  0
  5 28  1  0  0  0  0
  5  6  1  6  0  0  0
  7  6  1  6  0  0  0
  8  7  1  0  0  0  0
  8  9  1  1  0  0  0
 10 11  1  6  0  0  0
 10  8  1  0  0  0  0
 12 10  1  0  0  0  0
 13 12  1  0  0  0  0
 13 15  1  0  0  0  0
 13 14  1  6  0  0  0
 15  7  1  0  0  0  0
 15 16  1  1  0  0  0
 17 16  1  6  0  0  0
 18 17  1  0  0  0  0
 19 20  1  6  0  0  0
 19 18  1  0  0  0  0
 20 21  1  0  0  0  0
 22 24  1  0  0  0  0
 22 19  1  0  0  0  0
 22 23  1  6  0  0  0
 24 25  1  1  0  0  0
 24 26  1  0  0  0  0
 26 17  1  0  0  0  0
 26 27  1  1  0  0  0
 28 29  1  1  0  0  0
 28 30  1  0  0  0  0
 30 31  1  1  0  0  0
M  END
>  <CHROM.1>
167.23819881,79.46123780,-137.95009483,-82.49660707,62.40648145,54.33595718
-50.57065142,81.97538346,41.14312201,72.08004439,-94.55794571,166.83904963
170.76299028,-40.00785163,66.72492954,-63.99734465,0.77465822,2.60537111
2.77767495,1.65061822,0.36145071,-0.04670657

>  <Name>
lig.pdb

>  <RI>
0

>  <Rbt.Current_Directory>
/home/itssahil/PROJECTS/Mol_Feturizer/New_Systems/rnas/2n0j

>  <Rbt.Executable>
rbdock ($Id: //depot/dev/client3/rdock/2013.1/src/exe/rbdock.cxx#4 $)

>  <Rbt.Library>
libRbt.so (2013.1, Build901 2013/11/27)

>  <Rbt.Parameter_File>
/export/apps/rDock/src/rDock_2013.1_src/data/scripts/dock_solv.prm

>  <Rbt.Receptor>
prm/blind_docking_60.prm

>  <SCORE>
-44.9597

>  <SCORE.INTER>
-45.7149

>  <SCORE.INTER.CONST>
1

>  <SCORE.INTER.POLAR>
-5.87617

>  <SCORE.INTER.ROT>
6

>  <SCORE.INTER.SOLV>
22.5683

>  <SCORE.INTER.VDW>
-26.0121

>  <SCORE.INTER.norm>
-1.47467

>  <SCORE.INTRA>
-1.62077

>  <SCORE.INTRA.DIHEDRAL>
-8.47523

>  <SCORE.INTRA.DIHEDRAL.0>
28.0161

>  <SCORE.INTRA.POLAR>
0.205445

>  <SCORE.INTRA.POLAR.0>
-1.05798

>  <SCORE.INTRA.REPUL>
0

>  <SCORE.INTRA.REPUL.0>
0

>  <SCORE.INTRA.SOLV>
-0.201127

>  <SCORE.INTRA.SOLV.lig_0>
-42.5945

>  <SCORE.INTRA.VDW>
2.0189

>  <SCORE.INTRA.VDW.0>
-5.13869

>  <SCORE.INTRA.norm>
-0.0522829

>  <SCORE.RESTR>
2.37599

>  <SCORE.RESTR.CAVITY>
2.37599

>  <SCORE.RESTR.norm>
0.0766447

>  <SCORE.SYSTEM>
0

>  <SCORE.SYSTEM.CONST>
0

>  <SCORE.SYSTEM.DIHEDRAL>
0

>  <SCORE.SYSTEM.SOLV>
0

>  <SCORE.SYSTEM.norm>
0

>  <SCORE.heavy>
31

>  <SCORE.norm>
-1.45031

>  <RMSD>
6.210

$$$$
lig.pdb
 OpenBabel11021811453D
libRbt.so/2013.1/901 2013/11/27
 31 33  0  0  0  0  0  0  0  0999 V2000
    3.4526    6.0872   -0.5878 O   0  0  0  0  0  0  0  0  0  0  0  0
    3.0548    6.4780    0.7118 C   0  0  0  0  0  0  0  0  0  0  0  0
    1.5692    6.1811    0.9569 C   0  0  1  0  0  0  0  0  0  0  0  0
    1.3131    4.7870    1.0193 O   0  0  0  0  0  0  0  0  0  0  0  0
    0.1514    4.5487    1.8082 C   0  0  1  0  0  0  0  0  0  0  0  0
    0.4107    3.5134    2.7488 O   0  0  0  0  0  0  0  0  0  0  0  0
   -0.1773    2.2472    2.4961 C   0  0  2  0  0  0  0  0  0  0  0  0
    0.5313    1.6376    1.2761 C   0  0  1  0  0  0  0  0  0  0  0  0
    1.8625    1.2883    1.6215 O   0  0  0  0  0  0  0  0  0  0  0  0
   -0.1451    0.3726    0.7262 C   0  0  2  0  0  0  0  0  0  0  0  0
    0.5280   -0.0983   -0.4941 N   0  0  0  0  0  0  0  0  0  0  0  0
   -1.6087    0.6650    0.4176 C   0  0  0  0  0  0  0  0  0  0  0  0
   -2.3012    1.1933    1.6679 C   0  0  2  0  0  0  0  0  0  0  0  0
   -3.7177    1.4137    1.3571 N   0  0  0  0  0  0  0  0  0  0  0  0
   -1.6137    2.4862    2.1573 C   0  0  1  0  0  0  0  0  0  0  0  0
   -2.3526    2.8980    3.3175 O   0  0  0  0  0  0  0  0  0  0  0  0
   -1.7412    2.6864    4.5855 C   0  0  1  0  0  0  0  0  0  0  0  0
   -1.5495    3.9244    5.2647 O   0  0  0  0  0  0  0  0  0  0  0  0
   -2.7303    4.5892    5.7089 C   0  0  2  0  0  0  0  0  0  0  0  0
   -2.3315    5.8925    6.4138 C   0  0  0  0  0  0  0  0  0  0  0  0
   -3.4412    6.8331    6.4744 N   0  0  0  0  0  0  0  0  0  0  0  0
   -3.5308    3.6968    6.6756 C   0  0  1  0  0  0  0  0  0  0  0  0
   -4.7262    4.3547    7.0562 O   0  0  0  0  0  0  0  0  0  0  0  0
   -3.8637    2.3775    5.9677 C   0  0  2  0  0  0  0  0  0  0  0  0
   -4.5242    1.4996    6.8599 O   0  0  0  0  0  0  0  0  0  0  0  0
   -2.5900    1.7201    5.4196 C   0  0  1  0  0  0  0  0  0  0  0  0
   -2.9354    0.5259    4.6354 N   0  0  0  0  0  0  0  0  0  0  0  0
   -0.1552    5.8554    2.5543 C   0  0  2  0  0  0  0  0  0  0  0  0
   -1.3218    6.4518    2.0187 O   0  0  0  0  0  0  0  0  0  0  0  0
    1.1066    6.6845    2.3205 C   0  0  2  0  0  0  0  0  0  0  0  0
    0.8866    8.0804    2.3674 O   0  0  0  0  0  0  0  0  0  0  0  0
  2  1  1  0  0  0  0
  3  2  1  1  0  0  0
  3 30  1  0  0  0  0
  4  5  1  0  0  0  0
  4  3  1  0  0  0  0
  5 28  1  0  0  0  0
  5  6  1  1  0  0  0
  7  6  1  6  0  0  0
  8  7  1  0  0  0  0
  8  9  1  1  0  0  0
 10 11  1  6  0  0  0
 10  8  1  0  0  0  0
 12 10  1  0  0  0  0
 13 12  1  0  0  0  0
 13 15  1  0  0  0  0
 13 14  1  6  0  0  0
 15  7  1  0  0  0  0
 15 16  1  1  0  0  0
 17 16  1  6  0  0  0
 18 17  1  0  0  0  0
 19 20  1  1  0  0  0
 19 18  1  0  0  0  0
 20 21  1  0  0  0  0
 22 24  1  0  0  0  0
 22 19  1  0  0  0  0
 22 23  1  6  0  0  0
 24 25  1  1  0  0  0
 24 26  1  0  0  0  0
 26 17  1  0  0  0  0
 26 27  1  6  0  0  0
 28 29  1  6  0  0  0
 28 30  1  0  0  0  0
 30 31  1  6  0  0  0
M  END
>  <CHROM.1>
-174.18649874,68.52464062,-106.23255100,69.92503422,63.89886595,55.19112767
-58.10039195,-15.45464444,119.02470496,159.89778693,-153.12417571,-83.31537588
168.50079257,177.70923533,66.47498201,179.43054786,-1.06433166,3.58939725
3.08279818,-0.12967486,0.79545457,0.43686504

>  <Name>
lig.pdb

>  <RI>
2.67765e+07

>  <Rbt.Current_Directory>
/home/itssahil/PROJECTS/Mol_Feturizer/New_Systems/rnas/2n0j

>  <Rbt.Executable>
rbdock ($Id: //depot/dev/client3/rdock/2013.1/src/exe/rbdock.cxx#4 $)

>  <Rbt.Library>
libRbt.so (2013.1, Build901 2013/11/27)

>  <Rbt.Parameter_File>
/export/apps/rDock/src/rDock_2013.1_src/data/scripts/dock_solv.prm

>  <Rbt.Receptor>
prm/pocket_docking_2.prm

>  <SCORE>
-30.6877

>  <SCORE.INTER>
-41.011

>  <SCORE.INTER.CONST>
1

>  <SCORE.INTER.POLAR>
-5.70472

>  <SCORE.INTER.ROT>
6

>  <SCORE.INTER.SOLV>
16.1793

>  <SCORE.INTER.VDW>
-21.3181

>  <SCORE.INTER.norm>
-1.32294

>  <SCORE.INTRA>
8.23827

>  <SCORE.INTRA.DIHEDRAL>
-1.03387

>  <SCORE.INTRA.DIHEDRAL.0>
28.0161

>  <SCORE.INTRA.POLAR>
1.05259

>  <SCORE.INTRA.POLAR.0>
-1.05798

>  <SCORE.INTRA.REPUL>
0

>  <SCORE.INTRA.REPUL.0>
0

>  <SCORE.INTRA.SOLV>
0.162403

>  <SCORE.INTRA.SOLV.lig_0>
-42.5945

>  <SCORE.INTRA.VDW>
5.09521

>  <SCORE.INTRA.VDW.0>
-5.13869

>  <SCORE.INTRA.norm>
0.265751

>  <SCORE.RESTR>
2.08502

>  <SCORE.RESTR.CAVITY>
2.08502

>  <SCORE.RESTR.norm>
0.0672587

>  <SCORE.SYSTEM>
0

>  <SCORE.SYSTEM.CONST>
0

>  <SCORE.SYSTEM.DIHEDRAL>
0

>  <SCORE.SYSTEM.SOLV>
0

>  <SCORE.SYSTEM.norm>
0

>  <SCORE.heavy>
31

>  <SCORE.norm>
-0.989927

>  <RMSD>
6.210

$$$$
lig.pdb
 OpenBabel11021811453D
libRbt.so/2013.1/901 2013/11/27
 31 33  0  0  0  0  0  0  0  0999 V2000
   -1.4492    2.8329    6.2443 O   0  0  0  0  0  0  0  0  0  0  0  0
   -1.7471    3.0457    4.8783 C   0  0  0  0  0  0  0  0  0  0  0  0
   -1.2891    4.4349    4.4139 C   0  0  1  0  0  0  0  0  0  0  0  0
    0.1092    4.4777    4.1776 O   0  0  0  0  0  0  0  0  0  0  0  0
    0.4026    5.4949    3.2247 C   0  0  1  0  0  0  0  0  0  0  0  0
    1.2760    4.9828    2.2254 O   0  0  0  0  0  0  0  0  0  0  0  0
    2.6696    5.1325    2.4454 C   0  0  2  0  0  0  0  0  0  0  0  0
    3.1396    6.3599    1.6486 C   0  0  1  0  0  0  0  0  0  0  0  0
    2.6133    7.5403    2.2344 O   0  0  0  0  0  0  0  0  0  0  0  0
    4.6662    6.5209    1.5888 C   0  0  2  0  0  0  0  0  0  0  0  0
    5.0445    7.6558    0.7327 N   0  0  0  0  0  0  0  0  0  0  0  0
    5.2969    5.2438    1.0462 C   0  0  0  0  0  0  0  0  0  0  0  0
    4.8743    4.0580    1.9047 C   0  0  2  0  0  0  0  0  0  0  0  0
    5.5382    2.8539    1.3937 N   0  0  0  0  0  0  0  0  0  0  0  0
    3.3374    3.9113    1.8994 C   0  0  1  0  0  0  0  0  0  0  0  0
    3.0587    2.7651    2.7180 O   0  0  0  0  0  0  0  0  0  0  0  0
    2.7834    1.5398    2.0475 C   0  0  1  0  0  0  0  0  0  0  0  0
    3.3490    0.4403    2.7559 O   0  0  0  0  0  0  0  0  0  0  0  0
    2.7557    0.1291    4.0147 C   0  0  2  0  0  0  0  0  0  0  0  0
    3.4880   -1.0731    4.6256 C   0  0  0  0  0  0  0  0  0  0  0  0
    4.9276   -0.8607    4.6701 N   0  0  0  0  0  0  0  0  0  0  0  0
    1.2603   -0.1996    3.8493 C   0  0  1  0  0  0  0  0  0  0  0  0
    0.6811   -0.4475    5.1181 O   0  0  0  0  0  0  0  0  0  0  0  0
    0.5641    0.9930    3.1819 C   0  0  2  0  0  0  0  0  0  0  0  0
   -0.7958    0.6876    2.9361 O   0  0  0  0  0  0  0  0  0  0  0  0
    1.2701    1.3692    1.8722 C   0  0  1  0  0  0  0  0  0  0  0  0
    0.6737    2.5890    1.3093 N   0  0  0  0  0  0  0  0  0  0  0  0
   -0.9318    5.9001    2.5818 C   0  0  2  0  0  0  0  0  0  0  0  0
   -1.3024    7.1942    3.0195 O   0  0  0  0  0  0  0  0  0  0  0  0
   -1.8856    4.8066    3.0600 C   0  0  2  0  0  0  0  0  0  0  0  0
   -3.2362    5.2195    3.1271 O   0  0  0  0  0  0  0  0  0  0  0  0
  2  1  1  0  0  0  0
  3  2  1  6  0  0  0
  3 30  1  0  0  0  0
  4  5  1  0  0  0  0
  4  3  1  0  0  0  0
  5 28  1  0  0  0  0
  5  6  1  6  0  0  0
  7  6  1  6  0  0  0
  8  7  1  0  0  0  0
  8  9  1  1  0  0  0
 10 11  1  6  0  0  0
 10  8  1  0  0  0  0
 12 10  1  0  0  0  0
 13 12  1  0  0  0  0
 13 15  1  0  0  0  0
 13 14  1  6  0  0  0
 15  7  1  0  0  0  0
 15 16  1  1  0  0  0
 17 16  1  1  0  0  0
 18 17  1  0  0  0  0
 19 20  1  6  0  0  0
 19 18  1  0  0  0  0
 20 21  1  0  0  0  0
 22 24  1  0  0  0  0
 22 19  1  0  0  0  0
 22 23  1  1  0  0  0
 24 25  1  6  0  0  0
 24 26  1  0  0  0  0
 26 17  1  0  0  0  0
 26 27  1  1  0  0  0
 28 29  1  1  0  0  0
 28 30  1  0  0  0  0
 30 31  1  1  0  0  0
M  END
>  <CHROM.1>
58.42227799,78.10006932,-91.31707730,-98.51941676,-168.80020491,-49.37015346
38.86146824,138.83128958,142.57613230,52.42663047,-36.25007933,-172.02552102
-55.46170907,-177.80410134,66.86372496,171.12935714,1.63055955,3.40872887
2.94371673,1.62321287,-0.30385926,2.84371562

>  <Name>
lig.pdb

>  <RI>
0

>  <Rbt.Current_Directory>
/home/itssahil/PROJECTS/Mol_Feturizer/New_Systems/rnas/2n0j

>  <Rbt.Executable>
rbdock ($Id: //depot/dev/client3/rdock/2013.1/src/exe/rbdock.cxx#4 $)

>  <Rbt.Library>
libRbt.so (2013.1, Build901 2013/11/27)

>  <Rbt.Parameter_File>
/export/apps/rDock/src/rDock_2013.1_src/data/scripts/dock_solv.prm

>  <Rbt.Receptor>
prm/pocket_docking_8.prm

>  <SCORE>
-39.7844

>  <SCORE.INTER>
-38.5415

>  <SCORE.INTER.CONST>
1

>  <SCORE.INTER.POLAR>
-3.33257

>  <SCORE.INTER.ROT>
6

>  <SCORE.INTER.SOLV>
18.5917

>  <SCORE.INTER.VDW>
-28.383

>  <SCORE.INTER.norm>
-1.24328

>  <SCORE.INTRA>
-1.24284

>  <SCORE.INTRA.DIHEDRAL>
-2.72583

>  <SCORE.INTRA.DIHEDRAL.0>
28.0161

>  <SCORE.INTRA.POLAR>
-0.0414984

>  <SCORE.INTRA.POLAR.0>
-1.05798

>  <SCORE.INTRA.REPUL>
0

>  <SCORE.INTRA.REPUL.0>
0

>  <SCORE.INTRA.SOLV>
0.804681

>  <SCORE.INTRA.SOLV.lig_0>
-42.5945

>  <SCORE.INTRA.VDW>
-0.141166

>  <SCORE.INTRA.VDW.0>
-5.13869

>  <SCORE.INTRA.norm>
-0.0400915

>  <SCORE.RESTR>
0

>  <SCORE.RESTR.CAVITY>
0

>  <SCORE.RESTR.norm>
0

>  <SCORE.SYSTEM>
0

>  <SCORE.SYSTEM.CONST>
0

>  <SCORE.SYSTEM.DIHEDRAL>
0

>  <SCORE.SYSTEM.SOLV>
0

>  <SCORE.SYSTEM.norm>
0

>  <SCORE.heavy>
31

>  <SCORE.norm>
-1.28337

>  <RMSD>
6.210

$$$$
lig.pdb
 OpenBabel11021811453D
libRbt.so/2013.1/901 2013/11/27
 31 33  0  0  0  0  0  0  0  0999 V2000
   -3.2780    4.6037    2.4420 O   0  0  0  0  0  0  0  0  0  0  0  0
   -3.0697    5.6063    3.4175 C   0  0  0  0  0  0  0  0  0  0  0  0
   -1.5902    6.0044    3.5059 C   0  0  1  0  0  0  0  0  0  0  0  0
   -0.7618    4.8925    3.8066 O   0  0  0  0  0  0  0  0  0  0  0  0
    0.5509    5.1242    3.3048 C   0  0  1  0  0  0  0  0  0  0  0  0
    1.0048    3.9788    2.5934 O   0  0  0  0  0  0  0  0  0  0  0  0
    2.3632    3.6070    2.7645 C   0  0  2  0  0  0  0  0  0  0  0  0
    3.1795    4.2969    1.6600 C   0  0  1  0  0  0  0  0  0  0  0  0
    3.2176    5.6955    1.8965 O   0  0  0  0  0  0  0  0  0  0  0  0
    4.6333    3.8107    1.5592 C   0  0  2  0  0  0  0  0  0  0  0  0
    5.3234    4.4410    0.4231 N   0  0  0  0  0  0  0  0  0  0  0  0
    4.6583    2.2961    1.3910 C   0  0  0  0  0  0  0  0  0  0  0  0
    3.9082    1.6394    2.5434 C   0  0  2  0  0  0  0  0  0  0  0  0
    3.9953    0.1836    2.3854 N   0  0  0  0  0  0  0  0  0  0  0  0
    2.4433    2.1258    2.5776 C   0  0  1  0  0  0  0  0  0  0  0  0
    1.8359    1.4361    3.6808 O   0  0  0  0  0  0  0  0  0  0  0  0
    0.4136    1.4342    3.7415 C   0  0  1  0  0  0  0  0  0  0  0  0
   -0.1460    1.5237    2.4340 O   0  0  0  0  0  0  0  0  0  0  0  0
    0.0301    0.3852    1.5936 C   0  0  2  0  0  0  0  0  0  0  0  0
   -0.6341    0.6607    0.2380 C   0  0  0  0  0  0  0  0  0  0  0  0
   -0.3946   -0.4196   -0.7082 N   0  0  0  0  0  0  0  0  0  0  0  0
   -0.5914   -0.8700    2.2339 C   0  0  1  0  0  0  0  0  0  0  0  0
   -0.3526   -1.9967    1.4092 O   0  0  0  0  0  0  0  0  0  0  0  0
    0.0457   -1.0875    3.6120 C   0  0  2  0  0  0  0  0  0  0  0  0
   -0.5672   -2.1840    4.2639 O   0  0  0  0  0  0  0  0  0  0  0  0
   -0.0760    0.1782    4.4712 C   0  0  1  0  0  0  0  0  0  0  0  0
    0.6482    0.0004    5.7379 N   0  0  0  0  0  0  0  0  0  0  0  0
    0.4558    6.3198    2.3458 C   0  0  2  0  0  0  0  0  0  0  0  0
    1.0798    7.4507    2.9249 O   0  0  0  0  0  0  0  0  0  0  0  0
   -1.0516    6.4909    2.1643 C   0  0  2  0  0  0  0  0  0  0  0  0
   -1.4391    7.8116    1.8405 O   0  0  0  0  0  0  0  0  0  0  0  0
  2  1  1  0  0  0  0
  3  2  1  6  0  0  0
  3 30  1  0  0  0  0
  4  5  1  0  0  0  0
  4  3  1  0  0  0  0
  5 28  1  0  0  0  0
  5  6  1  6  0  0  0
  7  6  1  6  0  0  0
  8  7  1  0  0  0  0
  8  9  1  1  0  0  0
 10 11  1  6  0  0  0
 10  8  1  0  0  0  0
 12 10  1  0  0  0  0
 13 12  1  0  0  0  0
 13 15  1  0  0  0  0
 13 14  1  6  0  0  0
 15  7  1  0  0  0  0
 15 16  1  1  0  0  0
 17 16  1  6  0  0  0
 18 17  1  0  0  0  0
 19 20  1  6  0  0  0
 19 18  1  0  0  0  0
 20 21  1  0  0  0  0
 22 24  1  0  0  0  0
 22 19  1  0  0  0  0
 22 23  1  6  0  0  0
 24 25  1  1  0  0  0
 24 26  1  0  0  0  0
 26 17  1  0  0  0  0
 26 27  1  1  0  0  0
 28 29  1  1  0  0  0
 28 30  1  0  0  0  0
 30 31  1  1  0  0  0
M  END
>  <CHROM.1>
-176.55242576,-57.88330061,-140.13902772,-91.93238332,-166.39700409,53.06577643
60.17346012,74.62214565,28.73748945,175.21426925,-104.04728411,-173.88561213
-57.22243919,-22.91814807,-168.31768820,-179.59412462,0.81877125,2.74279527
2.50606035,1.61728230,0.21395107,-0.04285192

>  <Name>
lig.pdb

>  <RI>
0

>  <Rbt.Current_Directory>
/home/itssahil/PROJECTS/Mol_Feturizer/New_Systems/rnas/2n0j

>  <Rbt.Executable>
rbdock ($Id: //depot/dev/client3/rdock/2013.1/src/exe/rbdock.cxx#4 $)

>  <Rbt.Library>
libRbt.so (2013.1, Build901 2013/11/27)

>  <Rbt.Parameter_File>
/export/apps/rDock/src/rDock_2013.1_src/data/scripts/dock_solv.prm

>  <Rbt.Receptor>
prm/blind_docking_60.prm

>  <SCORE>
-29.5596

>  <SCORE.INTER>
-33.9989

>  <SCORE.INTER.CONST>
1

>  <SCORE.INTER.POLAR>
-3.17793

>  <SCORE.INTER.ROT>
6

>  <SCORE.INTER.SOLV>
21.5638

>  <SCORE.INTER.VDW>
-26.8607

>  <SCORE.INTER.norm>
-1.09674

>  <SCORE.INTRA>
1.21624

>  <SCORE.INTRA.DIHEDRAL>
-6.104

>  <SCORE.INTRA.DIHEDRAL.0>
28.0161

>  <SCORE.INTRA.POLAR>
0.151533

>  <SCORE.INTRA.POLAR.0>
-1.05798

>  <SCORE.INTRA.REPUL>
0.0409937

>  <SCORE.INTRA.REPUL.0>
0

>  <SCORE.INTRA.SOLV>
1.56899

>  <SCORE.INTRA.SOLV.lig_0>
-42.5945

>  <SCORE.INTRA.VDW>
2.76356

>  <SCORE.INTRA.VDW.0>
-5.13869

>  <SCORE.INTRA.norm>
0.0392335

>  <SCORE.RESTR>
3.22306

>  <SCORE.RESTR.CAVITY>
3.22306

>  <SCORE.RESTR.norm>
0.10397

>  <SCORE.SYSTEM>
0

>  <SCORE.SYSTEM.CONST>
0

>  <SCORE.SYSTEM.DIHEDRAL>
0

>  <SCORE.SYSTEM.SOLV>
0

>  <SCORE.SYSTEM.norm>
0

>  <SCORE.heavy>
31

>  <SCORE.norm>
-0.953536

>  <RMSD>
6.211

$$$$
lig.pdb
 OpenBabel11021811453D
libRbt.so/2013.1/901 2013/11/27
 31 33  0  0  0  0  0  0  0  0999 V2000
    1.6698    7.7464    2.2818 O   0  0  0  0  0  0  0  0  0  0  0  0
    2.6343    7.2629    1.3674 C   0  0  0  0  0  0  0  0  0  0  0  0
    3.4010    6.0642    1.9421 C   0  0  1  0  0  0  0  0  0  0  0  0
    2.5398    5.1624    2.6189 O   0  0  0  0  0  0  0  0  0  0  0  0
    3.1054    3.8554    2.6005 C   0  0  1  0  0  0  0  0  0  0  0  0
    2.1198    2.9084    2.2058 O   0  0  0  0  0  0  0  0  0  0  0  0
    1.6228    2.0358    3.2080 C   0  0  2  0  0  0  0  0  0  0  0  0
    2.3071    0.6722    3.0220 C   0  0  1  0  0  0  0  0  0  0  0  0
    3.6799    0.7754    3.3658 O   0  0  0  0  0  0  0  0  0  0  0  0
    1.7049   -0.4527    3.8777 C   0  0  2  0  0  0  0  0  0  0  0  0
    2.3427   -1.7439    3.5774 N   0  0  0  0  0  0  0  0  0  0  0  0
    0.2071   -0.5533    3.6143 C   0  0  0  0  0  0  0  0  0  0  0  0
   -0.4528    0.7936    3.8835 C   0  0  2  0  0  0  0  0  0  0  0  0
   -1.8981    0.6531    3.6755 N   0  0  0  0  0  0  0  0  0  0  0  0
    0.1546    1.8814    2.9716 C   0  0  1  0  0  0  0  0  0  0  0  0
   -0.5473    3.0908    3.2974 O   0  0  0  0  0  0  0  0  0  0  0  0
   -1.0451    3.8653    2.2116 C   0  0  1  0  0  0  0  0  0  0  0  0
   -2.2004    3.2532    1.6449 O   0  0  0  0  0  0  0  0  0  0  0  0
   -3.3736    3.2494    2.4556 C   0  0  2  0  0  0  0  0  0  0  0  0
   -4.5065    2.5564    1.6869 C   0  0  0  0  0  0  0  0  0  0  0  0
   -4.1489    1.1958    1.3118 N   0  0  0  0  0  0  0  0  0  0  0  0
   -3.7925    4.6858    2.8201 C   0  0  1  0  0  0  0  0  0  0  0  0
   -4.9236    4.6532    3.6722 O   0  0  0  0  0  0  0  0  0  0  0  0
   -2.6221    5.3751    3.5323 C   0  0  2  0  0  0  0  0  0  0  0  0
   -2.9447    6.7263    3.8028 O   0  0  0  0  0  0  0  0  0  0  0  0
   -1.3464    5.2923    2.6832 C   0  0  1  0  0  0  0  0  0  0  0  0
   -0.2061    5.8421    3.4301 N   0  0  0  0  0  0  0  0  0  0  0  0
    4.2404    3.8765    1.5662 C   0  0  2  0  0  0  0  0  0  0  0  0
    5.4913    3.8038    2.2245 O   0  0  0  0  0  0  0  0  0  0  0  0
    4.0167    5.2038    0.8432 C   0  0  2  0  0  0  0  0  0  0  0  0
    5.1938    5.7518    0.2834 O   0  0  0  0  0  0  0  0  0  0  0  0
  2  1  1  0  0  0  0
  3  2  1  6  0  0  0
  3 30  1  0  0  0  0
  4  5  1  0  0  0  0
  4  3  1  0  0  0  0
  5 28  1  0  0  0  0
  5  6  1  6  0  0  0
  7  6  1  6  0  0  0
  8  7  1  0  0  0  0
  8  9  1  1  0  0  0
 10 11  1  6  0  0  0
 10  8  1  0  0  0  0
 12 10  1  0  0  0  0
 13 12  1  0  0  0  0
 13 15  1  0  0  0  0
 13 14  1  6  0  0  0
 15  7  1  0  0  0  0
 15 16  1  1  0  0  0
 17 16  1  1  0  0  0
 18 17  1  0  0  0  0
 19 20  1  6  0  0  0
 19 18  1  0  0  0  0
 20 21  1  0  0  0  0
 22 24  1  0  0  0  0
 22 19  1  0  0  0  0
 22 23  1  1  0  0  0
 24 25  1  6  0  0  0
 24 26  1  0  0  0  0
 26 17  1  0  0  0  0
 26 27  1  1  0  0  0
 28 29  1  1  0  0  0
 28 30  1  0  0  0  0
 30 31  1  1  0  0  0
M  END
>  <CHROM.1>
65.51003252,42.09608837,-108.19537947,-102.04252142,-170.28721009,-130.03768375
179.16369452,107.13145898,74.90701194,58.00632586,-49.57999621,-176.02698767
-53.30412495,-46.54551865,71.93663998,-60.71923492,0.39988974,3.41579595
2.63756893,0.12278861,0.09680343,-0.16203345

>  <Name>
lig.pdb

>  <RI>
3.32461e+07

>  <Rbt.Current_Directory>
/home/itssahil/PROJECTS/Mol_Feturizer/New_Systems/rnas/2n0j

>  <Rbt.Executable>
rbdock ($Id: //depot/dev/client3/rdock/2013.1/src/exe/rbdock.cxx#4 $)

>  <Rbt.Library>
libRbt.so (2013.1, Build901 2013/11/27)

>  <Rbt.Parameter_File>
/export/apps/rDock/src/rDock_2013.1_src/data/scripts/dock_solv.prm

>  <Rbt.Receptor>
prm/pocket_docking_7.prm

>  <SCORE>
-39.0571

>  <SCORE.INTER>
-38.4155

>  <SCORE.INTER.CONST>
1

>  <SCORE.INTER.POLAR>
-4.8332

>  <SCORE.INTER.ROT>
6

>  <SCORE.INTER.SOLV>
18.1081

>  <SCORE.INTER.VDW>
-23.1357

>  <SCORE.INTER.norm>
-1.23921

>  <SCORE.INTRA>
-0.641574

>  <SCORE.INTRA.DIHEDRAL>
-1.3273

>  <SCORE.INTRA.DIHEDRAL.0>
28.0161

>  <SCORE.INTRA.POLAR>
-0.258227

>  <SCORE.INTRA.POLAR.0>
-1.05798

>  <SCORE.INTRA.REPUL>
0

>  <SCORE.INTRA.REPUL.0>
0

>  <SCORE.INTRA.SOLV>
1.44634

>  <SCORE.INTRA.SOLV.lig_0>
-42.5945

>  <SCORE.INTRA.VDW>
0.176876

>  <SCORE.INTRA.VDW.0>
-5.13869

>  <SCORE.INTRA.norm>
-0.0206959

>  <SCORE.RESTR>
0

>  <SCORE.RESTR.CAVITY>
0

>  <SCORE.RESTR.norm>
0

>  <SCORE.SYSTEM>
0

>  <SCORE.SYSTEM.CONST>
0

>  <SCORE.SYSTEM.DIHEDRAL>
0

>  <SCORE.SYSTEM.SOLV>
0

>  <SCORE.SYSTEM.norm>
0

>  <SCORE.heavy>
31

>  <SCORE.norm>
-1.25991

>  <RMSD>
6.211

$$$$
lig.pdb
 OpenBabel11021811453D
libRbt.so/2013.1/901 2013/11/27
 31 33  0  0  0  0  0  0  0  0999 V2000
   -7.2535    3.4778    8.9019 O   0  0  0  0  0  0  0  0  0  0  0  0
   -6.8744    4.7794    8.4991 C   0  0  0  0  0  0  0  0  0  0  0  0
   -5.3485    4.9429    8.4933 C   0  0  1  0  0  0  0  0  0  0  0  0
   -4.7356    4.1397    7.4972 O   0  0  0  0  0  0  0  0  0  0  0  0
   -3.4954    4.7226    7.1087 C   0  0  1  0  0  0  0  0  0  0  0  0
   -3.4051    4.7641    5.6895 O   0  0  0  0  0  0  0  0  0  0  0  0
   -2.1326    5.0478    5.1300 C   0  0  2  0  0  0  0  0  0  0  0  0
   -2.3332    6.0860    4.0145 C   0  0  1  0  0  0  0  0  0  0  0  0
   -2.6977    7.3340    4.5829 O   0  0  0  0  0  0  0  0  0  0  0  0
   -1.0864    6.3245    3.1493 C   0  0  2  0  0  0  0  0  0  0  0  0
   -1.3785    7.2535    2.0467 N   0  0  0  0  0  0  0  0  0  0  0  0
   -0.5949    4.9992    2.5793 C   0  0  0  0  0  0  0  0  0  0  0  0
   -0.3307    4.0186    3.7154 C   0  0  2  0  0  0  0  0  0  0  0  0
    0.1921    2.7734    3.1427 N   0  0  0  0  0  0  0  0  0  0  0  0
   -1.6207    3.7782    4.5288 C   0  0  1  0  0  0  0  0  0  0  0  0
   -1.2601    2.8360    5.5504 O   0  0  0  0  0  0  0  0  0  0  0  0
   -2.3209    2.1362    6.1920 C   0  0  1  0  0  0  0  0  0  0  0  0
   -2.7535    1.0372    5.3948 O   0  0  0  0  0  0  0  0  0  0  0  0
   -1.8358   -0.0464    5.2637 C   0  0  2  0  0  0  0  0  0  0  0  0
   -2.4686   -1.1294    4.3797 C   0  0  0  0  0  0  0  0  0  0  0  0
   -2.7512   -0.6337    3.0403 N   0  0  0  0  0  0  0  0  0  0  0  0
   -1.4848   -0.6369    6.6420 C   0  0  1  0  0  0  0  0  0  0  0  0
   -0.5288   -1.6712    6.4907 O   0  0  0  0  0  0  0  0  0  0  0  0
   -0.9116    0.4785    7.5250 C   0  0  2  0  0  0  0  0  0  0  0  0
   -0.6602   -0.0130    8.8281 O   0  0  0  0  0  0  0  0  0  0  0  0
   -1.8741    1.6724    7.5830 C   0  0  1  0  0  0  0  0  0  0  0  0
   -1.2586    2.7817    8.3254 N   0  0  0  0  0  0  0  0  0  0  0  0
   -3.4825    6.1534    7.6662 C   0  0  2  0  0  0  0  0  0  0  0  0
   -2.5547    6.2454    8.7312 O   0  0  0  0  0  0  0  0  0  0  0  0
   -4.9302    6.3587    8.1093 C   0  0  2  0  0  0  0  0  0  0  0  0
   -5.0769    7.2990    9.1550 O   0  0  0  0  0  0  0  0  0  0  0  0
  2  1  1  0  0  0  0
  3  2  1  6  0  0  0
  3 30  1  0  0  0  0
  4  5  1  0  0  0  0
  4  3  1  0  0  0  0
  5 28  1  0  0  0  0
  5  6  1  6  0  0  0
  7  6  1  6  0  0  0
  8  7  1  0  0  0  0
  8  9  1  1  0  0  0
 10 11  1  6  0  0  0
 10  8  1  0  0  0  0
 12 10  1  0  0  0  0
 13 12  1  0  0  0  0
 13 15  1  0  0  0  0
 13 14  1  6  0  0  0
 15  7  1  0  0  0  0
 15 16  1  1  0  0  0
 17 16  1  6  0  0  0
 18 17  1  0  0  0  0
 19 20  1  6  0  0  0
 19 18  1  0  0  0  0
 20 21  1  0  0  0  0
 22 24  1  0  0  0  0
 22 19  1  0  0  0  0
 22 23  1  6  0  0  0
 24 25  1  1  0  0  0
 24 26  1  0  0  0  0
 26 17  1  0  0  0  0
 26 27  1  6  0  0  0
 28 29  1  1  0  0  0
 28 30  1  0  0  0  0
 30 31  1  1  0  0  0
M  END
>  <CHROM.1>
-176.14638903,66.74211419,-166.98307689,-134.73627664,67.09025370,-18.51121844
175.99687903,77.36232086,81.06693005,61.54263431,58.74247700,62.89880863
60.96778680,-38.37349758,-58.20446935,174.00294190,-2.55590034,3.45500380
6.07602212,2.38341749,0.92658382,-0.40233170

>  <Name>
lig.pdb

>  <RI>
3.32461e+07

>  <Rbt.Current_Directory>
/home/itssahil/PROJECTS/Mol_Feturizer/New_Systems/rnas/2n0j

>  <Rbt.Executable>
rbdock ($Id: //depot/dev/client3/rdock/2013.1/src/exe/rbdock.cxx#4 $)

>  <Rbt.Library>
libRbt.so (2013.1, Build901 2013/11/27)

>  <Rbt.Parameter_File>
/export/apps/rDock/src/rDock_2013.1_src/data/scripts/dock_solv.prm

>  <Rbt.Receptor>
prm/pocket_docking_7.prm

>  <SCORE>
-33.852

>  <SCORE.INTER>
-32.4211

>  <SCORE.INTER.CONST>
1

>  <SCORE.INTER.POLAR>
-4.41605

>  <SCORE.INTER.ROT>
6

>  <SCORE.INTER.SOLV>
13.4947

>  <SCORE.INTER.VDW>
-18.9921

>  <SCORE.INTER.norm>
-1.04584

>  <SCORE.INTRA>
-1.43095

>  <SCORE.INTRA.DIHEDRAL>
-12.685

>  <SCORE.INTRA.DIHEDRAL.0>
28.0161

>  <SCORE.INTRA.POLAR>
0.934332

>  <SCORE.INTRA.POLAR.0>
-1.05798

>  <SCORE.INTRA.REPUL>
0

>  <SCORE.INTRA.REPUL.0>
0

>  <SCORE.INTRA.SOLV>
-0.192819

>  <SCORE.INTRA.SOLV.lig_0>
-42.5945

>  <SCORE.INTRA.VDW>
1.83124

>  <SCORE.INTRA.VDW.0>
-5.13869

>  <SCORE.INTRA.norm>
-0.0461596

>  <SCORE.RESTR>
0

>  <SCORE.RESTR.CAVITY>
0

>  <SCORE.RESTR.norm>
0

>  <SCORE.SYSTEM>
0

>  <SCORE.SYSTEM.CONST>
0

>  <SCORE.SYSTEM.DIHEDRAL>
0

>  <SCORE.SYSTEM.SOLV>
0

>  <SCORE.SYSTEM.norm>
0

>  <SCORE.heavy>
31

>  <SCORE.norm>
-1.092

>  <RMSD>
6.216

$$$$
lig.pdb
 OpenBabel11021811453D
libRbt.so/2013.1/901 2013/11/27
 31 33  0  0  0  0  0  0  0  0999 V2000
    4.1697    3.6922    0.7786 O   0  0  0  0  0  0  0  0  0  0  0  0
    3.4197    4.1283    1.8955 C   0  0  0  0  0  0  0  0  0  0  0  0
    1.9320    4.2766    1.5491 C   0  0  1  0  0  0  0  0  0  0  0  0
    1.3590    3.0432    1.1448 O   0  0  0  0  0  0  0  0  0  0  0  0
   -0.0399    3.0547    1.4127 C   0  0  1  0  0  0  0  0  0  0  0  0
   -0.4155    1.8500    2.0696 O   0  0  0  0  0  0  0  0  0  0  0  0
   -0.5655    0.6926    1.2628 C   0  0  2  0  0  0  0  0  0  0  0  0
   -1.9307    0.7843    0.5629 C   0  0  1  0  0  0  0  0  0  0  0  0
   -1.9040    1.8237   -0.4028 O   0  0  0  0  0  0  0  0  0  0  0  0
   -2.3503   -0.5031   -0.1628 C   0  0  2  0  0  0  0  0  0  0  0  0
   -3.7038   -0.3755   -0.7248 N   0  0  0  0  0  0  0  0  0  0  0  0
   -2.3131   -1.6765    0.8091 C   0  0  0  0  0  0  0  0  0  0  0  0
   -0.9243   -1.7877    1.4263 C   0  0  2  0  0  0  0  0  0  0  0  0
   -0.9018   -2.9556    2.3135 N   0  0  0  0  0  0  0  0  0  0  0  0
   -0.5653   -0.4886    2.1794 C   0  0  1  0  0  0  0  0  0  0  0  0
    0.7427   -0.7120    2.7276 O   0  0  0  0  0  0  0  0  0  0  0  0
    1.2209    0.2377    3.6741 C   0  0  1  0  0  0  0  0  0  0  0  0
    0.4082    0.2347    4.8447 O   0  0  0  0  0  0  0  0  0  0  0  0
    0.4833   -0.9320    5.6612 C   0  0  2  0  0  0  0  0  0  0  0  0
   -0.4500   -0.7559    6.8665 C   0  0  0  0  0  0  0  0  0  0  0  0
   -0.8163   -2.0361    7.4553 N   0  0  0  0  0  0  0  0  0  0  0  0
    1.9251   -1.1686    6.1477 C   0  0  1  0  0  0  0  0  0  0  0  0
    1.9847   -2.3631    6.9068 O   0  0  0  0  0  0  0  0  0  0  0  0
    2.8457   -1.2801    4.9260 C   0  0  2  0  0  0  0  0  0  0  0  0
    4.1923   -1.4105    5.3416 O   0  0  0  0  0  0  0  0  0  0  0  0
    2.6865   -0.0563    4.0139 C   0  0  1  0  0  0  0  0  0  0  0  0
    3.4762   -0.2346    2.7871 N   0  0  0  0  0  0  0  0  0  0  0  0
   -0.3051    4.2495    2.3403 C   0  0  2  0  0  0  0  0  0  0  0  0
   -0.9973    5.2618    1.6334 O   0  0  0  0  0  0  0  0  0  0  0  0
    1.1011    4.6672    2.7672 C   0  0  2  0  0  0  0  0  0  0  0  0
    1.2076    6.0337    3.1144 O   0  0  0  0  0  0  0  0  0  0  0  0
  2  1  1  0  0  0  0
  3  2  1  1  0  0  0
  3 30  1  0  0  0  0
  4  5  1  0  0  0  0
  4  3  1  0  0  0  0
  5 28  1  0  0  0  0
  5  6  1  1  0  0  0
  7  6  1  1  0  0  0
  8  7  1  0  0  0  0
  8  9  1  6  0  0  0
 10 11  1  1  0  0  0
 10  8  1  0  0  0  0
 12 10  1  0  0  0  0
 13 12  1  0  0  0  0
 13 15  1  0  0  0  0
 13 14  1  1  0  0  0
 15  7  1  0  0  0  0
 15 16  1  6  0  0  0
 17 16  1  6  0  0  0
 18 17  1  0  0  0  0
 19 20  1  1  0  0  0
 19 18  1  0  0  0  0
 20 21  1  0  0  0  0
 22 24  1  0  0  0  0
 22 19  1  0  0  0  0
 22 23  1  6  0  0  0
 24 25  1  1  0  0  0
 24 26  1  0  0  0  0
 26 17  1  0  0  0  0
 26 27  1  6  0  0  0
 28 29  1  6  0  0  0
 28 30  1  0  0  0  0
 30 31  1  6  0  0  0
M  END
>  <CHROM.1>
-169.69994641,61.30298121,-78.66920988,-78.77115392,-177.76929834,-52.12830532
-62.88157499,70.14185760,63.87243207,158.51181167,-55.31566806,-168.06832933
137.42253405,-91.97825343,70.41110123,-167.83536362,0.49704206,0.80889900
2.82582908,-1.76671787,0.68136829,2.56438506

>  <Name>
lig.pdb

>  <RI>
9.20816e+06

>  <Rbt.Current_Directory>
/home/itssahil/PROJECTS/Mol_Feturizer/New_Systems/rnas/2n0j

>  <Rbt.Executable>
rbdock ($Id: //depot/dev/client3/rdock/2013.1/src/exe/rbdock.cxx#4 $)

>  <Rbt.Library>
libRbt.so (2013.1, Build901 2013/11/27)

>  <Rbt.Parameter_File>
/export/apps/rDock/src/rDock_2013.1_src/data/scripts/dock_solv.prm

>  <Rbt.Receptor>
prm/blind_docking_100.prm

>  <SCORE>
-44.4711

>  <SCORE.INTER>
-42.364

>  <SCORE.INTER.CONST>
1

>  <SCORE.INTER.POLAR>
-6.1085

>  <SCORE.INTER.ROT>
6

>  <SCORE.INTER.SOLV>
24.4483

>  <SCORE.INTER.VDW>
-23.6305

>  <SCORE.INTER.norm>
-1.36658

>  <SCORE.INTRA>
-2.61048

>  <SCORE.INTRA.DIHEDRAL>
-11.9742

>  <SCORE.INTRA.DIHEDRAL.0>
28.0161

>  <SCORE.INTRA.POLAR>
0.632664

>  <SCORE.INTRA.POLAR.0>
-1.05798

>  <SCORE.INTRA.REPUL>
0

>  <SCORE.INTRA.REPUL.0>
0

>  <SCORE.INTRA.SOLV>
-0.417013

>  <SCORE.INTRA.SOLV.lig_0>
-42.5945

>  <SCORE.INTRA.VDW>
1.43407

>  <SCORE.INTRA.VDW.0>
-5.13869

>  <SCORE.INTRA.norm>
-0.084209

>  <SCORE.RESTR>
0.503368

>  <SCORE.RESTR.CAVITY>
0.503368

>  <SCORE.RESTR.norm>
0.0162377

>  <SCORE.SYSTEM>
0

>  <SCORE.SYSTEM.CONST>
0

>  <SCORE.SYSTEM.DIHEDRAL>
0

>  <SCORE.SYSTEM.SOLV>
0

>  <SCORE.SYSTEM.norm>
0

>  <SCORE.heavy>
31

>  <SCORE.norm>
-1.43455

>  <RMSD>
6.220

$$$$
lig.pdb
 OpenBabel11021811453D
libRbt.so/2013.1/901 2013/11/27
 31 33  0  0  0  0  0  0  0  0999 V2000
    4.2376    3.1696    0.6271 O   0  0  0  0  0  0  0  0  0  0  0  0
    3.5706    3.7006    1.7555 C   0  0  0  0  0  0  0  0  0  0  0  0
    2.0869    3.9587    1.4602 C   0  0  1  0  0  0  0  0  0  0  0  0
    1.4063    2.7678    1.0972 O   0  0  0  0  0  0  0  0  0  0  0  0
    0.0234    2.8911    1.4149 C   0  0  1  0  0  0  0  0  0  0  0  0
   -0.4190    1.7282    2.1045 O   0  0  0  0  0  0  0  0  0  0  0  0
   -0.5633    0.5398    1.3431 C   0  0  2  0  0  0  0  0  0  0  0  0
   -1.9010    0.6256    0.5912 C   0  0  1  0  0  0  0  0  0  0  0  0
   -1.8200    1.6214   -0.4164 O   0  0  0  0  0  0  0  0  0  0  0  0
   -2.3199   -0.6843   -0.0934 C   0  0  2  0  0  0  0  0  0  0  0  0
   -3.6501   -0.5569   -0.7086 N   0  0  0  0  0  0  0  0  0  0  0  0
   -2.3398   -1.8149    0.9285 C   0  0  0  0  0  0  0  0  0  0  0  0
   -0.9760   -1.9243    1.5994 C   0  0  2  0  0  0  0  0  0  0  0  0
   -1.0077   -3.0527    2.5360 N   0  0  0  0  0  0  0  0  0  0  0  0
   -0.6184   -0.6004    2.3087 C   0  0  1  0  0  0  0  0  0  0  0  0
    0.6650   -0.8233    2.9127 O   0  0  0  0  0  0  0  0  0  0  0  0
    1.2065    0.2348    3.6961 C   0  0  1  0  0  0  0  0  0  0  0  0
    0.5201    0.3420    4.9403 O   0  0  0  0  0  0  0  0  0  0  0  0
    0.7186   -0.7262    5.8639 C   0  0  2  0  0  0  0  0  0  0  0  0
   -0.0900   -0.4399    7.1362 C   0  0  0  0  0  0  0  0  0  0  0  0
   -0.8346   -1.6112    7.5759 N   0  0  0  0  0  0  0  0  0  0  0  0
    2.2103   -0.8761    6.2161 C   0  0  1  0  0  0  0  0  0  0  0  0
    2.3883   -1.9786    7.0875 O   0  0  0  0  0  0  0  0  0  0  0  0
    3.0024   -1.1003    4.9221 C   0  0  2  0  0  0  0  0  0  0  0  0
    4.3885   -1.1546    5.2031 O   0  0  0  0  0  0  0  0  0  0  0  0
    2.7084    0.0124    3.9069 C   0  0  1  0  0  0  0  0  0  0  0  0
    3.3723   -0.2818    2.6289 N   0  0  0  0  0  0  0  0  0  0  0  0
   -0.1149    4.1154    2.3315 C   0  0  2  0  0  0  0  0  0  0  0  0
   -0.7530    5.1685    1.6332 O   0  0  0  0  0  0  0  0  0  0  0  0
    1.3341    4.4290    2.7008 C   0  0  2  0  0  0  0  0  0  0  0  0
    1.5579    5.7878    3.0214 O   0  0  0  0  0  0  0  0  0  0  0  0
  2  1  1  0  0  0  0
  3  2  1  1  0  0  0
  3 30  1  0  0  0  0
  4  5  1  0  0  0  0
  4  3  1  0  0  0  0
  5 28  1  0  0  0  0
  5  6  1  1  0  0  0
  7  6  1  1  0  0  0
  8  7  1  0  0  0  0
  8  9  1  6  0  0  0
 10 11  1  1  0  0  0
 10  8  1  0  0  0  0
 12 10  1  0  0  0  0
 13 12  1  0  0  0  0
 13 15  1  0  0  0  0
 13 14  1  1  0  0  0
 15  7  1  0  0  0  0
 15 16  1  6  0  0  0
 17 16  1  1  0  0  0
 18 17  1  0  0  0  0
 19 20  1  1  0  0  0
 19 18  1  0  0  0  0
 20 21  1  0  0  0  0
 22 24  1  0  0  0  0
 22 19  1  0  0  0  0
 22 23  1  1  0  0  0
 24 25  1  1  0  0  0
 24 26  1  0  0  0  0
 26 17  1  0  0  0  0
 26 27  1  6  0  0  0
 28 29  1  6  0  0  0
 28 30  1  0  0  0  0
 30 31  1  6  0  0  0
M  END
>  <CHROM.1>
-66.67795298,60.22993523,-72.74682853,-79.74260344,-86.63745789,64.99415004
57.55254327,62.14870659,73.53416592,133.69933750,82.62905022,50.51198052
-62.35410835,158.33189612,-38.58479299,63.90904325,0.59195635,0.75477217
2.85198624,-1.84726024,0.68137642,2.49120698

>  <Name>
lig.pdb

>  <RI>
9.20816e+06

>  <Rbt.Current_Directory>
/home/itssahil/PROJECTS/Mol_Feturizer/New_Systems/rnas/2n0j

>  <Rbt.Executable>
rbdock ($Id: //depot/dev/client3/rdock/2013.1/src/exe/rbdock.cxx#4 $)

>  <Rbt.Library>
libRbt.so (2013.1, Build901 2013/11/27)

>  <Rbt.Parameter_File>
/export/apps/rDock/src/rDock_2013.1_src/data/scripts/dock_solv.prm

>  <Rbt.Receptor>
prm/blind_docking_100.prm

>  <SCORE>
-38.5745

>  <SCORE.INTER>
-38.8072

>  <SCORE.INTER.CONST>
1

>  <SCORE.INTER.POLAR>
-4.86447

>  <SCORE.INTER.ROT>
6

>  <SCORE.INTER.SOLV>
23.8837

>  <SCORE.INTER.VDW>
-25.2178

>  <SCORE.INTER.norm>
-1.25184

>  <SCORE.INTRA>
-0.357687

>  <SCORE.INTRA.DIHEDRAL>
-11.7035

>  <SCORE.INTRA.DIHEDRAL.0>
28.0161

>  <SCORE.INTRA.POLAR>
1.05739

>  <SCORE.INTRA.POLAR.0>
-1.05798

>  <SCORE.INTRA.REPUL>
0.0166727

>  <SCORE.INTRA.REPUL.0>
0

>  <SCORE.INTRA.SOLV>
-0.443249

>  <SCORE.INTRA.SOLV.lig_0>
-42.5945

>  <SCORE.INTRA.VDW>
2.03723

>  <SCORE.INTRA.VDW.0>
-5.13869

>  <SCORE.INTRA.norm>
-0.0115383

>  <SCORE.RESTR>
0.59037

>  <SCORE.RESTR.CAVITY>
0.59037

>  <SCORE.RESTR.norm>
0.0190442

>  <SCORE.SYSTEM>
0

>  <SCORE.SYSTEM.CONST>
0

>  <SCORE.SYSTEM.DIHEDRAL>
0

>  <SCORE.SYSTEM.SOLV>
0

>  <SCORE.SYSTEM.norm>
0

>  <SCORE.heavy>
31

>  <SCORE.norm>
-1.24434

>  <RMSD>
6.220

$$$$
lig.pdb
 OpenBabel11021811453D
libRbt.so/2013.1/901 2013/11/27
 31 33  0  0  0  0  0  0  0  0999 V2000
    1.8365    9.3291    1.5711 O   0  0  0  0  0  0  0  0  0  0  0  0
    1.3064    8.1316    2.1050 C   0  0  0  0  0  0  0  0  0  0  0  0
    2.3812    7.0415    2.2134 C   0  0  1  0  0  0  0  0  0  0  0  0
    1.8748    5.8590    2.8119 O   0  0  0  0  0  0  0  0  0  0  0  0
    2.6327    4.7368    2.3703 C   0  0  1  0  0  0  0  0  0  0  0  0
    1.7564    3.6923    1.9639 O   0  0  0  0  0  0  0  0  0  0  0  0
    1.4958    2.6633    2.9052 C   0  0  2  0  0  0  0  0  0  0  0  0
    2.1376    1.3712    2.3751 C   0  0  1  0  0  0  0  0  0  0  0  0
    3.5511    1.4812    2.4323 O   0  0  0  0  0  0  0  0  0  0  0  0
    1.7453    0.1096    3.1591 C   0  0  2  0  0  0  0  0  0  0  0  0
    2.3163   -1.0962    2.5394 N   0  0  0  0  0  0  0  0  0  0  0  0
    0.2269   -0.0148    3.2065 C   0  0  0  0  0  0  0  0  0  0  0  0
   -0.3730    1.2496    3.8092 C   0  0  2  0  0  0  0  0  0  0  0  0
   -1.8276    1.0801    3.8929 N   0  0  0  0  0  0  0  0  0  0  0  0
    0.0127    2.4830    2.9642 C   0  0  1  0  0  0  0  0  0  0  0  0
   -0.6145    3.6016    3.6098 O   0  0  0  0  0  0  0  0  0  0  0  0
   -1.9158    3.9644    3.1608 C   0  0  1  0  0  0  0  0  0  0  0  0
   -2.8414    3.9602    4.2443 O   0  0  0  0  0  0  0  0  0  0  0  0
   -2.6664    4.9788    5.2268 C   0  0  2  0  0  0  0  0  0  0  0  0
   -3.7456    4.8190    6.3060 C   0  0  0  0  0  0  0  0  0  0  0  0
   -5.0268    4.4321    5.7329 N   0  0  0  0  0  0  0  0  0  0  0  0
   -2.7678    6.3774    4.5903 C   0  0  1  0  0  0  0  0  0  0  0  0
   -2.5328    7.3695    5.5737 O   0  0  0  0  0  0  0  0  0  0  0  0
   -1.7204    6.4890    3.4755 C   0  0  2  0  0  0  0  0  0  0  0  0
   -1.8466    7.7326    2.8118 O   0  0  0  0  0  0  0  0  0  0  0  0
   -1.8684    5.3346    2.4752 C   0  0  1  0  0  0  0  0  0  0  0  0
   -0.7820    5.3809    1.4862 N   0  0  0  0  0  0  0  0  0  0  0  0
    3.4637    5.2069    1.1676 C   0  0  2  0  0  0  0  0  0  0  0  0
    4.8303    5.2833    1.5285 O   0  0  0  0  0  0  0  0  0  0  0  0
    2.8502    6.5676    0.8414 C   0  0  2  0  0  0  0  0  0  0  0  0
    3.7466    7.4583    0.2073 O   0  0  0  0  0  0  0  0  0  0  0  0
  2  1  1  0  0  0  0
  3  2  1  6  0  0  0
  3 30  1  0  0  0  0
  4  5  1  0  0  0  0
  4  3  1  0  0  0  0
  5 28  1  0  0  0  0
  5  6  1  6  0  0  0
  7  6  1  6  0  0  0
  8  7  1  0  0  0  0
  8  9  1  1  0  0  0
 10 11  1  6  0  0  0
 10  8  1  0  0  0  0
 12 10  1  0  0  0  0
 13 12  1  0  0  0  0
 13 15  1  0  0  0  0
 13 14  1  6  0  0  0
 15  7  1  0  0  0  0
 15 16  1  1  0  0  0
 17 16  1  1  0  0  0
 18 17  1  0  0  0  0
 19 20  1  1  0  0  0
 19 18  1  0  0  0  0
 20 21  1  0  0  0  0
 22 24  1  0  0  0  0
 22 19  1  0  0  0  0
 22 23  1  1  0  0  0
 24 25  1  6  0  0  0
 24 26  1  0  0  0  0
 26 17  1  0  0  0  0
 26 27  1  6  0  0  0
 28 29  1  1  0  0  0
 28 30  1  0  0  0  0
 30 31  1  1  0  0  0
M  END
>  <CHROM.1>
-71.84744521,176.96679568,-97.77829911,-112.15576756,-159.65851239,-110.12921688
58.85267904,147.44422578,123.72490983,-38.41366915,53.57211451,-175.65534123
-66.14645787,-68.08117326,61.87649393,-56.55269469,0.24788621,4.45243882
2.97913991,-0.03085987,0.46686322,-0.12338490

>  <Name>
lig.pdb

>  <RI>
3.33129e+07

>  <Rbt.Current_Directory>
/home/itssahil/PROJECTS/Mol_Feturizer/New_Systems/rnas/2n0j

>  <Rbt.Executable>
rbdock ($Id: //depot/dev/client3/rdock/2013.1/src/exe/rbdock.cxx#4 $)

>  <Rbt.Library>
libRbt.so (2013.1, Build901 2013/11/27)

>  <Rbt.Parameter_File>
/export/apps/rDock/src/rDock_2013.1_src/data/scripts/dock_solv.prm

>  <Rbt.Receptor>
prm/pocket_docking_4.prm

>  <SCORE>
-46.5664

>  <SCORE.INTER>
-45.4816

>  <SCORE.INTER.CONST>
1

>  <SCORE.INTER.POLAR>
-5.072

>  <SCORE.INTER.ROT>
6

>  <SCORE.INTER.SOLV>
18.452

>  <SCORE.INTER.VDW>
-27.1651

>  <SCORE.INTER.norm>
-1.46715

>  <SCORE.INTRA>
-1.08474

>  <SCORE.INTRA.DIHEDRAL>
3.38355

>  <SCORE.INTRA.DIHEDRAL.0>
28.0161

>  <SCORE.INTRA.POLAR>
-1.14127

>  <SCORE.INTRA.POLAR.0>
-1.05798

>  <SCORE.INTRA.REPUL>
0

>  <SCORE.INTRA.REPUL.0>
0

>  <SCORE.INTRA.SOLV>
1.32408

>  <SCORE.INTRA.SOLV.lig_0>
-42.5945

>  <SCORE.INTRA.VDW>
0.44178

>  <SCORE.INTRA.VDW.0>
-5.13869

>  <SCORE.INTRA.norm>
-0.0349915

>  <SCORE.RESTR>
0

>  <SCORE.RESTR.CAVITY>
0

>  <SCORE.RESTR.norm>
0

>  <SCORE.SYSTEM>
0

>  <SCORE.SYSTEM.CONST>
0

>  <SCORE.SYSTEM.DIHEDRAL>
0

>  <SCORE.SYSTEM.SOLV>
0

>  <SCORE.SYSTEM.norm>
0

>  <SCORE.heavy>
31

>  <SCORE.norm>
-1.50214

>  <RMSD>
6.224

$$$$
lig.pdb
 OpenBabel11021811453D
libRbt.so/2013.1/901 2013/11/27
 31 33  0  0  0  0  0  0  0  0999 V2000
   -0.6510    6.1735    2.1174 O   0  0  0  0  0  0  0  0  0  0  0  0
    0.6056    6.0114    2.7457 C   0  0  0  0  0  0  0  0  0  0  0  0
    1.1042    4.5640    2.6381 C   0  0  1  0  0  0  0  0  0  0  0  0
    0.0998    3.6314    3.0045 O   0  0  0  0  0  0  0  0  0  0  0  0
    0.3406    2.3879    2.3529 C   0  0  1  0  0  0  0  0  0  0  0  0
   -0.8624    1.9120    1.7614 O   0  0  0  0  0  0  0  0  0  0  0  0
   -0.8055    0.6599    1.0967 C   0  0  2  0  0  0  0  0  0  0  0  0
   -2.0224    0.5708    0.1621 C   0  0  1  0  0  0  0  0  0  0  0  0
   -1.8703    1.4883   -0.9096 O   0  0  0  0  0  0  0  0  0  0  0  0
   -2.2386   -0.8198   -0.4540 C   0  0  2  0  0  0  0  0  0  0  0  0
   -3.4711   -0.8561   -1.2564 N   0  0  0  0  0  0  0  0  0  0  0  0
   -2.3226   -1.8648    0.6523 C   0  0  0  0  0  0  0  0  0  0  0  0
   -1.0665   -1.8031    1.5127 C   0  0  2  0  0  0  0  0  0  0  0  0
   -1.1497   -2.8537    2.5331 N   0  0  0  0  0  0  0  0  0  0  0  0
   -0.9153   -0.4021    2.1434 C   0  0  1  0  0  0  0  0  0  0  0  0
    0.2797   -0.4655    2.9369 O   0  0  0  0  0  0  0  0  0  0  0  0
    0.2766    0.2410    4.1728 C   0  0  1  0  0  0  0  0  0  0  0  0
   -0.8559   -0.1226    4.9575 O   0  0  0  0  0  0  0  0  0  0  0  0
   -0.8641   -1.4514    5.4749 C   0  0  2  0  0  0  0  0  0  0  0  0
   -2.1483   -1.6602    6.2883 C   0  0  0  0  0  0  0  0  0  0  0  0
   -2.2773   -0.6754    7.3529 N   0  0  0  0  0  0  0  0  0  0  0  0
    0.3657   -1.6993    6.3681 C   0  0  1  0  0  0  0  0  0  0  0  0
    0.3657   -3.0412    6.8217 O   0  0  0  0  0  0  0  0  0  0  0  0
    1.6333   -1.4250    5.5494 C   0  0  2  0  0  0  0  0  0  0  0  0
    2.7800   -1.5593    6.3679 O   0  0  0  0  0  0  0  0  0  0  0  0
    1.5843   -0.0227    4.9280 C   0  0  1  0  0  0  0  0  0  0  0  0
    2.7416    0.1790    4.0446 N   0  0  0  0  0  0  0  0  0  0  0  0
    1.3816    2.6550    1.2560 C   0  0  2  0  0  0  0  0  0  0  0  0
    2.6194    2.0705    1.6159 O   0  0  0  0  0  0  0  0  0  0  0  0
    1.4306    4.1810    1.1981 C   0  0  2  0  0  0  0  0  0  0  0  0
    2.6658    4.6933    0.7388 O   0  0  0  0  0  0  0  0  0  0  0  0
  2  1  1  0  0  0  0
  3  2  1  6  0  0  0
  3 30  1  0  0  0  0
  4  5  1  0  0  0  0
  4  3  1  0  0  0  0
  5 28  1  0  0  0  0
  5  6  1  6  0  0  0
  7  6  1  1  0  0  0
  8  7  1  0  0  0  0
  8  9  1  6  0  0  0
 10 11  1  1  0  0  0
 10  8  1  0  0  0  0
 12 10  1  0  0  0  0
 13 12  1  0  0  0  0
 13 15  1  0  0  0  0
 13 14  1  1  0  0  0
 15  7  1  0  0  0  0
 15 16  1  6  0  0  0
 17 16  1  6  0  0  0
 18 17  1  0  0  0  0
 19 20  1  1  0  0  0
 19 18  1  0  0  0  0
 20 21  1  0  0  0  0
 22 24  1  0  0  0  0
 22 19  1  0  0  0  0
 22 23  1  6  0  0  0
 24 25  1  1  0  0  0
 24 26  1  0  0  0  0
 26 17  1  0  0  0  0
 26 27  1  6  0  0  0
 28 29  1  1  0  0  0
 28 30  1  0  0  0  0
 30 31  1  1  0  0  0
M  END
>  <CHROM.1>
-86.56857832,-48.28486102,-178.44708196,-161.31294021,-174.75139473,-61.59529496
170.41636046,96.39762489,52.49098406,-56.56848723,-70.51543751,-65.37141727
172.33017660,48.10312420,-68.53558996,-61.38772261,-0.09550140,0.67756038
2.91970386,-1.45887214,0.90078761,2.37777701

>  <Name>
lig.pdb

>  <RI>
1.79691e+07

>  <Rbt.Current_Directory>
/home/itssahil/PROJECTS/Mol_Feturizer/New_Systems/rnas/2n0j

>  <Rbt.Executable>
rbdock ($Id: //depot/dev/client3/rdock/2013.1/src/exe/rbdock.cxx#4 $)

>  <Rbt.Library>
libRbt.so (2013.1, Build901 2013/11/27)

>  <Rbt.Parameter_File>
/export/apps/rDock/src/rDock_2013.1_src/data/scripts/dock_solv.prm

>  <Rbt.Receptor>
prm/blind_docking_20.prm

>  <SCORE>
-29.6203

>  <SCORE.INTER>
-28.5053

>  <SCORE.INTER.CONST>
1

>  <SCORE.INTER.POLAR>
-3.31993

>  <SCORE.INTER.ROT>
6

>  <SCORE.INTER.SOLV>
21.3648

>  <SCORE.INTER.VDW>
-22.6587

>  <SCORE.INTER.norm>
-0.919526

>  <SCORE.INTRA>
-2.97861

>  <SCORE.INTRA.DIHEDRAL>
-15.7181

>  <SCORE.INTRA.DIHEDRAL.0>
28.0161

>  <SCORE.INTRA.POLAR>
0.69766

>  <SCORE.INTRA.POLAR.0>
-1.05798

>  <SCORE.INTRA.REPUL>
0

>  <SCORE.INTRA.REPUL.0>
0

>  <SCORE.INTRA.SOLV>
1.17711

>  <SCORE.INTRA.SOLV.lig_0>
-42.5945

>  <SCORE.INTRA.VDW>
1.91986

>  <SCORE.INTRA.VDW.0>
-5.13869

>  <SCORE.INTRA.norm>
-0.0960842

>  <SCORE.RESTR>
1.8636

>  <SCORE.RESTR.CAVITY>
1.8636

>  <SCORE.RESTR.norm>
0.0601163

>  <SCORE.SYSTEM>
0

>  <SCORE.SYSTEM.CONST>
0

>  <SCORE.SYSTEM.DIHEDRAL>
0

>  <SCORE.SYSTEM.SOLV>
0

>  <SCORE.SYSTEM.norm>
0

>  <SCORE.heavy>
31

>  <SCORE.norm>
-0.955494

>  <RMSD>
6.229

$$$$
lig.pdb
 OpenBabel11021811453D
libRbt.so/2013.1/901 2013/11/27
 31 33  0  0  0  0  0  0  0  0999 V2000
    3.9235    2.6191    2.0808 O   0  0  0  0  0  0  0  0  0  0  0  0
    3.6097    3.9938    1.9723 C   0  0  0  0  0  0  0  0  0  0  0  0
    2.1353    4.2053    1.6026 C   0  0  1  0  0  0  0  0  0  0  0  0
    1.5185    2.9987    1.1824 O   0  0  0  0  0  0  0  0  0  0  0  0
    0.1171    3.0670    1.4277 C   0  0  1  0  0  0  0  0  0  0  0  0
   -0.3188    1.8758    2.0718 O   0  0  0  0  0  0  0  0  0  0  0  0
   -0.4667    0.7196    1.2629 C   0  0  2  0  0  0  0  0  0  0  0  0
   -1.8154    0.8284    0.5339 C   0  0  1  0  0  0  0  0  0  0  0  0
   -1.7545    1.8662   -0.4318 O   0  0  0  0  0  0  0  0  0  0  0  0
   -2.2362   -0.4543   -0.1995 C   0  0  2  0  0  0  0  0  0  0  0  0
   -3.5756   -0.3096   -0.7903 N   0  0  0  0  0  0  0  0  0  0  0  0
   -2.2351   -1.6270    0.7739 C   0  0  0  0  0  0  0  0  0  0  0  0
   -0.8613   -1.7557    1.4207 C   0  0  2  0  0  0  0  0  0  0  0  0
   -0.8731   -2.9228    2.3092 N   0  0  0  0  0  0  0  0  0  0  0  0
   -0.5016   -0.4605    2.1802 C   0  0  1  0  0  0  0  0  0  0  0  0
    0.7915   -0.7004    2.7565 O   0  0  0  0  0  0  0  0  0  0  0  0
    1.2543    0.2347    3.7249 C   0  0  1  0  0  0  0  0  0  0  0  0
    0.4620    0.1683    4.9075 O   0  0  0  0  0  0  0  0  0  0  0  0
    0.5888   -1.0201    5.6854 C   0  0  2  0  0  0  0  0  0  0  0  0
   -0.3292   -0.9127    6.9103 C   0  0  0  0  0  0  0  0  0  0  0  0
   -0.8138   -2.2179    7.3359 N   0  0  0  0  0  0  0  0  0  0  0  0
    2.0456   -1.2239    6.1412 C   0  0  1  0  0  0  0  0  0  0  0  0
    2.1569   -2.4388    6.8610 O   0  0  0  0  0  0  0  0  0  0  0  0
    2.9486   -1.2667    4.9022 C   0  0  2  0  0  0  0  0  0  0  0  0
    4.3056   -1.3654    5.2920 O   0  0  0  0  0  0  0  0  0  0  0  0
    2.7342   -0.0210    4.0319 C   0  0  1  0  0  0  0  0  0  0  0  0
    3.5086   -0.1348    2.7877 N   0  0  0  0  0  0  0  0  0  0  0  0
   -0.1137    4.2673    2.3572 C   0  0  2  0  0  0  0  0  0  0  0  0
   -0.7516    5.3108    1.6447 O   0  0  0  0  0  0  0  0  0  0  0  0
    1.3015    4.6243    2.8092 C   0  0  2  0  0  0  0  0  0  0  0  0
    1.4587    5.9835    3.1655 O   0  0  0  0  0  0  0  0  0  0  0  0
  2  1  1  0  0  0  0
  3  2  1  1  0  0  0
  3 30  1  0  0  0  0
  4  5  1  0  0  0  0
  4  3  1  0  0  0  0
  5 28  1  0  0  0  0
  5  6  1  1  0  0  0
  7  6  1  1  0  0  0
  8  7  1  0  0  0  0
  8  9  1  6  0  0  0
 10 11  1  1  0  0  0
 10  8  1  0  0  0  0
 12 10  1  0  0  0  0
 13 12  1  0  0  0  0
 13 15  1  0  0  0  0
 13 14  1  1  0  0  0
 15  7  1  0  0  0  0
 15 16  1  6  0  0  0
 17 16  1  6  0  0  0
 18 17  1  0  0  0  0
 19 20  1  1  0  0  0
 19 18  1  0  0  0  0
 20 21  1  0  0  0  0
 22 24  1  0  0  0  0
 22 19  1  0  0  0  0
 22 23  1  6  0  0  0
 24 25  1  1  0  0  0
 24 26  1  0  0  0  0
 26 17  1  0  0  0  0
 26 27  1  6  0  0  0
 28 29  1  6  0  0  0
 28 30  1  0  0  0  0
 30 31  1  6  0  0  0
M  END
>  <CHROM.1>
67.50025445,-12.53693168,-76.92117567,-80.22412387,61.61521749,54.21548958
178.25150566,70.92982725,67.32759766,149.48129929,-25.04023389,174.96470070
-68.09266195,43.72260829,178.37232751,175.35859640,0.60193420,0.76468459
2.87498478,-1.84546289,0.70009429,2.59119675

>  <Name>
lig.pdb

>  <RI>
1.79691e+07

>  <Rbt.Current_Directory>
/home/itssahil/PROJECTS/Mol_Feturizer/New_Systems/rnas/2n0j

>  <Rbt.Executable>
rbdock ($Id: //depot/dev/client3/rdock/2013.1/src/exe/rbdock.cxx#4 $)

>  <Rbt.Library>
libRbt.so (2013.1, Build901 2013/11/27)

>  <Rbt.Parameter_File>
/export/apps/rDock/src/rDock_2013.1_src/data/scripts/dock_solv.prm

>  <Rbt.Receptor>
prm/blind_docking_20.prm

>  <SCORE>
-38.2325

>  <SCORE.INTER>
-36.0275

>  <SCORE.INTER.CONST>
1

>  <SCORE.INTER.POLAR>
-3.98829

>  <SCORE.INTER.ROT>
6

>  <SCORE.INTER.SOLV>
25.0354

>  <SCORE.INTER.VDW>
-26.6691

>  <SCORE.INTER.norm>
-1.16218

>  <SCORE.INTRA>
-2.59864

>  <SCORE.INTRA.DIHEDRAL>
-12.4571

>  <SCORE.INTRA.DIHEDRAL.0>
28.0161

>  <SCORE.INTRA.POLAR>
0.511231

>  <SCORE.INTRA.POLAR.0>
-1.05798

>  <SCORE.INTRA.REPUL>
0

>  <SCORE.INTRA.REPUL.0>
0

>  <SCORE.INTRA.SOLV>
1.18769

>  <SCORE.INTRA.SOLV.lig_0>
-42.5945

>  <SCORE.INTRA.VDW>
1.29788

>  <SCORE.INTRA.VDW.0>
-5.13869

>  <SCORE.INTRA.norm>
-0.083827

>  <SCORE.RESTR>
0.393618

>  <SCORE.RESTR.CAVITY>
0.393618

>  <SCORE.RESTR.norm>
0.0126974

>  <SCORE.SYSTEM>
0

>  <SCORE.SYSTEM.CONST>
0

>  <SCORE.SYSTEM.DIHEDRAL>
0

>  <SCORE.SYSTEM.SOLV>
0

>  <SCORE.SYSTEM.norm>
0

>  <SCORE.heavy>
31

>  <SCORE.norm>
-1.23331

>  <RMSD>
6.229

$$$$
lig.pdb
 OpenBabel11021811453D
libRbt.so/2013.1/901 2013/11/27
 31 33  0  0  0  0  0  0  0  0999 V2000
   -0.3777   -1.2037    6.9453 O   0  0  0  0  0  0  0  0  0  0  0  0
    0.9369   -1.1010    6.4342 C   0  0  0  0  0  0  0  0  0  0  0  0
    0.9321   -0.7655    4.9367 C   0  0  1  0  0  0  0  0  0  0  0  0
    0.4343    0.5401    4.6901 O   0  0  0  0  0  0  0  0  0  0  0  0
    0.9776    1.0371    3.4709 C   0  0  1  0  0  0  0  0  0  0  0  0
    1.4659    2.3593    3.6637 O   0  0  0  0  0  0  0  0  0  0  0  0
    1.7095    3.1352    2.5011 C   0  0  2  0  0  0  0  0  0  0  0  0
    3.2223    3.3941    2.4201 C   0  0  1  0  0  0  0  0  0  0  0  0
    3.8992    2.1832    2.1218 O   0  0  0  0  0  0  0  0  0  0  0  0
    3.6259    4.4191    1.3493 C   0  0  2  0  0  0  0  0  0  0  0  0
    5.0714    4.6884    1.3942 N   0  0  0  0  0  0  0  0  0  0  0  0
    2.8607    5.7190    1.5677 C   0  0  0  0  0  0  0  0  0  0  0  0
    1.3628    5.4394    1.5642 C   0  0  2  0  0  0  0  0  0  0  0  0
    0.6517    6.7128    1.7211 N   0  0  0  0  0  0  0  0  0  0  0  0
    1.0002    4.4388    2.6827 C   0  0  1  0  0  0  0  0  0  0  0  0
   -0.4224    4.2651    2.5956 O   0  0  0  0  0  0  0  0  0  0  0  0
   -0.9896    3.1800    3.3218 C   0  0  1  0  0  0  0  0  0  0  0  0
   -1.4473    3.6140    4.5996 O   0  0  0  0  0  0  0  0  0  0  0  0
   -2.5780    4.4829    4.6025 C   0  0  2  0  0  0  0  0  0  0  0  0
   -2.9256    4.8413    6.0534 C   0  0  0  0  0  0  0  0  0  0  0  0
   -1.7656    5.3417    6.7771 N   0  0  0  0  0  0  0  0  0  0  0  0
   -3.7876    3.8104    3.9268 C   0  0  1  0  0  0  0  0  0  0  0  0
   -4.8786    4.7130    3.8897 O   0  0  0  0  0  0  0  0  0  0  0  0
   -3.3945    3.4078    2.5000 C   0  0  2  0  0  0  0  0  0  0  0  0
   -4.4579    2.7080    1.8814 O   0  0  0  0  0  0  0  0  0  0  0  0
   -2.1250    2.5457    2.5104 C   0  0  1  0  0  0  0  0  0  0  0  0
   -1.6878    2.2740    1.1336 N   0  0  0  0  0  0  0  0  0  0  0  0
    2.1417    0.1099    3.0922 C   0  0  2  0  0  0  0  0  0  0  0  0
    1.7866   -0.6718    1.9669 O   0  0  0  0  0  0  0  0  0  0  0  0
    2.3438   -0.7176    4.3606 C   0  0  2  0  0  0  0  0  0  0  0  0
    2.9055   -1.9933    4.1239 O   0  0  0  0  0  0  0  0  0  0  0  0
  2  1  1  0  0  0  0
  3  2  1  1  0  0  0
  3 30  1  0  0  0  0
  4  5  1  0  0  0  0
  4  3  1  0  0  0  0
  5 28  1  0  0  0  0
  5  6  1  1  0  0  0
  7  6  1  1  0  0  0
  8  7  1  0  0  0  0
  8  9  1  6  0  0  0
 10 11  1  1  0  0  0
 10  8  1  0  0  0  0
 12 10  1  0  0  0  0
 13 12  1  0  0  0  0
 13 15  1  0  0  0  0
 13 14  1  1  0  0  0
 15  7  1  0  0  0  0
 15 16  1  6  0  0  0
 17 16  1  6  0  0  0
 18 17  1  0  0  0  0
 19 20  1  1  0  0  0
 19 18  1  0  0  0  0
 20 21  1  0  0  0  0
 22 24  1  0  0  0  0
 22 19  1  0  0  0  0
 22 23  1  6  0  0  0
 24 25  1  1  0  0  0
 24 26  1  0  0  0  0
 26 17  1  0  0  0  0
 26 27  1  6  0  0  0
 28 29  1  6  0  0  0
 28 30  1  0  0  0  0
 30 31  1  6  0  0  0
M  END
>  <CHROM.1>
174.11539031,67.36715078,-163.57993075,-114.27200566,-153.86520407,-55.82477222
-99.84675230,46.08179855,94.54195141,52.00358652,-153.88813871,53.03198702
163.47458076,-144.75894597,-173.23372755,159.13388460,0.20622892,2.66394928
3.38350398,0.45612831,-0.32886205,2.69691669

>  <Name>
lig.pdb

>  <RI>
2.74555e+07

>  <Rbt.Current_Directory>
/home/itssahil/PROJECTS/Mol_Feturizer/New_Systems/rnas/2n0j

>  <Rbt.Executable>
rbdock ($Id: //depot/dev/client3/rdock/2013.1/src/exe/rbdock.cxx#4 $)

>  <Rbt.Library>
libRbt.so (2013.1, Build901 2013/11/27)

>  <Rbt.Parameter_File>
/export/apps/rDock/src/rDock_2013.1_src/data/scripts/dock_solv.prm

>  <Rbt.Receptor>
prm/pocket_docking_6.prm

>  <SCORE>
-43.9383

>  <SCORE.INTER>
-51.17

>  <SCORE.INTER.CONST>
1

>  <SCORE.INTER.POLAR>
-7.22685

>  <SCORE.INTER.ROT>
6

>  <SCORE.INTER.SOLV>
19.2951

>  <SCORE.INTER.VDW>
-24.0556

>  <SCORE.INTER.norm>
-1.65065

>  <SCORE.INTRA>
7.23178

>  <SCORE.INTRA.DIHEDRAL>
-0.577691

>  <SCORE.INTRA.DIHEDRAL.0>
28.0161

>  <SCORE.INTRA.POLAR>
0.865548

>  <SCORE.INTRA.POLAR.0>
-1.05798

>  <SCORE.INTRA.REPUL>
0.000888962

>  <SCORE.INTRA.REPUL.0>
0

>  <SCORE.INTRA.SOLV>
-0.272046

>  <SCORE.INTRA.SOLV.lig_0>
-42.5945

>  <SCORE.INTRA.VDW>
4.70934

>  <SCORE.INTRA.VDW.0>
-5.13869

>  <SCORE.INTRA.norm>
0.233283

>  <SCORE.RESTR>
0

>  <SCORE.RESTR.CAVITY>
0

>  <SCORE.RESTR.norm>
0

>  <SCORE.SYSTEM>
0

>  <SCORE.SYSTEM.CONST>
0

>  <SCORE.SYSTEM.DIHEDRAL>
0

>  <SCORE.SYSTEM.SOLV>
0

>  <SCORE.SYSTEM.norm>
0

>  <SCORE.heavy>
31

>  <SCORE.norm>
-1.41736

>  <RMSD>
6.237

$$$$
lig.pdb
 OpenBabel11021811453D
libRbt.so/2013.1/901 2013/11/27
 31 33  0  0  0  0  0  0  0  0999 V2000
   -2.4992   -0.7670   10.1963 O   0  0  0  0  0  0  0  0  0  0  0  0
   -2.9335    0.5637   10.3985 C   0  0  0  0  0  0  0  0  0  0  0  0
   -2.0218    1.5669    9.6791 C   0  0  1  0  0  0  0  0  0  0  0  0
   -2.1711    1.4990    8.2699 O   0  0  0  0  0  0  0  0  0  0  0  0
   -1.8259    2.7538    7.6910 C   0  0  1  0  0  0  0  0  0  0  0  0
   -2.8265    3.1472    6.7594 O   0  0  0  0  0  0  0  0  0  0  0  0
   -2.4335    4.0326    5.7229 C   0  0  2  0  0  0  0  0  0  0  0  0
   -2.8478    5.4530    6.1389 C   0  0  1  0  0  0  0  0  0  0  0  0
   -2.0452    5.8860    7.2260 O   0  0  0  0  0  0  0  0  0  0  0  0
   -2.7078    6.4987    5.0223 C   0  0  2  0  0  0  0  0  0  0  0  0
   -3.2117    7.8096    5.4601 N   0  0  0  0  0  0  0  0  0  0  0  0
   -3.4820    6.0430    3.7911 C   0  0  0  0  0  0  0  0  0  0  0  0
   -2.9929    4.6664    3.3579 C   0  0  2  0  0  0  0  0  0  0  0  0
   -3.7153    4.2776    2.1419 N   0  0  0  0  0  0  0  0  0  0  0  0
   -3.1933    3.6423    4.4958 C   0  0  1  0  0  0  0  0  0  0  0  0
   -2.7180    2.3918    3.9745 O   0  0  0  0  0  0  0  0  0  0  0  0
   -3.6679    1.5586    3.3188 C   0  0  1  0  0  0  0  0  0  0  0  0
   -3.2373    1.2485    1.9962 O   0  0  0  0  0  0  0  0  0  0  0  0
   -2.0993    0.3960    1.8874 C   0  0  2  0  0  0  0  0  0  0  0  0
   -1.7856    0.1730    0.4020 C   0  0  0  0  0  0  0  0  0  0  0  0
   -1.5872    1.4323   -0.3013 N   0  0  0  0  0  0  0  0  0  0  0  0
   -2.3607   -0.9572    2.5745 C   0  0  1  0  0  0  0  0  0  0  0  0
   -1.1977   -1.7628    2.5041 O   0  0  0  0  0  0  0  0  0  0  0  0
   -2.7311   -0.7024    4.0409 C   0  0  2  0  0  0  0  0  0  0  0  0
   -3.0630   -1.9217    4.6781 O   0  0  0  0  0  0  0  0  0  0  0  0
   -3.9011    0.2857    4.1405 C   0  0  1  0  0  0  0  0  0  0  0  0
   -4.1621    0.6192    5.5480 N   0  0  0  0  0  0  0  0  0  0  0  0
   -1.7650    3.7715    8.8394 C   0  0  2  0  0  0  0  0  0  0  0  0
   -0.4207    4.1431    9.0809 O   0  0  0  0  0  0  0  0  0  0  0  0
   -2.3973    3.0095   10.0029 C   0  0  2  0  0  0  0  0  0  0  0  0
   -1.9535    3.4416   11.2739 O   0  0  0  0  0  0  0  0  0  0  0  0
  2  1  1  0  0  0  0
  3  2  1  1  0  0  0
  3 30  1  0  0  0  0
  4  5  1  0  0  0  0
  4  3  1  0  0  0  0
  5 28  1  0  0  0  0
  5  6  1  6  0  0  0
  7  6  1  1  0  0  0
  8  7  1  0  0  0  0
  8  9  1  1  0  0  0
 10 11  1  1  0  0  0
 10  8  1  0  0  0  0
 12 10  1  0  0  0  0
 13 12  1  0  0  0  0
 13 15  1  0  0  0  0
 13 14  1  6  0  0  0
 15  7  1  0  0  0  0
 15 16  1  6  0  0  0
 17 16  1  1  0  0  0
 18 17  1  0  0  0  0
 19 20  1  6  0  0  0
 19 18  1  0  0  0  0
 20 21  1  0  0  0  0
 22 24  1  0  0  0  0
 22 19  1  0  0  0  0
 22 23  1  1  0  0  0
 24 25  1  6  0  0  0
 24 26  1  0  0  0  0
 26 17  1  0  0  0  0
 26 27  1  1  0  0  0
 28 29  1  1  0  0  0
 28 30  1  0  0  0  0
 30 31  1  1  0  0  0
M  END
>  <CHROM.1>
-169.50841983,70.33756032,-155.06264599,-98.76011160,37.64678935,48.19864210
56.32263260,148.27942821,123.99021181,56.02613913,63.64504846,70.04780526
-58.54820156,76.17008269,52.64238329,-59.95575442,-2.56930600,2.37891432
5.50807357,-0.88631112,1.49326655,-2.58929103

>  <Name>
lig.pdb

>  <RI>
0

>  <Rbt.Current_Directory>
/home/itssahil/PROJECTS/Mol_Feturizer/New_Systems/rnas/2n0j

>  <Rbt.Executable>
rbdock ($Id: //depot/dev/client3/rdock/2013.1/src/exe/rbdock.cxx#4 $)

>  <Rbt.Library>
libRbt.so (2013.1, Build901 2013/11/27)

>  <Rbt.Parameter_File>
/export/apps/rDock/src/rDock_2013.1_src/data/scripts/dock_solv.prm

>  <Rbt.Receptor>
prm/pocket_docking_5.prm

>  <SCORE>
-31.7488

>  <SCORE.INTER>
-29.663

>  <SCORE.INTER.CONST>
1

>  <SCORE.INTER.POLAR>
-4.40627

>  <SCORE.INTER.ROT>
6

>  <SCORE.INTER.SOLV>
16.3049

>  <SCORE.INTER.VDW>
-18.1227

>  <SCORE.INTER.norm>
-0.956871

>  <SCORE.INTRA>
-2.09061

>  <SCORE.INTRA.DIHEDRAL>
-3.94284

>  <SCORE.INTRA.DIHEDRAL.0>
28.0161

>  <SCORE.INTRA.POLAR>
-0.860445

>  <SCORE.INTRA.POLAR.0>
-1.05798

>  <SCORE.INTRA.REPUL>
0.0463538

>  <SCORE.INTRA.REPUL.0>
0

>  <SCORE.INTRA.SOLV>
0.338246

>  <SCORE.INTRA.SOLV.lig_0>
-42.5945

>  <SCORE.INTRA.VDW>
2.40543

>  <SCORE.INTRA.VDW.0>
-5.13869

>  <SCORE.INTRA.norm>
-0.0674391

>  <SCORE.RESTR>
0.00479844

>  <SCORE.RESTR.CAVITY>
0.00479844

>  <SCORE.RESTR.norm>
0.000154788

>  <SCORE.SYSTEM>
0

>  <SCORE.SYSTEM.CONST>
0

>  <SCORE.SYSTEM.DIHEDRAL>
0

>  <SCORE.SYSTEM.SOLV>
0

>  <SCORE.SYSTEM.norm>
0

>  <SCORE.heavy>
31

>  <SCORE.norm>
-1.02415

>  <RMSD>
6.240

$$$$
lig.pdb
 OpenBabel11021811453D
libRbt.so/2013.1/901 2013/11/27
 31 33  0  0  0  0  0  0  0  0999 V2000
    4.0314    4.0334    2.5092 O   0  0  0  0  0  0  0  0  0  0  0  0
    3.4138    3.1558    1.5881 C   0  0  0  0  0  0  0  0  0  0  0  0
    1.9506    3.5445    1.3372 C   0  0  1  0  0  0  0  0  0  0  0  0
    1.1678    2.4279    0.9456 O   0  0  0  0  0  0  0  0  0  0  0  0
   -0.1939    2.6502    1.2997 C   0  0  1  0  0  0  0  0  0  0  0  0
   -0.7159    1.5006    1.9552 O   0  0  0  0  0  0  0  0  0  0  0  0
   -0.8706    0.3254    1.1756 C   0  0  2  0  0  0  0  0  0  0  0  0
   -2.0664    0.5424    0.2347 C   0  0  1  0  0  0  0  0  0  0  0  0
   -1.7335    1.5129   -0.7455 O   0  0  0  0  0  0  0  0  0  0  0  0
   -2.5153   -0.7241   -0.5101 C   0  0  2  0  0  0  0  0  0  0  0  0
   -3.7194   -0.4649   -1.3144 N   0  0  0  0  0  0  0  0  0  0  0  0
   -2.8045   -1.8349    0.4927 C   0  0  0  0  0  0  0  0  0  0  0  0
   -1.5736   -2.0789    1.3572 C   0  0  2  0  0  0  0  0  0  0  0  0
   -1.8615   -3.1872    2.2739 N   0  0  0  0  0  0  0  0  0  0  0  0
   -1.1871   -0.7918    2.1174 C   0  0  1  0  0  0  0  0  0  0  0  0
   -0.0375   -1.1412    2.9034 O   0  0  0  0  0  0  0  0  0  0  0  0
    0.6024   -0.0909    3.6203 C   0  0  1  0  0  0  0  0  0  0  0  0
    0.0557    0.0299    4.9307 O   0  0  0  0  0  0  0  0  0  0  0  0
    0.3348   -1.0400    5.8313 C   0  0  2  0  0  0  0  0  0  0  0  0
   -0.3275   -0.7380    7.1822 C   0  0  0  0  0  0  0  0  0  0  0  0
   -0.9399   -1.9263    7.7590 N   0  0  0  0  0  0  0  0  0  0  0  0
    1.8531   -1.2140    6.0217 C   0  0  1  0  0  0  0  0  0  0  0  0
    2.1058   -2.3178    6.8727 O   0  0  0  0  0  0  0  0  0  0  0  0
    2.4977   -1.4536    4.6508 C   0  0  2  0  0  0  0  0  0  0  0  0
    3.9049   -1.5304    4.7813 O   0  0  0  0  0  0  0  0  0  0  0  0
    2.1145   -0.3379    3.6692 C   0  0  1  0  0  0  0  0  0  0  0  0
    2.6321   -0.6452    2.3283 N   0  0  0  0  0  0  0  0  0  0  0  0
   -0.2131    3.8446    2.2646 C   0  0  2  0  0  0  0  0  0  0  0  0
   -0.7768    4.9725    1.6215 O   0  0  0  0  0  0  0  0  0  0  0  0
    1.2639    4.0251    2.6117 C   0  0  2  0  0  0  0  0  0  0  0  0
    1.6045    5.3476    2.9779 O   0  0  0  0  0  0  0  0  0  0  0  0
  2  1  1  0  0  0  0
  3  2  1  1  0  0  0
  3 30  1  0  0  0  0
  4  5  1  0  0  0  0
  4  3  1  0  0  0  0
  5 28  1  0  0  0  0
  5  6  1  1  0  0  0
  7  6  1  1  0  0  0
  8  7  1  0  0  0  0
  8  9  1  6  0  0  0
 10 11  1  1  0  0  0
 10  8  1  0  0  0  0
 12 10  1  0  0  0  0
 13 12  1  0  0  0  0
 13 15  1  0  0  0  0
 13 14  1  1  0  0  0
 15  7  1  0  0  0  0
 15 16  1  6  0  0  0
 17 16  1  1  0  0  0
 18 17  1  0  0  0  0
 19 20  1  1  0  0  0
 19 18  1  0  0  0  0
 20 21  1  0  0  0  0
 22 24  1  0  0  0  0
 22 19  1  0  0  0  0
 22 23  1  1  0  0  0
 24 25  1  1  0  0  0
 24 26  1  0  0  0  0
 26 17  1  0  0  0  0
 26 27  1  6  0  0  0
 28 29  1  6  0  0  0
 28 30  1  0  0  0  0
 30 31  1  6  0  0  0
M  END
>  <CHROM.1>
-164.93104841,-153.48599747,-67.78996232,-72.88742058,64.65854877,-61.52175604
91.09201196,53.70096742,90.99647229,138.70280089,-32.27311173,-178.75789542
-54.84549274,-138.89620093,-173.63897950,-172.91670269,0.27951843,0.53426005
2.75185839,-1.89638862,0.74344659,2.47193576

>  <Name>
lig.pdb

>  <RI>
9.20816e+06

>  <Rbt.Current_Directory>
/home/itssahil/PROJECTS/Mol_Feturizer/New_Systems/rnas/2n0j

>  <Rbt.Executable>
rbdock ($Id: //depot/dev/client3/rdock/2013.1/src/exe/rbdock.cxx#4 $)

>  <Rbt.Library>
libRbt.so (2013.1, Build901 2013/11/27)

>  <Rbt.Parameter_File>
/export/apps/rDock/src/rDock_2013.1_src/data/scripts/dock_solv.prm

>  <Rbt.Receptor>
prm/blind_docking_100.prm

>  <SCORE>
-26.1663

>  <SCORE.INTER>
-30.6027

>  <SCORE.INTER.CONST>
1

>  <SCORE.INTER.POLAR>
-3.07752

>  <SCORE.INTER.ROT>
6

>  <SCORE.INTER.SOLV>
23.8809

>  <SCORE.INTER.VDW>
-25.7037

>  <SCORE.INTER.norm>
-0.987184

>  <SCORE.INTRA>
2.93965

>  <SCORE.INTRA.DIHEDRAL>
-8.34734

>  <SCORE.INTRA.DIHEDRAL.0>
28.0161

>  <SCORE.INTRA.POLAR>
0.904743

>  <SCORE.INTRA.POLAR.0>
-1.05798

>  <SCORE.INTRA.REPUL>
0

>  <SCORE.INTRA.REPUL.0>
0

>  <SCORE.INTRA.SOLV>
0.556621

>  <SCORE.INTRA.SOLV.lig_0>
-42.5945

>  <SCORE.INTRA.VDW>
3.75889

>  <SCORE.INTRA.VDW.0>
-5.13869

>  <SCORE.INTRA.norm>
0.0948276

>  <SCORE.RESTR>
1.49674

>  <SCORE.RESTR.CAVITY>
1.49674

>  <SCORE.RESTR.norm>
0.048282

>  <SCORE.SYSTEM>
0

>  <SCORE.SYSTEM.CONST>
0

>  <SCORE.SYSTEM.DIHEDRAL>
0

>  <SCORE.SYSTEM.SOLV>
0

>  <SCORE.SYSTEM.norm>
0

>  <SCORE.heavy>
31

>  <SCORE.norm>
-0.844075

>  <RMSD>
6.247

$$$$
lig.pdb
 OpenBabel11021811453D
libRbt.so/2013.1/901 2013/11/27
 31 33  0  0  0  0  0  0  0  0999 V2000
    3.8256    5.2530    0.4953 O   0  0  0  0  0  0  0  0  0  0  0  0
    2.7360    6.0808    0.8527 C   0  0  0  0  0  0  0  0  0  0  0  0
    1.5156    5.2511    1.2739 C   0  0  1  0  0  0  0  0  0  0  0  0
    1.3925    4.0656    0.5041 O   0  0  0  0  0  0  0  0  0  0  0  0
    0.6922    3.0782    1.2548 C   0  0  1  0  0  0  0  0  0  0  0  0
    1.3869    1.8385    1.1879 O   0  0  0  0  0  0  0  0  0  0  0  0
    0.6279    0.6888    0.8489 C   0  0  2  0  0  0  0  0  0  0  0  0
   -0.5337    1.1433   -0.0489 C   0  0  1  0  0  0  0  0  0  0  0  0
   -0.0304    1.5550   -1.3101 O   0  0  0  0  0  0  0  0  0  0  0  0
   -1.5864    0.0553   -0.3100 C   0  0  2  0  0  0  0  0  0  0  0  0
   -2.7128    0.5872   -1.0927 N   0  0  0  0  0  0  0  0  0  0  0  0
   -2.1028   -0.4893    1.0165 C   0  0  0  0  0  0  0  0  0  0  0  0
   -0.9351   -1.0034    1.8495 C   0  0  2  0  0  0  0  0  0  0  0  0
   -1.4656   -1.5702    3.0941 N   0  0  0  0  0  0  0  0  0  0  0  0
    0.0729    0.1340    2.1215 C   0  0  1  0  0  0  0  0  0  0  0  0
    1.1107   -0.4559    2.9194 O   0  0  0  0  0  0  0  0  0  0  0  0
    1.8080    0.4028    3.8156 C   0  0  1  0  0  0  0  0  0  0  0  0
    1.1872    0.4028    5.0982 O   0  0  0  0  0  0  0  0  0  0  0  0
    1.2861   -0.8071    5.8465 C   0  0  2  0  0  0  0  0  0  0  0  0
    0.5672   -0.6211    7.1894 C   0  0  0  0  0  0  0  0  0  0  0  0
   -0.8724   -0.4903    7.0158 N   0  0  0  0  0  0  0  0  0  0  0  0
    2.7598   -1.1814    6.0908 C   0  0  1  0  0  0  0  0  0  0  0  0
    2.8323   -2.4148    6.7837 O   0  0  0  0  0  0  0  0  0  0  0  0
    3.4692   -1.3013    4.7362 C   0  0  2  0  0  0  0  0  0  0  0  0
    4.8474   -1.5587    4.9297 O   0  0  0  0  0  0  0  0  0  0  0  0
    3.2776   -0.0229    3.9091 C   0  0  1  0  0  0  0  0  0  0  0  0
    3.8518   -0.1987    2.5674 N   0  0  0  0  0  0  0  0  0  0  0  0
    0.6557    3.5685    2.7095 C   0  0  2  0  0  0  0  0  0  0  0  0
   -0.6607    3.9611    3.0510 O   0  0  0  0  0  0  0  0  0  0  0  0
    1.6476    4.7306    2.7016 C   0  0  2  0  0  0  0  0  0  0  0  0
    1.3870    5.7075    3.6900 O   0  0  0  0  0  0  0  0  0  0  0  0
  2  1  1  0  0  0  0
  3  2  1  6  0  0  0
  3 30  1  0  0  0  0
  4  5  1  0  0  0  0
  4  3  1  0  0  0  0
  5 28  1  0  0  0  0
  5  6  1  1  0  0  0
  7  6  1  1  0  0  0
  8  7  1  0  0  0  0
  8  9  1  6  0  0  0
 10 11  1  1  0  0  0
 10  8  1  0  0  0  0
 12 10  1  0  0  0  0
 13 12  1  0  0  0  0
 13 15  1  0  0  0  0
 13 14  1  1  0  0  0
 15  7  1  0  0  0  0
 15 16  1  1  0  0  0
 17 16  1  6  0  0  0
 18 17  1  0  0  0  0
 19 20  1  1  0  0  0
 19 18  1  0  0  0  0
 20 21  1  0  0  0  0
 22 24  1  0  0  0  0
 22 19  1  0  0  0  0
 22 23  1  6  0  0  0
 24 25  1  1  0  0  0
 24 26  1  0  0  0  0
 26 17  1  0  0  0  0
 26 27  1  6  0  0  0
 28 29  1  6  0  0  0
 28 30  1  0  0  0  0
 30 31  1  1  0  0  0
M  END
>  <CHROM.1>
-64.95277763,-36.42077900,-130.53978179,29.45279629,60.76465936,154.31804598
68.03786905,87.74320949,91.66513706,68.15087473,54.88578081,-48.03523077
-62.82080108,33.84297929,-55.03245637,66.84942589,1.03552380,1.17721631,2.74579037
-1.78604407,0.73692270,2.49849693

>  <Name>
lig.pdb

>  <RI>
9.20816e+06

>  <Rbt.Current_Directory>
/home/itssahil/PROJECTS/Mol_Feturizer/New_Systems/rnas/2n0j

>  <Rbt.Executable>
rbdock ($Id: //depot/dev/client3/rdock/2013.1/src/exe/rbdock.cxx#4 $)

>  <Rbt.Library>
libRbt.so (2013.1, Build901 2013/11/27)

>  <Rbt.Parameter_File>
/export/apps/rDock/src/rDock_2013.1_src/data/scripts/dock_solv.prm

>  <Rbt.Receptor>
prm/blind_docking_100.prm

>  <SCORE>
-20.3927

>  <SCORE.INTER>
-28.5588

>  <SCORE.INTER.CONST>
1

>  <SCORE.INTER.POLAR>
-4.28305

>  <SCORE.INTER.ROT>
6

>  <SCORE.INTER.SOLV>
25.2669

>  <SCORE.INTER.VDW>
-20.7847

>  <SCORE.INTER.norm>
-0.921253

>  <SCORE.INTRA>
6.20671

>  <SCORE.INTRA.DIHEDRAL>
-4.05525

>  <SCORE.INTRA.DIHEDRAL.0>
28.0161

>  <SCORE.INTRA.POLAR>
1.02992

>  <SCORE.INTRA.POLAR.0>
-1.05798

>  <SCORE.INTRA.REPUL>
0

>  <SCORE.INTRA.REPUL.0>
0

>  <SCORE.INTRA.SOLV>
-0.0869458

>  <SCORE.INTRA.SOLV.lig_0>
-42.5945

>  <SCORE.INTRA.VDW>
4.77606

>  <SCORE.INTRA.VDW.0>
-5.13869

>  <SCORE.INTRA.norm>
0.200216

>  <SCORE.RESTR>
1.95938

>  <SCORE.RESTR.CAVITY>
1.95938

>  <SCORE.RESTR.norm>
0.063206

>  <SCORE.SYSTEM>
0

>  <SCORE.SYSTEM.CONST>
0

>  <SCORE.SYSTEM.DIHEDRAL>
0

>  <SCORE.SYSTEM.SOLV>
0

>  <SCORE.SYSTEM.norm>
0

>  <SCORE.heavy>
31

>  <SCORE.norm>
-0.65783

>  <RMSD>
6.250

$$$$
lig.pdb
 OpenBabel11021811453D
libRbt.so/2013.1/901 2013/11/27
 31 33  0  0  0  0  0  0  0  0999 V2000
    3.6578    2.0410    2.3789 O   0  0  0  0  0  0  0  0  0  0  0  0
    3.5601    3.2170    1.5995 C   0  0  0  0  0  0  0  0  0  0  0  0
    2.0964    3.6110    1.3592 C   0  0  1  0  0  0  0  0  0  0  0  0
    1.3066    2.4969    0.9742 O   0  0  0  0  0  0  0  0  0  0  0  0
   -0.0515    2.7245    1.3383 C   0  0  1  0  0  0  0  0  0  0  0  0
   -0.5729    1.5773    1.9985 O   0  0  0  0  0  0  0  0  0  0  0  0
   -0.7075    0.3930    1.2290 C   0  0  2  0  0  0  0  0  0  0  0  0
   -1.9283    0.5676    0.3118 C   0  0  1  0  0  0  0  0  0  0  0  0
   -1.6453    1.5415   -0.6806 O   0  0  0  0  0  0  0  0  0  0  0  0
   -2.3535   -0.7167   -0.4163 C   0  0  2  0  0  0  0  0  0  0  0  0
   -3.5812   -0.4993   -1.1972 N   0  0  0  0  0  0  0  0  0  0  0  0
   -2.5881   -1.8293    0.5985 C   0  0  0  0  0  0  0  0  0  0  0  0
   -1.3329   -2.0303    1.4389 C   0  0  2  0  0  0  0  0  0  0  0  0
   -1.5681   -3.1411    2.3677 N   0  0  0  0  0  0  0  0  0  0  0  0
   -0.9705   -0.7273    2.1836 C   0  0  1  0  0  0  0  0  0  0  0  0
    0.2051   -1.0366    2.9477 O   0  0  0  0  0  0  0  0  0  0  0  0
    0.7821    0.0199    3.7077 C   0  0  1  0  0  0  0  0  0  0  0  0
    0.1924    0.0881    5.0032 O   0  0  0  0  0  0  0  0  0  0  0  0
    0.4863   -0.9916    5.8872 C   0  0  2  0  0  0  0  0  0  0  0  0
   -0.2270   -0.7478    7.2237 C   0  0  0  0  0  0  0  0  0  0  0  0
   -0.9249   -1.9388    7.6865 N   0  0  0  0  0  0  0  0  0  0  0  0
    2.0039   -1.1119    6.1198 C   0  0  1  0  0  0  0  0  0  0  0  0
    2.2741   -2.2253    6.9526 O   0  0  0  0  0  0  0  0  0  0  0  0
    2.6977   -1.2936    4.7640 C   0  0  2  0  0  0  0  0  0  0  0  0
    4.1023   -1.3196    4.9357 O   0  0  0  0  0  0  0  0  0  0  0  0
    2.3005   -0.1701    3.7970 C   0  0  1  0  0  0  0  0  0  0  0  0
    2.8692   -0.4250    2.4658 N   0  0  0  0  0  0  0  0  0  0  0  0
   -0.0592    3.9197    2.3024 C   0  0  2  0  0  0  0  0  0  0  0  0
   -0.6235    5.0492    1.6627 O   0  0  0  0  0  0  0  0  0  0  0  0
    1.4210    4.0950    2.6384 C   0  0  2  0  0  0  0  0  0  0  0  0
    1.7692    5.4165    3.0011 O   0  0  0  0  0  0  0  0  0  0  0  0
  2  1  1  0  0  0  0
  3  2  1  1  0  0  0
  3 30  1  0  0  0  0
  4  5  1  0  0  0  0
  4  3  1  0  0  0  0
  5 28  1  0  0  0  0
  5  6  1  1  0  0  0
  7  6  1  1  0  0  0
  8  7  1  0  0  0  0
  8  9  1  6  0  0  0
 10 11  1  1  0  0  0
 10  8  1  0  0  0  0
 12 10  1  0  0  0  0
 13 12  1  0  0  0  0
 13 15  1  0  0  0  0
 13 14  1  1  0  0  0
 15  7  1  0  0  0  0
 15 16  1  6  0  0  0
 17 16  1  6  0  0  0
 18 17  1  0  0  0  0
 19 20  1  1  0  0  0
 19 18  1  0  0  0  0
 20 21  1  0  0  0  0
 22 24  1  0  0  0  0
 22 19  1  0  0  0  0
 22 23  1  1  0  0  0
 24 25  1  1  0  0  0
 24 26  1  0  0  0  0
 26 17  1  0  0  0  0
 26 27  1  6  0  0  0
 28 29  1  6  0  0  0
 28 30  1  0  0  0  0
 30 31  1  6  0  0  0
M  END
>  <CHROM.1>
-53.45523722,-45.93843430,-66.31473653,-75.22084459,60.73182364,56.41632758
-49.47346190,57.27083685,88.18674106,132.85495289,-154.62344479,166.93655634
94.08645807,0.90213783,-35.84232972,-58.93128291,0.42480187,0.52426286,2.80575919
-1.98571368,0.73160703,2.46974617

>  <Name>
lig.pdb

>  <RI>
0

>  <Rbt.Current_Directory>
/home/itssahil/PROJECTS/Mol_Feturizer/New_Systems/rnas/2n0j

>  <Rbt.Executable>
rbdock ($Id: //depot/dev/client3/rdock/2013.1/src/exe/rbdock.cxx#4 $)

>  <Rbt.Library>
libRbt.so (2013.1, Build901 2013/11/27)

>  <Rbt.Parameter_File>
/export/apps/rDock/src/rDock_2013.1_src/data/scripts/dock_solv.prm

>  <Rbt.Receptor>
prm/blind_docking_40.prm

>  <SCORE>
-38.9026

>  <SCORE.INTER>
-42.1745

>  <SCORE.INTER.CONST>
1

>  <SCORE.INTER.POLAR>
-5.03674

>  <SCORE.INTER.ROT>
6

>  <SCORE.INTER.SOLV>
23.8268

>  <SCORE.INTER.VDW>
-26.8695

>  <SCORE.INTER.norm>
-1.36047

>  <SCORE.INTRA>
2.58391

>  <SCORE.INTRA.DIHEDRAL>
-4.6712

>  <SCORE.INTRA.DIHEDRAL.0>
28.0161

>  <SCORE.INTRA.POLAR>
0.285714

>  <SCORE.INTRA.POLAR.0>
-1.05798

>  <SCORE.INTRA.REPUL>
0

>  <SCORE.INTRA.REPUL.0>
0

>  <SCORE.INTRA.SOLV>
1.63851

>  <SCORE.INTRA.SOLV.lig_0>
-42.5945

>  <SCORE.INTRA.VDW>
3.12882

>  <SCORE.INTRA.VDW.0>
-5.13869

>  <SCORE.INTRA.norm>
0.0833519

>  <SCORE.RESTR>
0.687972

>  <SCORE.RESTR.CAVITY>
0.687972

>  <SCORE.RESTR.norm>
0.0221927

>  <SCORE.SYSTEM>
0

>  <SCORE.SYSTEM.CONST>
0

>  <SCORE.SYSTEM.DIHEDRAL>
0

>  <SCORE.SYSTEM.SOLV>
0

>  <SCORE.SYSTEM.norm>
0

>  <SCORE.heavy>
31

>  <SCORE.norm>
-1.25492

>  <RMSD>
6.256

$$$$
lig.pdb
 OpenBabel11021811453D
libRbt.so/2013.1/901 2013/11/27
 31 33  0  0  0  0  0  0  0  0999 V2000
   -4.6069   -0.1917   -2.5827 O   0  0  0  0  0  0  0  0  0  0  0  0
   -4.1743    0.7341   -1.6050 C   0  0  0  0  0  0  0  0  0  0  0  0
   -2.9060    0.2458   -0.8922 C   0  0  1  0  0  0  0  0  0  0  0  0
   -2.4478    1.1825    0.0700 O   0  0  0  0  0  0  0  0  0  0  0  0
   -1.7078    0.5061    1.0818 C   0  0  1  0  0  0  0  0  0  0  0  0
   -2.1451    0.9330    2.3664 O   0  0  0  0  0  0  0  0  0  0  0  0
   -1.6207    2.1576    2.8546 C   0  0  2  0  0  0  0  0  0  0  0  0
   -2.0845    3.2755    1.9073 C   0  0  1  0  0  0  0  0  0  0  0  0
   -3.4832    3.4699    2.0458 O   0  0  0  0  0  0  0  0  0  0  0  0
   -1.4075    4.6313    2.1597 C   0  0  2  0  0  0  0  0  0  0  0  0
   -1.8254    5.6248    1.1585 N   0  0  0  0  0  0  0  0  0  0  0  0
    0.1069    4.4669    2.1097 C   0  0  0  0  0  0  0  0  0  0  0  0
    0.5416    3.4081    3.1157 C   0  0  2  0  0  0  0  0  0  0  0  0
    2.0049    3.3103    3.0849 N   0  0  0  0  0  0  0  0  0  0  0  0
   -0.1303    2.0553    2.7961 C   0  0  1  0  0  0  0  0  0  0  0  0
    0.3602    1.1397    3.7874 O   0  0  0  0  0  0  0  0  0  0  0  0
    0.8326   -0.1223    3.3285 C   0  0  1  0  0  0  0  0  0  0  0  0
    2.0013    0.0382    2.5290 O   0  0  0  0  0  0  0  0  0  0  0  0
    3.1776    0.4677    3.2110 C   0  0  2  0  0  0  0  0  0  0  0  0
    4.3251    0.5824    2.1987 C   0  0  0  0  0  0  0  0  0  0  0  0
    4.4033    1.9173    1.6227 N   0  0  0  0  0  0  0  0  0  0  0  0
    3.5602   -0.5266    4.3231 C   0  0  1  0  0  0  0  0  0  0  0  0
    4.6954   -0.0491    5.0230 O   0  0  0  0  0  0  0  0  0  0  0  0
    2.3751   -0.6691    5.2863 C   0  0  2  0  0  0  0  0  0  0  0  0
    2.6632   -1.6433    6.2717 O   0  0  0  0  0  0  0  0  0  0  0  0
    1.0983   -1.0459    4.5227 C   0  0  1  0  0  0  0  0  0  0  0  0
   -0.0528   -1.0542    5.4366 N   0  0  0  0  0  0  0  0  0  0  0  0
   -1.9935   -0.9934    0.9142 C   0  0  2  0  0  0  0  0  0  0  0  0
   -0.8423   -1.6488    0.4155 O   0  0  0  0  0  0  0  0  0  0  0  0
   -3.1666   -1.0088   -0.0646 C   0  0  2  0  0  0  0  0  0  0  0  0
   -3.2493   -2.1917   -0.8346 O   0  0  0  0  0  0  0  0  0  0  0  0
  2  1  1  0  0  0  0
  3  2  1  1  0  0  0
  3 30  1  0  0  0  0
  4  5  1  0  0  0  0
  4  3  1  0  0  0  0
  5 28  1  0  0  0  0
  5  6  1  1  0  0  0
  7  6  1  6  0  0  0
  8  7  1  0  0  0  0
  8  9  1  1  0  0  0
 10 11  1  6  0  0  0
 10  8  1  0  0  0  0
 12 10  1  0  0  0  0
 13 12  1  0  0  0  0
 13 15  1  0  0  0  0
 13 14  1  6  0  0  0
 15  7  1  0  0  0  0
 15 16  1  1  0  0  0
 17 16  1  1  0  0  0
 18 17  1  0  0  0  0
 19 20  1  6  0  0  0
 19 18  1  0  0  0  0
 20 21  1  0  0  0  0
 22 24  1  0  0  0  0
 22 19  1  0  0  0  0
 22 23  1  1  0  0  0
 24 25  1  1  0  0  0
 24 26  1  0  0  0  0
 26 17  1  0  0  0  0
 26 27  1  1  0  0  0
 28 29  1  6  0  0  0
 28 30  1  0  0  0  0
 30 31  1  6  0  0  0
M  END
>  <CHROM.1>
49.57606185,178.69117099,-81.18809621,63.03957521,-155.80137075,-142.70953510
63.37740453,106.86934245,65.88724815,90.74451208,-67.34916193,-168.15880939
-43.75477728,69.44437648,-50.10898242,-177.14101842,-0.17703670,0.92224364
2.17016742,3.08529797,-0.63137143,0.05453571

>  <Name>
lig.pdb

>  <RI>
1.55206e+07

>  <Rbt.Current_Directory>
/home/itssahil/PROJECTS/Mol_Feturizer/New_Systems/rnas/2n0j

>  <Rbt.Executable>
rbdock ($Id: //depot/dev/client3/rdock/2013.1/src/exe/rbdock.cxx#4 $)

>  <Rbt.Library>
libRbt.so (2013.1, Build901 2013/11/27)

>  <Rbt.Parameter_File>
/export/apps/rDock/src/rDock_2013.1_src/data/scripts/dock_solv.prm

>  <Rbt.Receptor>
prm/blind_docking_80.prm

>  <SCORE>
-24.3717

>  <SCORE.INTER>
-33.5289

>  <SCORE.INTER.CONST>
1

>  <SCORE.INTER.POLAR>
-4.64937

>  <SCORE.INTER.ROT>
6

>  <SCORE.INTER.SOLV>
24.1199

>  <SCORE.INTER.VDW>
-22.4946

>  <SCORE.INTER.norm>
-1.08158

>  <SCORE.INTRA>
1.51712

>  <SCORE.INTRA.DIHEDRAL>
-8.02921

>  <SCORE.INTRA.DIHEDRAL.0>
28.0161

>  <SCORE.INTRA.POLAR>
0.625086

>  <SCORE.INTRA.POLAR.0>
-1.05798

>  <SCORE.INTRA.REPUL>
0

>  <SCORE.INTRA.REPUL.0>
0

>  <SCORE.INTRA.SOLV>
0.931916

>  <SCORE.INTRA.SOLV.lig_0>
-42.5945

>  <SCORE.INTRA.VDW>
2.94048

>  <SCORE.INTRA.VDW.0>
-5.13869

>  <SCORE.INTRA.norm>
0.0489393

>  <SCORE.RESTR>
7.64003

>  <SCORE.RESTR.CAVITY>
7.64003

>  <SCORE.RESTR.norm>
0.246453

>  <SCORE.SYSTEM>
0

>  <SCORE.SYSTEM.CONST>
0

>  <SCORE.SYSTEM.DIHEDRAL>
0

>  <SCORE.SYSTEM.SOLV>
0

>  <SCORE.SYSTEM.norm>
0

>  <SCORE.heavy>
31

>  <SCORE.norm>
-0.786184

>  <RMSD>
6.261

$$$$
lig.pdb
 OpenBabel11021811453D
libRbt.so/2013.1/901 2013/11/27
 31 33  0  0  0  0  0  0  0  0999 V2000
    1.1007   -2.4697    2.2305 O   0  0  0  0  0  0  0  0  0  0  0  0
    1.2845   -1.0789    2.4098 C   0  0  0  0  0  0  0  0  0  0  0  0
    0.1339   -0.2761    1.7877 C   0  0  1  0  0  0  0  0  0  0  0  0
    0.0237    1.0176    2.3597 O   0  0  0  0  0  0  0  0  0  0  0  0
   -0.5807    1.9048    1.4236 C   0  0  1  0  0  0  0  0  0  0  0  0
    0.1690    3.1115    1.3488 O   0  0  0  0  0  0  0  0  0  0  0  0
    0.0178    4.0346    2.4155 C   0  0  2  0  0  0  0  0  0  0  0  0
   -1.4376    4.5283    2.4039 C   0  0  1  0  0  0  0  0  0  0  0  0
   -2.3034    3.4736    2.7928 O   0  0  0  0  0  0  0  0  0  0  0  0
   -1.7054    5.7109    3.3473 C   0  0  2  0  0  0  0  0  0  0  0  0
   -3.0893    6.1912    3.2124 N   0  0  0  0  0  0  0  0  0  0  0  0
   -0.7407    6.8482    3.0327 C   0  0  0  0  0  0  0  0  0  0  0  0
    0.6944    6.3454    3.1297 C   0  0  2  0  0  0  0  0  0  0  0  0
    1.5998    7.4714    2.8765 N   0  0  0  0  0  0  0  0  0  0  0  0
    0.9268    5.1880    2.1347 C   0  0  1  0  0  0  0  0  0  0  0  0
    2.3018    4.8095    2.3008 O   0  0  0  0  0  0  0  0  0  0  0  0
    3.1074    4.7585    1.1281 C   0  0  1  0  0  0  0  0  0  0  0  0
    3.4508    6.0722    0.6959 O   0  0  0  0  0  0  0  0  0  0  0  0
    4.3467    6.7980    1.5350 C   0  0  2  0  0  0  0  0  0  0  0  0
    4.6008    8.1782    0.9145 C   0  0  0  0  0  0  0  0  0  0  0  0
    5.3570    9.0406    1.8113 N   0  0  0  0  0  0  0  0  0  0  0  0
    5.6800    6.0441    1.6948 C   0  0  1  0  0  0  0  0  0  0  0  0
    6.5294    6.7548    2.5778 O   0  0  0  0  0  0  0  0  0  0  0  0
    5.3921    4.6471    2.2589 C   0  0  2  0  0  0  0  0  0  0  0  0
    6.5897    3.8968    2.3354 O   0  0  0  0  0  0  0  0  0  0  0  0
    4.3597    3.9146    1.3914 C   0  0  1  0  0  0  0  0  0  0  0  0
    3.9982    2.6319    2.0115 N   0  0  0  0  0  0  0  0  0  0  0  0
   -0.5541    1.1984    0.0603 C   0  0  2  0  0  0  0  0  0  0  0  0
   -1.8654    0.8105   -0.3052 O   0  0  0  0  0  0  0  0  0  0  0  0
    0.3769    0.0130    0.3098 C   0  0  2  0  0  0  0  0  0  0  0  0
    0.1281   -1.0932   -0.5350 O   0  0  0  0  0  0  0  0  0  0  0  0
  2  1  1  0  0  0  0
  3  2  1  1  0  0  0
  3 30  1  0  0  0  0
  4  5  1  0  0  0  0
  4  3  1  0  0  0  0
  5 28  1  0  0  0  0
  5  6  1  6  0  0  0
  7  6  1  6  0  0  0
  8  7  1  0  0  0  0
  8  9  1  1  0  0  0
 10 11  1  6  0  0  0
 10  8  1  0  0  0  0
 12 10  1  0  0  0  0
 13 12  1  0  0  0  0
 13 15  1  0  0  0  0
 13 14  1  6  0  0  0
 15  7  1  0  0  0  0
 15 16  1  1  0  0  0
 17 16  1  1  0  0  0
 18 17  1  0  0  0  0
 19 20  1  6  0  0  0
 19 18  1  0  0  0  0
 20 21  1  0  0  0  0
 22 24  1  0  0  0  0
 22 19  1  0  0  0  0
 22 23  1  1  0  0  0
 24 25  1  6  0  0  0
 24 26  1  0  0  0  0
 26 17  1  0  0  0  0
 26 27  1  1  0  0  0
 28 29  1  1  0  0  0
 28 30  1  0  0  0  0
 30 31  1  6  0  0  0
M  END
>  <CHROM.1>
-70.46535248,158.10738829,-76.28806108,-64.49760203,-166.21674144,-166.94869549
-62.73618371,111.76281265,75.50571269,171.98611571,174.45701944,71.13596053
176.61696669,70.18100696,-52.54298918,-176.21571698,1.61871203,3.86874001
1.84936989,-2.24700187,0.09243104,0.17904583

>  <Name>
lig.pdb

>  <RI>
0

>  <Rbt.Current_Directory>
/home/itssahil/PROJECTS/Mol_Feturizer/New_Systems/rnas/2n0j

>  <Rbt.Executable>
rbdock ($Id: //depot/dev/client3/rdock/2013.1/src/exe/rbdock.cxx#4 $)

>  <Rbt.Library>
libRbt.so (2013.1, Build901 2013/11/27)

>  <Rbt.Parameter_File>
/export/apps/rDock/src/rDock_2013.1_src/data/scripts/dock_solv.prm

>  <Rbt.Receptor>
prm/pocket_docking_5.prm

>  <SCORE>
-32.6064

>  <SCORE.INTER>
-30.9063

>  <SCORE.INTER.CONST>
1

>  <SCORE.INTER.POLAR>
-4.49576

>  <SCORE.INTER.ROT>
6

>  <SCORE.INTER.SOLV>
19.4673

>  <SCORE.INTER.VDW>
-19.7074

>  <SCORE.INTER.norm>
-0.996978

>  <SCORE.INTRA>
-1.70008

>  <SCORE.INTRA.DIHEDRAL>
-13.4059

>  <SCORE.INTRA.DIHEDRAL.0>
28.0161

>  <SCORE.INTRA.POLAR>
0.51362

>  <SCORE.INTRA.POLAR.0>
-1.05798

>  <SCORE.INTRA.REPUL>
0.00304968

>  <SCORE.INTRA.REPUL.0>
0

>  <SCORE.INTRA.SOLV>
0.518229

>  <SCORE.INTRA.SOLV.lig_0>
-42.5945

>  <SCORE.INTRA.VDW>
2.98219

>  <SCORE.INTRA.VDW.0>
-5.13869

>  <SCORE.INTRA.norm>
-0.0548414

>  <SCORE.RESTR>
0

>  <SCORE.RESTR.CAVITY>
0

>  <SCORE.RESTR.norm>
0

>  <SCORE.SYSTEM>
0

>  <SCORE.SYSTEM.CONST>
0

>  <SCORE.SYSTEM.DIHEDRAL>
0

>  <SCORE.SYSTEM.SOLV>
0

>  <SCORE.SYSTEM.norm>
0

>  <SCORE.heavy>
31

>  <SCORE.norm>
-1.05182

>  <RMSD>
6.263

$$$$
lig.pdb
 OpenBabel11021811453D
libRbt.so/2013.1/901 2013/11/27
 31 33  0  0  0  0  0  0  0  0999 V2000
    4.0348    3.6674    0.8624 O   0  0  0  0  0  0  0  0  0  0  0  0
    3.1906    4.1465    1.8910 C   0  0  0  0  0  0  0  0  0  0  0  0
    1.7224    4.1734    1.4450 C   0  0  1  0  0  0  0  0  0  0  0  0
    1.2529    2.8805    1.0972 O   0  0  0  0  0  0  0  0  0  0  0  0
   -0.1586    2.8192    1.2780 C   0  0  1  0  0  0  0  0  0  0  0  0
   -0.5024    1.6404    1.9964 O   0  0  0  0  0  0  0  0  0  0  0  0
   -0.6328    0.4418    1.2488 C   0  0  2  0  0  0  0  0  0  0  0  0
   -1.9212    0.5470    0.4174 C   0  0  1  0  0  0  0  0  0  0  0  0
   -1.7548    1.5210   -0.6010 O   0  0  0  0  0  0  0  0  0  0  0  0
   -2.3334   -0.7648   -0.2677 C   0  0  2  0  0  0  0  0  0  0  0  0
   -3.6212   -0.6155   -0.9629 N   0  0  0  0  0  0  0  0  0  0  0  0
   -2.4433   -1.8748    0.7709 C   0  0  0  0  0  0  0  0  0  0  0  0
   -1.1247   -2.0057    1.5234 C   0  0  2  0  0  0  0  0  0  0  0  0
   -1.2412   -3.1149    2.4762 N   0  0  0  0  0  0  0  0  0  0  0  0
   -0.7747   -0.6780    2.2293 C   0  0  1  0  0  0  0  0  0  0  0  0
    0.4645   -0.9217    2.9123 O   0  0  0  0  0  0  0  0  0  0  0  0
    0.8745    0.0414    3.8770 C   0  0  1  0  0  0  0  0  0  0  0  0
    0.1627   -0.1354    5.0988 O   0  0  0  0  0  0  0  0  0  0  0  0
    0.4646   -1.3162    5.8390 C   0  0  2  0  0  0  0  0  0  0  0  0
   -0.3889   -1.3353    7.1141 C   0  0  0  0  0  0  0  0  0  0  0  0
   -1.4187   -2.3629    7.0573 N   0  0  0  0  0  0  0  0  0  0  0  0
    1.9585   -1.3634    6.2102 C   0  0  1  0  0  0  0  0  0  0  0  0
    2.2447   -2.5712    6.8927 O   0  0  0  0  0  0  0  0  0  0  0  0
    2.7891   -1.2816    4.9234 C   0  0  2  0  0  0  0  0  0  0  0  0
    4.1685   -1.2343    5.2367 O   0  0  0  0  0  0  0  0  0  0  0  0
    2.3887   -0.0520    4.0971 C   0  0  1  0  0  0  0  0  0  0  0  0
    3.0992   -0.0550    2.8104 N   0  0  0  0  0  0  0  0  0  0  0  0
   -0.5558    4.0549    2.0987 C   0  0  2  0  0  0  0  0  0  0  0  0
   -1.2605    4.9692    1.2795 O   0  0  0  0  0  0  0  0  0  0  0  0
    0.7917    4.5917    2.5789 C   0  0  2  0  0  0  0  0  0  0  0  0
    0.7922    5.9827    2.8319 O   0  0  0  0  0  0  0  0  0  0  0  0
  2  1  1  0  0  0  0
  3  2  1  1  0  0  0
  3 30  1  0  0  0  0
  4  5  1  0  0  0  0
  4  3  1  0  0  0  0
  5 28  1  0  0  0  0
  5  6  1  1  0  0  0
  7  6  1  1  0  0  0
  8  7  1  0  0  0  0
  8  9  1  6  0  0  0
 10 11  1  1  0  0  0
 10  8  1  0  0  0  0
 12 10  1  0  0  0  0
 13 12  1  0  0  0  0
 13 15  1  0  0  0  0
 13 14  1  1  0  0  0
 15  7  1  0  0  0  0
 15 16  1  6  0  0  0
 17 16  1  6  0  0  0
 18 17  1  0  0  0  0
 19 20  1  1  0  0  0
 19 18  1  0  0  0  0
 20 21  1  0  0  0  0
 22 24  1  0  0  0  0
 22 19  1  0  0  0  0
 22 23  1  6  0  0  0
 24 25  1  1  0  0  0
 24 26  1  0  0  0  0
 26 17  1  0  0  0  0
 26 27  1  6  0  0  0
 28 29  1  6  0  0  0
 28 30  1  0  0  0  0
 30 31  1  6  0  0  0
M  END
>  <CHROM.1>
-80.85557230,60.50541830,-83.53493864,-71.70605914,61.40210763,61.01172734
-59.29193214,72.31510804,78.68541562,109.58922403,-82.83323996,176.64978362
-142.48210711,159.89284910,54.54154536,-165.10165504,0.34432665,0.63494134
2.78323426,-1.73306987,0.69441879,2.53669001

>  <Name>
lig.pdb

>  <RI>
1.55206e+07

>  <Rbt.Current_Directory>
/home/itssahil/PROJECTS/Mol_Feturizer/New_Systems/rnas/2n0j

>  <Rbt.Executable>
rbdock ($Id: //depot/dev/client3/rdock/2013.1/src/exe/rbdock.cxx#4 $)

>  <Rbt.Library>
libRbt.so (2013.1, Build901 2013/11/27)

>  <Rbt.Parameter_File>
/export/apps/rDock/src/rDock_2013.1_src/data/scripts/dock_solv.prm

>  <Rbt.Receptor>
prm/blind_docking_80.prm

>  <SCORE>
-37.9188

>  <SCORE.INTER>
-40.7207

>  <SCORE.INTER.CONST>
1

>  <SCORE.INTER.POLAR>
-4.78385

>  <SCORE.INTER.ROT>
6

>  <SCORE.INTER.SOLV>
24.3833

>  <SCORE.INTER.VDW>
-26.9287

>  <SCORE.INTER.norm>
-1.31357

>  <SCORE.INTRA>
2.09978

>  <SCORE.INTRA.DIHEDRAL>
-7.2024

>  <SCORE.INTRA.DIHEDRAL.0>
28.0161

>  <SCORE.INTRA.POLAR>
1.0516

>  <SCORE.INTRA.POLAR.0>
-1.05798

>  <SCORE.INTRA.REPUL>
0

>  <SCORE.INTRA.REPUL.0>
0

>  <SCORE.INTRA.SOLV>
-0.757369

>  <SCORE.INTRA.SOLV.lig_0>
-42.5945

>  <SCORE.INTRA.VDW>
2.50422

>  <SCORE.INTRA.VDW.0>
-5.13869

>  <SCORE.INTRA.norm>
0.0677347

>  <SCORE.RESTR>
0.702126

>  <SCORE.RESTR.CAVITY>
0.702126

>  <SCORE.RESTR.norm>
0.0226492

>  <SCORE.SYSTEM>
0

>  <SCORE.SYSTEM.CONST>
0

>  <SCORE.SYSTEM.DIHEDRAL>
0

>  <SCORE.SYSTEM.SOLV>
0

>  <SCORE.SYSTEM.norm>
0

>  <SCORE.heavy>
31

>  <SCORE.norm>
-1.22319

>  <RMSD>
6.265

$$$$
lig.pdb
 OpenBabel11021811453D
libRbt.so/2013.1/901 2013/11/27
 31 33  0  0  0  0  0  0  0  0999 V2000
    4.0406    3.7119    0.8439 O   0  0  0  0  0  0  0  0  0  0  0  0
    3.1840    4.2193    1.8484 C   0  0  0  0  0  0  0  0  0  0  0  0
    1.7165    4.1927    1.4003 C   0  0  1  0  0  0  0  0  0  0  0  0
    1.2886    2.8802    1.0728 O   0  0  0  0  0  0  0  0  0  0  0  0
   -0.1206    2.7773    1.2530 C   0  0  1  0  0  0  0  0  0  0  0  0
   -0.4282    1.5999    1.9899 O   0  0  0  0  0  0  0  0  0  0  0  0
   -0.6095    0.4026    1.2507 C   0  0  2  0  0  0  0  0  0  0  0  0
   -1.9215    0.5346    0.4611 C   0  0  1  0  0  0  0  0  0  0  0  0
   -1.7665    1.5021   -0.5652 O   0  0  0  0  0  0  0  0  0  0  0  0
   -2.3849   -0.7693   -0.2062 C   0  0  2  0  0  0  0  0  0  0  0  0
   -3.6909   -0.5929   -0.8599 N   0  0  0  0  0  0  0  0  0  0  0  0
   -2.4858   -1.8740    0.8390 C   0  0  0  0  0  0  0  0  0  0  0  0
   -1.1468   -2.0325    1.5489 C   0  0  2  0  0  0  0  0  0  0  0  0
   -1.2571   -3.1365    2.5085 N   0  0  0  0  0  0  0  0  0  0  0  0
   -0.7446   -0.7112    2.2389 C   0  0  1  0  0  0  0  0  0  0  0  0
    0.5104   -0.9810    2.8822 O   0  0  0  0  0  0  0  0  0  0  0  0
    1.0123    0.0131    3.7690 C   0  0  1  0  0  0  0  0  0  0  0  0
    0.3178   -0.0248    5.0127 O   0  0  0  0  0  0  0  0  0  0  0  0
    0.5490   -1.1709    5.8291 C   0  0  2  0  0  0  0  0  0  0  0  0
   -0.2740   -1.0376    7.1174 C   0  0  0  0  0  0  0  0  0  0  0  0
   -1.3533   -2.0133    7.1701 N   0  0  0  0  0  0  0  0  0  0  0  0
    2.0435   -1.3042    6.1759 C   0  0  1  0  0  0  0  0  0  0  0  0
    2.2557   -2.4800    6.9369 O   0  0  0  0  0  0  0  0  0  0  0  0
    2.8480   -1.3743    4.8720 C   0  0  2  0  0  0  0  0  0  0  0  0
    4.2339   -1.4091    5.1564 O   0  0  0  0  0  0  0  0  0  0  0  0
    2.5201   -0.1782    3.9680 C   0  0  1  0  0  0  0  0  0  0  0  0
    3.1987   -0.3236    2.6722 N   0  0  0  0  0  0  0  0  0  0  0  0
   -0.5579    4.0128    2.0532 C   0  0  2  0  0  0  0  0  0  0  0  0
   -1.2898    4.8911    1.2186 O   0  0  0  0  0  0  0  0  0  0  0  0
    0.7712    4.5995    2.5262 C   0  0  2  0  0  0  0  0  0  0  0  0
    0.7274    5.9938    2.7569 O   0  0  0  0  0  0  0  0  0  0  0  0
  2  1  1  0  0  0  0
  3  2  1  1  0  0  0
  3 30  1  0  0  0  0
  4  5  1  0  0  0  0
  4  3  1  0  0  0  0
  5 28  1  0  0  0  0
  5  6  1  1  0  0  0
  7  6  1  1  0  0  0
  8  7  1  0  0  0  0
  8  9  1  6  0  0  0
 10 11  1  1  0  0  0
 10  8  1  0  0  0  0
 12 10  1  0  0  0  0
 13 12  1  0  0  0  0
 13 15  1  0  0  0  0
 13 14  1  1  0  0  0
 15  7  1  0  0  0  0
 15 16  1  6  0  0  0
 17 16  1  6  0  0  0
 18 17  1  0  0  0  0
 19 20  1  1  0  0  0
 19 18  1  0  0  0  0
 20 21  1  0  0  0  0
 22 24  1  0  0  0  0
 22 19  1  0  0  0  0
 22 23  1  6  0  0  0
 24 25  1  1  0  0  0
 24 26  1  0  0  0  0
 26 17  1  0  0  0  0
 26 27  1  6  0  0  0
 28 29  1  6  0  0  0
 28 30  1  0  0  0  0
 30 31  1  6  0  0  0
M  END
>  <CHROM.1>
178.41030117,58.68447219,-87.71758587,-69.89417340,57.01856453,-62.29102574
-175.68942588,68.59986853,76.73570765,111.30787237,-54.42330804,173.11994572
-65.79202840,-84.86636411,59.80750767,-62.35019537,0.37739822,0.64174788
2.76910409,-1.76427320,0.67787421,2.54419967

>  <Name>
lig.pdb

>  <RI>
1.55206e+07

>  <Rbt.Current_Directory>
/home/itssahil/PROJECTS/Mol_Feturizer/New_Systems/rnas/2n0j

>  <Rbt.Executable>
rbdock ($Id: //depot/dev/client3/rdock/2013.1/src/exe/rbdock.cxx#4 $)

>  <Rbt.Library>
libRbt.so (2013.1, Build901 2013/11/27)

>  <Rbt.Parameter_File>
/export/apps/rDock/src/rDock_2013.1_src/data/scripts/dock_solv.prm

>  <Rbt.Receptor>
prm/blind_docking_80.prm

>  <SCORE>
-42.1075

>  <SCORE.INTER>
-40.426

>  <SCORE.INTER.CONST>
1

>  <SCORE.INTER.POLAR>
-4.86006

>  <SCORE.INTER.ROT>
6

>  <SCORE.INTER.SOLV>
23.9296

>  <SCORE.INTER.VDW>
-26.327

>  <SCORE.INTER.norm>
-1.30406

>  <SCORE.INTRA>
-2.42073

>  <SCORE.INTRA.DIHEDRAL>
-15.4273

>  <SCORE.INTRA.DIHEDRAL.0>
28.0161

>  <SCORE.INTRA.POLAR>
1.04552

>  <SCORE.INTRA.POLAR.0>
-1.05798

>  <SCORE.INTRA.REPUL>
0

>  <SCORE.INTRA.REPUL.0>
0

>  <SCORE.INTRA.SOLV>
-0.85075

>  <SCORE.INTRA.SOLV.lig_0>
-42.5945

>  <SCORE.INTRA.VDW>
2.16354

>  <SCORE.INTRA.VDW.0>
-5.13869

>  <SCORE.INTRA.norm>
-0.0780882

>  <SCORE.RESTR>
0.739213

>  <SCORE.RESTR.CAVITY>
0.739213

>  <SCORE.RESTR.norm>
0.0238456

>  <SCORE.SYSTEM>
0

>  <SCORE.SYSTEM.CONST>
0

>  <SCORE.SYSTEM.DIHEDRAL>
0

>  <SCORE.SYSTEM.SOLV>
0

>  <SCORE.SYSTEM.norm>
0

>  <SCORE.heavy>
31

>  <SCORE.norm>
-1.35831

>  <RMSD>
6.268

$$$$
lig.pdb
 OpenBabel11021811453D
libRbt.so/2013.1/901 2013/11/27
 31 33  0  0  0  0  0  0  0  0999 V2000
    0.6528    7.3928    1.1322 O   0  0  0  0  0  0  0  0  0  0  0  0
    0.4481    6.8686    2.4297 C   0  0  0  0  0  0  0  0  0  0  0  0
   -0.5360    5.6911    2.4102 C   0  0  1  0  0  0  0  0  0  0  0  0
   -0.2792    4.8067    1.3309 O   0  0  0  0  0  0  0  0  0  0  0  0
   -0.7469    3.5021    1.6596 C   0  0  1  0  0  0  0  0  0  0  0  0
    0.2558    2.5394    1.3570 O   0  0  0  0  0  0  0  0  0  0  0  0
    1.4799    2.6346    2.0679 C   0  0  2  0  0  0  0  0  0  0  0  0
    2.4842    3.3775    1.1724 C   0  0  1  0  0  0  0  0  0  0  0  0
    2.1001    4.7379    1.0499 O   0  0  0  0  0  0  0  0  0  0  0  0
    3.9276    3.3556    1.6980 C   0  0  2  0  0  0  0  0  0  0  0  0
    4.8461    3.9989    0.7459 N   0  0  0  0  0  0  0  0  0  0  0  0
    4.3674    1.9154    1.9330 C   0  0  0  0  0  0  0  0  0  0  0  0
    3.3952    1.2310    2.8861 C   0  0  2  0  0  0  0  0  0  0  0  0
    3.8723   -0.1333    3.1367 N   0  0  0  0  0  0  0  0  0  0  0  0
    1.9684    1.2401    2.2964 C   0  0  1  0  0  0  0  0  0  0  0  0
    1.1500    0.5618    3.2617 O   0  0  0  0  0  0  0  0  0  0  0  0
    1.0746   -0.8566    3.1669 C   0  0  1  0  0  0  0  0  0  0  0  0
    0.6932   -1.4250    4.4168 O   0  0  0  0  0  0  0  0  0  0  0  0
   -0.6438   -1.1713    4.8429 C   0  0  2  0  0  0  0  0  0  0  0  0
   -0.8726   -1.8572    6.1964 C   0  0  0  0  0  0  0  0  0  0  0  0
   -1.3276   -3.2306    6.0338 N   0  0  0  0  0  0  0  0  0  0  0  0
   -1.6574   -1.7008    3.8115 C   0  0  1  0  0  0  0  0  0  0  0  0
   -2.9740   -1.3855    4.2282 O   0  0  0  0  0  0  0  0  0  0  0  0
   -1.3684   -1.0460    2.4550 C   0  0  2  0  0  0  0  0  0  0  0  0
   -2.2282   -1.5780    1.4647 O   0  0  0  0  0  0  0  0  0  0  0  0
    0.0982   -1.2543    2.0541 C   0  0  1  0  0  0  0  0  0  0  0  0
    0.3938   -0.5156    0.8182 N   0  0  0  0  0  0  0  0  0  0  0  0
   -1.0247    3.4967    3.1699 C   0  0  2  0  0  0  0  0  0  0  0  0
   -2.4204    3.4494    3.4012 O   0  0  0  0  0  0  0  0  0  0  0  0
   -0.3806    4.8004    3.6387 C   0  0  2  0  0  0  0  0  0  0  0  0
   -0.9674    5.3362    4.8082 O   0  0  0  0  0  0  0  0  0  0  0  0
  2  1  1  0  0  0  0
  3  2  1  1  0  0  0
  3 30  1  0  0  0  0
  4  5  1  0  0  0  0
  4  3  1  0  0  0  0
  5 28  1  0  0  0  0
  5  6  1  1  0  0  0
  7  6  1  6  0  0  0
  8  7  1  0  0  0  0
  8  9  1  1  0  0  0
 10 11  1  6  0  0  0
 10  8  1  0  0  0  0
 12 10  1  0  0  0  0
 13 12  1  0  0  0  0
 13 15  1  0  0  0  0
 13 14  1  6  0  0  0
 15  7  1  0  0  0  0
 15 16  1  1  0  0  0
 17 16  1  1  0  0  0
 18 17  1  0  0  0  0
 19 20  1  1  0  0  0
 19 18  1  0  0  0  0
 20 21  1  0  0  0  0
 22 24  1  0  0  0  0
 22 19  1  0  0  0  0
 22 23  1  1  0  0  0
 24 25  1  6  0  0  0
 24 26  1  0  0  0  0
 26 17  1  0  0  0  0
 26 27  1  6  0  0  0
 28 29  1  6  0  0  0
 28 30  1  0  0  0  0
 30 31  1  1  0  0  0
M  END
>  <CHROM.1>
44.56955673,43.28811982,62.70376265,-98.04218459,68.24032069,-59.58185624
-73.67845904,152.74264747,157.56105959,-88.18394377,166.81278990,-49.98234611
64.55822432,-64.71179247,-56.14784830,-162.40920213,0.48388179,1.76963885
2.74096134,1.24485585,0.32750678,-0.21379516

>  <Name>
lig.pdb

>  <RI>
1.55206e+07

>  <Rbt.Current_Directory>
/home/itssahil/PROJECTS/Mol_Feturizer/New_Systems/rnas/2n0j

>  <Rbt.Executable>
rbdock ($Id: //depot/dev/client3/rdock/2013.1/src/exe/rbdock.cxx#4 $)

>  <Rbt.Library>
libRbt.so (2013.1, Build901 2013/11/27)

>  <Rbt.Parameter_File>
/export/apps/rDock/src/rDock_2013.1_src/data/scripts/dock_solv.prm

>  <Rbt.Receptor>
prm/blind_docking_80.prm

>  <SCORE>
-33.8736

>  <SCORE.INTER>
-41.8627

>  <SCORE.INTER.CONST>
1

>  <SCORE.INTER.POLAR>
-5.25043

>  <SCORE.INTER.ROT>
6

>  <SCORE.INTER.SOLV>
17.5063

>  <SCORE.INTER.VDW>
-23.8425

>  <SCORE.INTER.norm>
-1.35041

>  <SCORE.INTRA>
2.4407

>  <SCORE.INTRA.DIHEDRAL>
-9.53133

>  <SCORE.INTRA.DIHEDRAL.0>
28.0161

>  <SCORE.INTRA.POLAR>
0.057985

>  <SCORE.INTRA.POLAR.0>
-1.05798

>  <SCORE.INTRA.REPUL>
0

>  <SCORE.INTRA.REPUL.0>
0

>  <SCORE.INTRA.SOLV>
2.10249

>  <SCORE.INTRA.SOLV.lig_0>
-42.5945

>  <SCORE.INTRA.VDW>
5.95797

>  <SCORE.INTRA.VDW.0>
-5.13869

>  <SCORE.INTRA.norm>
0.0787322

>  <SCORE.RESTR>
5.54835

>  <SCORE.RESTR.CAVITY>
5.54835

>  <SCORE.RESTR.norm>
0.178979

>  <SCORE.SYSTEM>
0

>  <SCORE.SYSTEM.CONST>
0

>  <SCORE.SYSTEM.DIHEDRAL>
0

>  <SCORE.SYSTEM.SOLV>
0

>  <SCORE.SYSTEM.norm>
0

>  <SCORE.heavy>
31

>  <SCORE.norm>
-1.0927

>  <RMSD>
6.269

$$$$
lig.pdb
 OpenBabel11021811453D
libRbt.so/2013.1/901 2013/11/27
 31 33  0  0  0  0  0  0  0  0999 V2000
    3.9784    2.0989    2.0538 O   0  0  0  0  0  0  0  0  0  0  0  0
    3.7879    3.4682    1.7557 C   0  0  0  0  0  0  0  0  0  0  0  0
    2.3251    3.7668    1.4003 C   0  0  1  0  0  0  0  0  0  0  0  0
    1.6186    2.5899    1.0414 O   0  0  0  0  0  0  0  0  0  0  0  0
    0.2300    2.7661    1.3053 C   0  0  1  0  0  0  0  0  0  0  0  0
   -0.2753    1.6358    2.0060 O   0  0  0  0  0  0  0  0  0  0  0  0
   -0.4389    0.4360    1.2667 C   0  0  2  0  0  0  0  0  0  0  0  0
   -1.7112    0.5804    0.4167 C   0  0  1  0  0  0  0  0  0  0  0  0
   -1.4959    1.5386   -0.6074 O   0  0  0  0  0  0  0  0  0  0  0  0
   -2.1615   -0.7216   -0.2631 C   0  0  2  0  0  0  0  0  0  0  0  0
   -3.4335   -0.5321   -0.9773 N   0  0  0  0  0  0  0  0  0  0  0  0
   -2.3256   -1.8177    0.7832 C   0  0  0  0  0  0  0  0  0  0  0  0
   -1.0230   -1.9895    1.5550 C   0  0  2  0  0  0  0  0  0  0  0  0
   -1.1925   -3.0853    2.5154 N   0  0  0  0  0  0  0  0  0  0  0  0
   -0.6347   -0.6691    2.2545 C   0  0  1  0  0  0  0  0  0  0  0  0
    0.5855   -0.9514    2.9566 O   0  0  0  0  0  0  0  0  0  0  0  0
    1.1629    0.1109    3.7081 C   0  0  1  0  0  0  0  0  0  0  0  0
    0.5598    0.2021    4.9960 O   0  0  0  0  0  0  0  0  0  0  0  0
    0.8350   -0.8674    5.8981 C   0  0  2  0  0  0  0  0  0  0  0  0
    0.1092   -0.5990    7.2232 C   0  0  0  0  0  0  0  0  0  0  0  0
   -1.2370   -1.1536    7.2216 N   0  0  0  0  0  0  0  0  0  0  0  0
    2.3489   -0.9969    6.1491 C   0  0  1  0  0  0  0  0  0  0  0  0
    2.6007   -2.1007    7.0004 O   0  0  0  0  0  0  0  0  0  0  0  0
    3.0559   -1.2033    4.8038 C   0  0  2  0  0  0  0  0  0  0  0  0
    4.4583   -1.2384    4.9913 O   0  0  0  0  0  0  0  0  0  0  0  0
    2.6787   -0.0903    3.8168 C   0  0  1  0  0  0  0  0  0  0  0  0
    3.2597   -0.3686    2.4957 N   0  0  0  0  0  0  0  0  0  0  0  0
    0.1001    4.0169    2.1866 C   0  0  2  0  0  0  0  0  0  0  0  0
   -0.4772    5.0722    1.4405 O   0  0  0  0  0  0  0  0  0  0  0  0
    1.5447    4.2924    2.6009 C   0  0  2  0  0  0  0  0  0  0  0  0
    1.8021    5.6508    2.8968 O   0  0  0  0  0  0  0  0  0  0  0  0
  2  1  1  0  0  0  0
  3  2  1  1  0  0  0
  3 30  1  0  0  0  0
  4  5  1  0  0  0  0
  4  3  1  0  0  0  0
  5 28  1  0  0  0  0
  5  6  1  1  0  0  0
  7  6  1  1  0  0  0
  8  7  1  0  0  0  0
  8  9  1  6  0  0  0
 10 11  1  1  0  0  0
 10  8  1  0  0  0  0
 12 10  1  0  0  0  0
 13 12  1  0  0  0  0
 13 15  1  0  0  0  0
 13 14  1  1  0  0  0
 15  7  1  0  0  0  0
 15 16  1  6  0  0  0
 17 16  1  1  0  0  0
 18 17  1  0  0  0  0
 19 20  1  1  0  0  0
 19 18  1  0  0  0  0
 20 21  1  0  0  0  0
 22 24  1  0  0  0  0
 22 19  1  0  0  0  0
 22 23  1  1  0  0  0
 24 25  1  1  0  0  0
 24 26  1  0  0  0  0
 26 17  1  0  0  0  0
 26 27  1  6  0  0  0
 28 29  1  6  0  0  0
 28 30  1  0  0  0  0
 30 31  1  6  0  0  0
M  END
>  <CHROM.1>
59.67407810,-18.65809413,-73.09292787,-76.92307515,177.42278164,-172.21561026
62.29770390,59.74660498,83.69558503,89.14176974,-177.89460264,-61.53766886
175.06760933,-91.00519790,-177.77568943,-59.43723599,0.67355548,0.63734360
2.81038329,-2.00181923,0.69969710,2.49369374

>  <Name>
lig.pdb

>  <RI>
9.20816e+06

>  <Rbt.Current_Directory>
/home/itssahil/PROJECTS/Mol_Feturizer/New_Systems/rnas/2n0j

>  <Rbt.Executable>
rbdock ($Id: //depot/dev/client3/rdock/2013.1/src/exe/rbdock.cxx#4 $)

>  <Rbt.Library>
libRbt.so (2013.1, Build901 2013/11/27)

>  <Rbt.Parameter_File>
/export/apps/rDock/src/rDock_2013.1_src/data/scripts/dock_solv.prm

>  <Rbt.Receptor>
prm/blind_docking_100.prm

>  <SCORE>
-34.9815

>  <SCORE.INTER>
-35.0254

>  <SCORE.INTER.CONST>
1

>  <SCORE.INTER.POLAR>
-3.73241

>  <SCORE.INTER.ROT>
6

>  <SCORE.INTER.SOLV>
23.6842

>  <SCORE.INTER.VDW>
-26.4036

>  <SCORE.INTER.norm>
-1.12985

>  <SCORE.INTRA>
-0.272316

>  <SCORE.INTRA.DIHEDRAL>
-14.2737

>  <SCORE.INTRA.DIHEDRAL.0>
28.0161

>  <SCORE.INTRA.POLAR>
0.955402

>  <SCORE.INTRA.POLAR.0>
-1.05798

>  <SCORE.INTRA.REPUL>
0

>  <SCORE.INTRA.REPUL.0>
0

>  <SCORE.INTRA.SOLV>
0.815071

>  <SCORE.INTRA.SOLV.lig_0>
-42.5945

>  <SCORE.INTRA.VDW>
3.20864

>  <SCORE.INTRA.VDW.0>
-5.13869

>  <SCORE.INTRA.norm>
-0.00878439

>  <SCORE.RESTR>
0.316203

>  <SCORE.RESTR.CAVITY>
0.316203

>  <SCORE.RESTR.norm>
0.0102001

>  <SCORE.SYSTEM>
0

>  <SCORE.SYSTEM.CONST>
0

>  <SCORE.SYSTEM.DIHEDRAL>
0

>  <SCORE.SYSTEM.SOLV>
0

>  <SCORE.SYSTEM.norm>
0

>  <SCORE.heavy>
31

>  <SCORE.norm>
-1.12843

>  <RMSD>
6.276

$$$$
lig.pdb
 OpenBabel11021811453D
libRbt.so/2013.1/901 2013/11/27
 31 33  0  0  0  0  0  0  0  0999 V2000
    1.8361    0.0603    7.0914 O   0  0  0  0  0  0  0  0  0  0  0  0
    0.8031   -0.5631    6.3536 C   0  0  0  0  0  0  0  0  0  0  0  0
    0.9517   -0.3013    4.8488 C   0  0  1  0  0  0  0  0  0  0  0  0
    0.5034    0.9968    4.4924 O   0  0  0  0  0  0  0  0  0  0  0  0
    1.1728    1.4266    3.3109 C   0  0  1  0  0  0  0  0  0  0  0  0
    1.6627    2.7504    3.4881 O   0  0  0  0  0  0  0  0  0  0  0  0
    2.0047    3.4761    2.3180 C   0  0  2  0  0  0  0  0  0  0  0  0
    3.5220    3.7194    2.3453 C   0  0  1  0  0  0  0  0  0  0  0  0
    4.2066    2.4920    2.1498 O   0  0  0  0  0  0  0  0  0  0  0  0
    4.0192    4.6965    1.2691 C   0  0  2  0  0  0  0  0  0  0  0  0
    5.4598    4.9559    1.4162 N   0  0  0  0  0  0  0  0  0  0  0  0
    3.2538    6.0103    1.3745 C   0  0  0  0  0  0  0  0  0  0  0  0
    1.7577    5.7427    1.2649 C   0  0  2  0  0  0  0  0  0  0  0  0
    1.0508    7.0271    1.3143 N   0  0  0  0  0  0  0  0  0  0  0  0
    1.2980    4.7916    2.3909 C   0  0  1  0  0  0  0  0  0  0  0  0
   -0.1153    4.6258    2.1998 O   0  0  0  0  0  0  0  0  0  0  0  0
   -0.8292    3.9232    3.2113 C   0  0  1  0  0  0  0  0  0  0  0  0
   -1.1549    4.7918    4.2931 O   0  0  0  0  0  0  0  0  0  0  0  0
   -2.1205    5.8048    4.0194 C   0  0  2  0  0  0  0  0  0  0  0  0
   -2.3438    6.6350    5.2904 C   0  0  0  0  0  0  0  0  0  0  0  0
   -3.0704    7.8650    5.0094 N   0  0  0  0  0  0  0  0  0  0  0  0
   -3.4528    5.1827    3.5616 C   0  0  1  0  0  0  0  0  0  0  0  0
   -4.3751    6.2086    3.2401 O   0  0  0  0  0  0  0  0  0  0  0  0
   -3.1914    4.3103    2.3274 C   0  0  2  0  0  0  0  0  0  0  0  0
   -4.3821    3.6541    1.9342 O   0  0  0  0  0  0  0  0  0  0  0  0
   -2.0874    3.2834    2.6136 C   0  0  1  0  0  0  0  0  0  0  0  0
   -1.7582    2.5412    1.3883 N   0  0  0  0  0  0  0  0  0  0  0  0
    2.3522    0.4674    3.0941 C   0  0  2  0  0  0  0  0  0  0  0  0
    2.0961   -0.3639    1.9774 O   0  0  0  0  0  0  0  0  0  0  0  0
    2.4138   -0.2995    4.4141 C   0  0  2  0  0  0  0  0  0  0  0  0
    2.9739   -1.5923    4.2951 O   0  0  0  0  0  0  0  0  0  0  0  0
  2  1  1  0  0  0  0
  3  2  1  1  0  0  0
  3 30  1  0  0  0  0
  4  5  1  0  0  0  0
  4  3  1  0  0  0  0
  5 28  1  0  0  0  0
  5  6  1  1  0  0  0
  7  6  1  1  0  0  0
  8  7  1  0  0  0  0
  8  9  1  6  0  0  0
 10 11  1  1  0  0  0
 10  8  1  0  0  0  0
 12 10  1  0  0  0  0
 13 12  1  0  0  0  0
 13 15  1  0  0  0  0
 13 14  1  1  0  0  0
 15  7  1  0  0  0  0
 15 16  1  6  0  0  0
 17 16  1  6  0  0  0
 18 17  1  0  0  0  0
 19 20  1  1  0  0  0
 19 18  1  0  0  0  0
 20 21  1  0  0  0  0
 22 24  1  0  0  0  0
 22 19  1  0  0  0  0
 22 23  1  6  0  0  0
 24 25  1  1  0  0  0
 24 26  1  0  0  0  0
 26 17  1  0  0  0  0
 26 27  1  6  0  0  0
 28 29  1  6  0  0  0
 28 30  1  0  0  0  0
 30 31  1  6  0  0  0
M  END
>  <CHROM.1>
-66.01408654,-78.15430775,-162.19695856,-114.43890477,65.27022049,-54.11737680
-75.58189300,66.94766496,82.58188228,166.66982578,73.11453026,-172.91082716
74.02774200,87.05478290,-166.41833998,-68.23981235,0.45561584,3.36063309
3.16979370,0.69879223,-0.30007824,2.72000823

>  <Name>
lig.pdb

>  <RI>
3.32461e+07

>  <Rbt.Current_Directory>
/home/itssahil/PROJECTS/Mol_Feturizer/New_Systems/rnas/2n0j

>  <Rbt.Executable>
rbdock ($Id: //depot/dev/client3/rdock/2013.1/src/exe/rbdock.cxx#4 $)

>  <Rbt.Library>
libRbt.so (2013.1, Build901 2013/11/27)

>  <Rbt.Parameter_File>
/export/apps/rDock/src/rDock_2013.1_src/data/scripts/dock_solv.prm

>  <Rbt.Receptor>
prm/pocket_docking_7.prm

>  <SCORE>
-46.0371

>  <SCORE.INTER>
-45.9126

>  <SCORE.INTER.CONST>
1

>  <SCORE.INTER.POLAR>
-5.43597

>  <SCORE.INTER.ROT>
6

>  <SCORE.INTER.SOLV>
24.2127

>  <SCORE.INTER.VDW>
-28.1594

>  <SCORE.INTER.norm>
-1.48105

>  <SCORE.INTRA>
-0.124451

>  <SCORE.INTRA.DIHEDRAL>
-9.80195

>  <SCORE.INTRA.DIHEDRAL.0>
28.0161

>  <SCORE.INTRA.POLAR>
0.606759

>  <SCORE.INTRA.POLAR.0>
-1.05798

>  <SCORE.INTRA.REPUL>
0

>  <SCORE.INTRA.REPUL.0>
0

>  <SCORE.INTRA.SOLV>
1.31117

>  <SCORE.INTRA.SOLV.lig_0>
-42.5945

>  <SCORE.INTRA.VDW>
2.05796

>  <SCORE.INTRA.VDW.0>
-5.13869

>  <SCORE.INTRA.norm>
-0.00401455

>  <SCORE.RESTR>
0

>  <SCORE.RESTR.CAVITY>
0

>  <SCORE.RESTR.norm>
0

>  <SCORE.SYSTEM>
0

>  <SCORE.SYSTEM.CONST>
0

>  <SCORE.SYSTEM.DIHEDRAL>
0

>  <SCORE.SYSTEM.SOLV>
0

>  <SCORE.SYSTEM.norm>
0

>  <SCORE.heavy>
31

>  <SCORE.norm>
-1.48507

>  <RMSD>
6.276

$$$$
lig.pdb
 OpenBabel11021811453D
libRbt.so/2013.1/901 2013/11/27
 31 33  0  0  0  0  0  0  0  0999 V2000
    4.2863    3.3478    0.5648 O   0  0  0  0  0  0  0  0  0  0  0  0
    3.5726    3.6679    1.7431 C   0  0  0  0  0  0  0  0  0  0  0  0
    2.0884    3.9235    1.4482 C   0  0  1  0  0  0  0  0  0  0  0  0
    1.4131    2.7342    1.0705 O   0  0  0  0  0  0  0  0  0  0  0  0
    0.0291    2.8486    1.3872 C   0  0  1  0  0  0  0  0  0  0  0  0
   -0.4099    1.6762    2.0629 O   0  0  0  0  0  0  0  0  0  0  0  0
   -0.5569    0.4982    1.2860 C   0  0  2  0  0  0  0  0  0  0  0  0
   -1.8355    0.6483    0.4465 C   0  0  1  0  0  0  0  0  0  0  0  0
   -1.6410    1.6424   -0.5472 O   0  0  0  0  0  0  0  0  0  0  0  0
   -2.2671   -0.6387   -0.2730 C   0  0  2  0  0  0  0  0  0  0  0  0
   -3.5455   -0.4478   -0.9754 N   0  0  0  0  0  0  0  0  0  0  0  0
   -2.4079   -1.7704    0.7381 C   0  0  0  0  0  0  0  0  0  0  0  0
   -1.0990   -1.9449    1.4985 C   0  0  2  0  0  0  0  0  0  0  0  0
   -1.2456   -3.0736    2.4238 N   0  0  0  0  0  0  0  0  0  0  0  0
   -0.7295   -0.6412    2.2386 C   0  0  1  0  0  0  0  0  0  0  0  0
    0.4986   -0.9253    2.9261 O   0  0  0  0  0  0  0  0  0  0  0  0
    0.9896    0.0708    3.8167 C   0  0  1  0  0  0  0  0  0  0  0  0
    0.3500   -0.0297    5.0862 O   0  0  0  0  0  0  0  0  0  0  0  0
    0.6689   -1.1821    5.8632 C   0  0  2  0  0  0  0  0  0  0  0  0
   -0.1051   -1.1188    7.1867 C   0  0  0  0  0  0  0  0  0  0  0  0
   -1.5265   -0.8912    6.9688 N   0  0  0  0  0  0  0  0  0  0  0  0
    2.1812   -1.2512    6.1457 C   0  0  1  0  0  0  0  0  0  0  0  0
    2.4802   -2.4329    6.8674 O   0  0  0  0  0  0  0  0  0  0  0  0
    2.9330   -1.2518    4.8089 C   0  0  2  0  0  0  0  0  0  0  0  0
    4.3298   -1.2263    5.0360 O   0  0  0  0  0  0  0  0  0  0  0  0
    2.5117   -0.0521    3.9496 C   0  0  1  0  0  0  0  0  0  0  0  0
    3.1418   -0.1342    2.6242 N   0  0  0  0  0  0  0  0  0  0  0  0
   -0.1154    4.0619    2.3173 C   0  0  2  0  0  0  0  0  0  0  0  0
   -0.7564    5.1203    1.6299 O   0  0  0  0  0  0  0  0  0  0  0  0
    1.3317    4.3769    2.6926 C   0  0  2  0  0  0  0  0  0  0  0  0
    1.5497    5.7328    3.0289 O   0  0  0  0  0  0  0  0  0  0  0  0
  2  1  1  0  0  0  0
  3  2  1  1  0  0  0
  3 30  1  0  0  0  0
  4  5  1  0  0  0  0
  4  3  1  0  0  0  0
  5 28  1  0  0  0  0
  5  6  1  1  0  0  0
  7  6  1  1  0  0  0
  8  7  1  0  0  0  0
  8  9  1  6  0  0  0
 10 11  1  1  0  0  0
 10  8  1  0  0  0  0
 12 10  1  0  0  0  0
 13 12  1  0  0  0  0
 13 15  1  0  0  0  0
 13 14  1  1  0  0  0
 15  7  1  0  0  0  0
 15 16  1  6  0  0  0
 17 16  1  6  0  0  0
 18 17  1  0  0  0  0
 19 20  1  1  0  0  0
 19 18  1  0  0  0  0
 20 21  1  0  0  0  0
 22 24  1  0  0  0  0
 22 19  1  0  0  0  0
 22 23  1  6  0  0  0
 24 25  1  1  0  0  0
 24 26  1  0  0  0  0
 26 17  1  0  0  0  0
 26 27  1  6  0  0  0
 28 29  1  6  0  0  0
 28 30  1  0  0  0  0
 30 31  1  6  0  0  0
M  END
>  <CHROM.1>
-172.19485321,69.16931107,-73.16407099,-74.81707427,65.63401643,-56.00236916
-176.08901652,66.05315714,82.79406264,51.60282968,-156.93646006,170.85984119
75.47623698,-81.04929763,-35.07368091,68.57527027,0.53573929,0.69277018,2.77255127
-1.77815153,0.67065443,2.49196406

>  <Name>
lig.pdb

>  <RI>
0

>  <Rbt.Current_Directory>
/home/itssahil/PROJECTS/Mol_Feturizer/New_Systems/rnas/2n0j

>  <Rbt.Executable>
rbdock ($Id: //depot/dev/client3/rdock/2013.1/src/exe/rbdock.cxx#4 $)

>  <Rbt.Library>
libRbt.so (2013.1, Build901 2013/11/27)

>  <Rbt.Parameter_File>
/export/apps/rDock/src/rDock_2013.1_src/data/scripts/dock_solv.prm

>  <Rbt.Receptor>
prm/blind_docking_60.prm

>  <SCORE>
-41.7058

>  <SCORE.INTER>
-39.5685

>  <SCORE.INTER.CONST>
1

>  <SCORE.INTER.POLAR>
-5.21081

>  <SCORE.INTER.ROT>
6

>  <SCORE.INTER.SOLV>
23.1811

>  <SCORE.INTER.VDW>
-24.3367

>  <SCORE.INTER.norm>
-1.2764

>  <SCORE.INTRA>
-2.66639

>  <SCORE.INTRA.DIHEDRAL>
-15.6575

>  <SCORE.INTRA.DIHEDRAL.0>
28.0161

>  <SCORE.INTRA.POLAR>
0.936888

>  <SCORE.INTRA.POLAR.0>
-1.05798

>  <SCORE.INTRA.REPUL>
0

>  <SCORE.INTRA.REPUL.0>
0

>  <SCORE.INTRA.SOLV>
-0.591956

>  <SCORE.INTRA.SOLV.lig_0>
-42.5945

>  <SCORE.INTRA.VDW>
2.27293

>  <SCORE.INTRA.VDW.0>
-5.13869

>  <SCORE.INTRA.norm>
-0.0860126

>  <SCORE.RESTR>
0.529099

>  <SCORE.RESTR.CAVITY>
0.529099

>  <SCORE.RESTR.norm>
0.0170677

>  <SCORE.SYSTEM>
0

>  <SCORE.SYSTEM.CONST>
0

>  <SCORE.SYSTEM.DIHEDRAL>
0

>  <SCORE.SYSTEM.SOLV>
0

>  <SCORE.SYSTEM.norm>
0

>  <SCORE.heavy>
31

>  <SCORE.norm>
-1.34535

>  <RMSD>
6.280

$$$$
lig.pdb
 OpenBabel11021811453D
libRbt.so/2013.1/901 2013/11/27
 31 33  0  0  0  0  0  0  0  0999 V2000
   -2.5031   -3.1665    0.5985 O   0  0  0  0  0  0  0  0  0  0  0  0
   -3.7389   -3.5543    1.1665 C   0  0  0  0  0  0  0  0  0  0  0  0
   -3.8926   -3.0170    2.5958 C   0  0  1  0  0  0  0  0  0  0  0  0
   -2.6582   -3.0177    3.2953 O   0  0  0  0  0  0  0  0  0  0  0  0
   -2.6820   -2.0175    4.3090 C   0  0  1  0  0  0  0  0  0  0  0  0
   -1.4876   -1.2465    4.2545 O   0  0  0  0  0  0  0  0  0  0  0  0
   -1.0762   -0.6049    5.4511 C   0  0  2  0  0  0  0  0  0  0  0  0
   -1.3259   -1.5789    6.6135 C   0  0  1  0  0  0  0  0  0  0  0  0
   -0.4198   -2.6675    6.5281 O   0  0  0  0  0  0  0  0  0  0  0  0
   -1.1554   -0.9504    8.0049 C   0  0  2  0  0  0  0  0  0  0  0  0
   -1.5032   -1.9101    9.0642 N   0  0  0  0  0  0  0  0  0  0  0  0
   -2.0444    0.2818    8.1249 C   0  0  0  0  0  0  0  0  0  0  0  0
   -1.7173    1.2615    7.0046 C   0  0  2  0  0  0  0  0  0  0  0  0
   -2.5474    2.4586    7.1766 N   0  0  0  0  0  0  0  0  0  0  0  0
   -1.9443    0.5994    5.6284 C   0  0  1  0  0  0  0  0  0  0  0  0
   -1.6243    1.6094    4.6594 O   0  0  0  0  0  0  0  0  0  0  0  0
   -2.0533    1.3840    3.3208 C   0  0  1  0  0  0  0  0  0  0  0  0
   -3.4754    1.4190    3.2354 O   0  0  0  0  0  0  0  0  0  0  0  0
   -4.0881    2.6901    3.4414 C   0  0  2  0  0  0  0  0  0  0  0  0
   -5.6092    2.5354    3.3111 C   0  0  0  0  0  0  0  0  0  0  0  0
   -6.3077    3.7614    3.6700 N   0  0  0  0  0  0  0  0  0  0  0  0
   -3.5780    3.7174    2.4137 C   0  0  1  0  0  0  0  0  0  0  0  0
   -4.1558    4.9840    2.6751 O   0  0  0  0  0  0  0  0  0  0  0  0
   -2.0508    3.8078    2.5232 C   0  0  2  0  0  0  0  0  0  0  0  0
   -1.5425    4.6798    1.5311 O   0  0  0  0  0  0  0  0  0  0  0  0
   -1.4145    2.4180    2.3868 C   0  0  1  0  0  0  0  0  0  0  0  0
    0.0344    2.5008    2.6204 N   0  0  0  0  0  0  0  0  0  0  0  0
   -3.8894   -1.1153    4.0152 C   0  0  2  0  0  0  0  0  0  0  0  0
   -4.8977   -1.3316    4.9848 O   0  0  0  0  0  0  0  0  0  0  0  0
   -4.3031   -1.5480    2.6095 C   0  0  2  0  0  0  0  0  0  0  0  0
   -5.6729   -1.3371    2.3296 O   0  0  0  0  0  0  0  0  0  0  0  0
  2  1  1  0  0  0  0
  3  2  1  6  0  0  0
  3 30  1  0  0  0  0
  4  5  1  0  0  0  0
  4  3  1  0  0  0  0
  5 28  1  0  0  0  0
  5  6  1  6  0  0  0
  7  6  1  6  0  0  0
  8  7  1  0  0  0  0
  8  9  1  6  0  0  0
 10 11  1  1  0  0  0
 10  8  1  0  0  0  0
 12 10  1  0  0  0  0
 13 12  1  0  0  0  0
 13 15  1  0  0  0  0
 13 14  1  1  0  0  0
 15  7  1  0  0  0  0
 15 16  1  6  0  0  0
 17 16  1  1  0  0  0
 18 17  1  0  0  0  0
 19 20  1  6  0  0  0
 19 18  1  0  0  0  0
 20 21  1  0  0  0  0
 22 24  1  0  0  0  0
 22 19  1  0  0  0  0
 22 23  1  1  0  0  0
 24 25  1  6  0  0  0
 24 26  1  0  0  0  0
 26 17  1  0  0  0  0
 26 27  1  1  0  0  0
 28 29  1  1  0  0  0
 28 30  1  0  0  0  0
 30 31  1  1  0  0  0
M  END
>  <CHROM.1>
64.75359118,-36.11037398,-154.93181695,40.18480809,95.30362043,119.43423543
-57.77487643,74.15565731,66.96826718,173.04034799,38.03718629,174.91813423
-52.91305836,175.42658690,-173.34372080,59.74404023,-2.76533267,0.37637372
4.16846330,1.07019388,1.13305171,3.12687888

>  <Name>
lig.pdb

>  <RI>
0

>  <Rbt.Current_Directory>
/home/itssahil/PROJECTS/Mol_Feturizer/New_Systems/rnas/2n0j

>  <Rbt.Executable>
rbdock ($Id: //depot/dev/client3/rdock/2013.1/src/exe/rbdock.cxx#4 $)

>  <Rbt.Library>
libRbt.so (2013.1, Build901 2013/11/27)

>  <Rbt.Parameter_File>
/export/apps/rDock/src/rDock_2013.1_src/data/scripts/dock_solv.prm

>  <Rbt.Receptor>
prm/pocket_docking_8.prm

>  <SCORE>
-32.7893

>  <SCORE.INTER>
-34.4342

>  <SCORE.INTER.CONST>
1

>  <SCORE.INTER.POLAR>
-5.37425

>  <SCORE.INTER.ROT>
6

>  <SCORE.INTER.SOLV>
17.4035

>  <SCORE.INTER.VDW>
-18.4431

>  <SCORE.INTER.norm>
-1.11078

>  <SCORE.INTRA>
1.64485

>  <SCORE.INTRA.DIHEDRAL>
-10.0845

>  <SCORE.INTRA.DIHEDRAL.0>
28.0161

>  <SCORE.INTRA.POLAR>
0.238684

>  <SCORE.INTRA.POLAR.0>
-1.05798

>  <SCORE.INTRA.REPUL>
0

>  <SCORE.INTRA.REPUL.0>
0

>  <SCORE.INTRA.SOLV>
1.60608

>  <SCORE.INTRA.SOLV.lig_0>
-42.5945

>  <SCORE.INTRA.VDW>
5.07255

>  <SCORE.INTRA.VDW.0>
-5.13869

>  <SCORE.INTRA.norm>
0.0530595

>  <SCORE.RESTR>
0

>  <SCORE.RESTR.CAVITY>
0

>  <SCORE.RESTR.norm>
0

>  <SCORE.SYSTEM>
0

>  <SCORE.SYSTEM.CONST>
0

>  <SCORE.SYSTEM.DIHEDRAL>
0

>  <SCORE.SYSTEM.SOLV>
0

>  <SCORE.SYSTEM.norm>
0

>  <SCORE.heavy>
31

>  <SCORE.norm>
-1.05772

>  <RMSD>
6.283

$$$$
lig.pdb
 OpenBabel11021811453D
libRbt.so/2013.1/901 2013/11/27
 31 33  0  0  0  0  0  0  0  0999 V2000
    4.0839    3.4964    0.7993 O   0  0  0  0  0  0  0  0  0  0  0  0
    3.3211    3.9022    1.9189 C   0  0  0  0  0  0  0  0  0  0  0  0
    1.8346    4.0427    1.5640 C   0  0  1  0  0  0  0  0  0  0  0  0
    1.2607    2.7990    1.1941 O   0  0  0  0  0  0  0  0  0  0  0  0
   -0.1389    2.8206    1.4574 C   0  0  1  0  0  0  0  0  0  0  0  0
   -0.5185    1.6361    2.1479 O   0  0  0  0  0  0  0  0  0  0  0  0
   -0.5942    0.4403    1.3882 C   0  0  2  0  0  0  0  0  0  0  0  0
   -1.7837    0.5732    0.4241 C   0  0  1  0  0  0  0  0  0  0  0  0
   -1.4884    1.5430   -0.5687 O   0  0  0  0  0  0  0  0  0  0  0  0
   -2.1487   -0.7295   -0.3037 C   0  0  2  0  0  0  0  0  0  0  0  0
   -3.3513   -0.5525   -1.1323 N   0  0  0  0  0  0  0  0  0  0  0  0
   -2.3930   -1.8365    0.7150 C   0  0  0  0  0  0  0  0  0  0  0  0
   -1.1656   -1.9958    1.6039 C   0  0  2  0  0  0  0  0  0  0  0  0
   -1.4073   -3.1019    2.5366 N   0  0  0  0  0  0  0  0  0  0  0  0
   -0.8643   -0.6757    2.3457 C   0  0  1  0  0  0  0  0  0  0  0  0
    0.2892   -0.9462    3.1567 O   0  0  0  0  0  0  0  0  0  0  0  0
    0.7772    0.1178    3.9670 C   0  0  1  0  0  0  0  0  0  0  0  0
   -0.2817    0.7036    4.7196 O   0  0  0  0  0  0  0  0  0  0  0  0
   -0.8445   -0.1048    5.7507 C   0  0  2  0  0  0  0  0  0  0  0  0
   -1.9596    0.6852    6.4486 C   0  0  0  0  0  0  0  0  0  0  0  0
   -2.5674   -0.0804    7.5276 N   0  0  0  0  0  0  0  0  0  0  0  0
    0.2295   -0.5096    6.7774 C   0  0  1  0  0  0  0  0  0  0  0  0
   -0.3406   -1.3587    7.7575 O   0  0  0  0  0  0  0  0  0  0  0  0
    1.3601   -1.2431    6.0452 C   0  0  2  0  0  0  0  0  0  0  0  0
    2.4051   -1.5517    6.9484 O   0  0  0  0  0  0  0  0  0  0  0  0
    1.8940   -0.3940    4.8837 C   0  0  1  0  0  0  0  0  0  0  0  0
    2.8859   -1.1582    4.1137 N   0  0  0  0  0  0  0  0  0  0  0  0
   -0.4048    4.0423    2.3491 C   0  0  2  0  0  0  0  0  0  0  0  0
   -1.0931    5.0348    1.6111 O   0  0  0  0  0  0  0  0  0  0  0  0
    1.0010    4.4699    2.7679 C   0  0  2  0  0  0  0  0  0  0  0  0
    1.1088    5.8457    3.0756 O   0  0  0  0  0  0  0  0  0  0  0  0
  2  1  1  0  0  0  0
  3  2  1  1  0  0  0
  3 30  1  0  0  0  0
  4  5  1  0  0  0  0
  4  3  1  0  0  0  0
  5 28  1  0  0  0  0
  5  6  1  1  0  0  0
  7  6  1  1  0  0  0
  8  7  1  0  0  0  0
  8  9  1  6  0  0  0
 10 11  1  1  0  0  0
 10  8  1  0  0  0  0
 12 10  1  0  0  0  0
 13 12  1  0  0  0  0
 13 15  1  0  0  0  0
 13 14  1  1  0  0  0
 15  7  1  0  0  0  0
 15 16  1  1  0  0  0
 17 16  1  1  0  0  0
 18 17  1  0  0  0  0
 19 20  1  1  0  0  0
 19 18  1  0  0  0  0
 20 21  1  0  0  0  0
 22 24  1  0  0  0  0
 22 19  1  0  0  0  0
 22 23  1  1  0  0  0
 24 25  1  1  0  0  0
 24 26  1  0  0  0  0
 26 17  1  0  0  0  0
 26 27  1  6  0  0  0
 28 29  1  6  0  0  0
 28 30  1  0  0  0  0
 30 31  1  6  0  0  0
M  END
>  <CHROM.1>
-79.72318706,64.22839204,-75.17875535,-68.64067480,60.11959399,-67.11400820
-174.85199957,59.79346680,49.82128005,-179.28322007,48.10705235,74.31987521
56.10489241,-165.44332451,-42.13787539,-173.50060094,-0.02239095,0.83045964
3.04642898,-1.44640976,0.90164013,2.20165185

>  <Name>
lig.pdb

>  <RI>
1.79691e+07

>  <Rbt.Current_Directory>
/home/itssahil/PROJECTS/Mol_Feturizer/New_Systems/rnas/2n0j

>  <Rbt.Executable>
rbdock ($Id: //depot/dev/client3/rdock/2013.1/src/exe/rbdock.cxx#4 $)

>  <Rbt.Library>
libRbt.so (2013.1, Build901 2013/11/27)

>  <Rbt.Parameter_File>
/export/apps/rDock/src/rDock_2013.1_src/data/scripts/dock_solv.prm

>  <Rbt.Receptor>
prm/blind_docking_20.prm

>  <SCORE>
-40.0848

>  <SCORE.INTER>
-37.941

>  <SCORE.INTER.CONST>
1

>  <SCORE.INTER.POLAR>
-4.57775

>  <SCORE.INTER.ROT>
6

>  <SCORE.INTER.SOLV>
20.4504

>  <SCORE.INTER.VDW>
-24.4516

>  <SCORE.INTER.norm>
-1.2239

>  <SCORE.INTRA>
-4.69667

>  <SCORE.INTRA.DIHEDRAL>
-20.1508

>  <SCORE.INTRA.DIHEDRAL.0>
28.0161

>  <SCORE.INTRA.POLAR>
0.349084

>  <SCORE.INTRA.POLAR.0>
-1.05798

>  <SCORE.INTRA.REPUL>
0.0356889

>  <SCORE.INTRA.REPUL.0>
0

>  <SCORE.INTRA.SOLV>
0.0278483

>  <SCORE.INTRA.SOLV.lig_0>
-42.5945

>  <SCORE.INTRA.VDW>
3.99948

>  <SCORE.INTRA.VDW.0>
-5.13869

>  <SCORE.INTRA.norm>
-0.151505

>  <SCORE.RESTR>
2.55291

>  <SCORE.RESTR.CAVITY>
2.55291

>  <SCORE.RESTR.norm>
0.0823518

>  <SCORE.SYSTEM>
0

>  <SCORE.SYSTEM.CONST>
0

>  <SCORE.SYSTEM.DIHEDRAL>
0

>  <SCORE.SYSTEM.SOLV>
0

>  <SCORE.SYSTEM.norm>
0

>  <SCORE.heavy>
31

>  <SCORE.norm>
-1.29306

>  <RMSD>
6.285

$$$$
lig.pdb
 OpenBabel11021811453D
libRbt.so/2013.1/901 2013/11/27
 31 33  0  0  0  0  0  0  0  0999 V2000
    4.8045    2.7868    1.0340 O   0  0  0  0  0  0  0  0  0  0  0  0
    3.9989    3.3073    2.0733 C   0  0  0  0  0  0  0  0  0  0  0  0
    2.6191    3.7336    1.5538 C   0  0  1  0  0  0  0  0  0  0  0  0
    1.8493    2.6208    1.1270 O   0  0  0  0  0  0  0  0  0  0  0  0
    0.4628    2.9295    1.2322 C   0  0  1  0  0  0  0  0  0  0  0  0
   -0.2212    1.8639    1.8806 O   0  0  0  0  0  0  0  0  0  0  0  0
   -0.3560    0.6486    1.1610 C   0  0  2  0  0  0  0  0  0  0  0  0
   -1.6724    0.7167    0.3708 C   0  0  1  0  0  0  0  0  0  0  0  0
   -1.5557    1.6727   -0.6712 O   0  0  0  0  0  0  0  0  0  0  0  0
   -2.0850   -0.6149   -0.2749 C   0  0  2  0  0  0  0  0  0  0  0  0
   -3.3972   -0.5001   -0.9299 N   0  0  0  0  0  0  0  0  0  0  0  0
   -2.1424   -1.7056    0.7881 C   0  0  0  0  0  0  0  0  0  0  0  0
   -0.7979   -1.8005    1.4991 C   0  0  2  0  0  0  0  0  0  0  0  0
   -0.8647   -2.8922    2.4765 N   0  0  0  0  0  0  0  0  0  0  0  0
   -0.4471   -0.4535    2.1672 C   0  0  1  0  0  0  0  0  0  0  0  0
    0.8176   -0.6638    2.8134 O   0  0  0  0  0  0  0  0  0  0  0  0
    1.3399    0.4131    3.5842 C   0  0  1  0  0  0  0  0  0  0  0  0
    0.5763    0.5978    4.7731 O   0  0  0  0  0  0  0  0  0  0  0  0
    0.6784   -0.4319    5.7543 C   0  0  2  0  0  0  0  0  0  0  0  0
   -0.2032   -0.0635    6.9550 C   0  0  0  0  0  0  0  0  0  0  0  0
   -0.6200   -1.2435    7.6990 N   0  0  0  0  0  0  0  0  0  0  0  0
    2.1378   -0.6089    6.2131 C   0  0  1  0  0  0  0  0  0  0  0  0
    2.2219   -1.6747    7.1424 O   0  0  0  0  0  0  0  0  0  0  0  0
    3.0064   -0.9159    4.9868 C   0  0  2  0  0  0  0  0  0  0  0  0
    4.3683   -0.9976    5.3633 O   0  0  0  0  0  0  0  0  0  0  0  0
    2.8166    0.1568    3.9059 C   0  0  1  0  0  0  0  0  0  0  0  0
    3.5539   -0.2154    2.6900 N   0  0  0  0  0  0  0  0  0  0  0  0
    0.3541    4.2029    2.0837 C   0  0  2  0  0  0  0  0  0  0  0  0
   -0.0350    5.2933    1.2694 O   0  0  0  0  0  0  0  0  0  0  0  0
    1.7633    4.3510    2.6552 C   0  0  2  0  0  0  0  0  0  0  0  0
    2.1129    5.6849    2.9676 O   0  0  0  0  0  0  0  0  0  0  0  0
  2  1  1  0  0  0  0
  3  2  1  1  0  0  0
  3 30  1  0  0  0  0
  4  5  1  0  0  0  0
  4  3  1  0  0  0  0
  5 28  1  0  0  0  0
  5  6  1  1  0  0  0
  7  6  1  1  0  0  0
  8  7  1  0  0  0  0
  8  9  1  6  0  0  0
 10 11  1  1  0  0  0
 10  8  1  0  0  0  0
 12 10  1  0  0  0  0
 13 12  1  0  0  0  0
 13 15  1  0  0  0  0
 13 14  1  1  0  0  0
 15  7  1  0  0  0  0
 15 16  1  6  0  0  0
 17 16  1  1  0  0  0
 18 17  1  0  0  0  0
 19 20  1  1  0  0  0
 19 18  1  0  0  0  0
 20 21  1  0  0  0  0
 22 24  1  0  0  0  0
 22 19  1  0  0  0  0
 22 23  1  1  0  0  0
 24 25  1  1  0  0  0
 24 26  1  0  0  0  0
 26 17  1  0  0  0  0
 26 27  1  6  0  0  0
 28 29  1  6  0  0  0
 28 30  1  0  0  0  0
 30 31  1  6  0  0  0
M  END
>  <CHROM.1>
-53.27583565,67.07239626,-70.06865287,-90.37092424,65.28279239,174.57241032
-65.42512512,62.91069199,70.59746763,154.98984701,-64.37475108,59.61303549
-178.81806146,33.68881355,-178.10945499,61.74148075,0.82643682,0.83927114
2.78954817,-1.92169753,0.70069557,2.39818449

>  <Name>
lig.pdb

>  <RI>
1.79691e+07

>  <Rbt.Current_Directory>
/home/itssahil/PROJECTS/Mol_Feturizer/New_Systems/rnas/2n0j

>  <Rbt.Executable>
rbdock ($Id: //depot/dev/client3/rdock/2013.1/src/exe/rbdock.cxx#4 $)

>  <Rbt.Library>
libRbt.so (2013.1, Build901 2013/11/27)

>  <Rbt.Parameter_File>
/export/apps/rDock/src/rDock_2013.1_src/data/scripts/dock_solv.prm

>  <Rbt.Receptor>
prm/blind_docking_20.prm

>  <SCORE>
-37.9919

>  <SCORE.INTER>
-32.649

>  <SCORE.INTER.CONST>
1

>  <SCORE.INTER.POLAR>
-3.86603

>  <SCORE.INTER.ROT>
6

>  <SCORE.INTER.SOLV>
23.6461

>  <SCORE.INTER.VDW>
-24.3613

>  <SCORE.INTER.norm>
-1.0532

>  <SCORE.INTRA>
-5.45396

>  <SCORE.INTRA.DIHEDRAL>
-18.7273

>  <SCORE.INTRA.DIHEDRAL.0>
28.0161

>  <SCORE.INTRA.POLAR>
0.854705

>  <SCORE.INTRA.POLAR.0>
-1.05798

>  <SCORE.INTRA.REPUL>
0.0015217

>  <SCORE.INTRA.REPUL.0>
0

>  <SCORE.INTRA.SOLV>
0.210186

>  <SCORE.INTRA.SOLV.lig_0>
-42.5945

>  <SCORE.INTRA.VDW>
0.891009

>  <SCORE.INTRA.VDW.0>
-5.13869

>  <SCORE.INTRA.norm>
-0.175934

>  <SCORE.RESTR>
0.111067

>  <SCORE.RESTR.CAVITY>
0.111067

>  <SCORE.RESTR.norm>
0.00358281

>  <SCORE.SYSTEM>
0

>  <SCORE.SYSTEM.CONST>
0

>  <SCORE.SYSTEM.DIHEDRAL>
0

>  <SCORE.SYSTEM.SOLV>
0

>  <SCORE.SYSTEM.norm>
0

>  <SCORE.heavy>
31

>  <SCORE.norm>
-1.22555

>  <RMSD>
6.290

$$$$
lig.pdb
 OpenBabel11021811453D
libRbt.so/2013.1/901 2013/11/27
 31 33  0  0  0  0  0  0  0  0999 V2000
    4.0177    5.3546    0.2328 O   0  0  0  0  0  0  0  0  0  0  0  0
    3.3139    6.2606    1.0598 C   0  0  0  0  0  0  0  0  0  0  0  0
    1.8210    5.9123    1.1304 C   0  0  1  0  0  0  0  0  0  0  0  0
    1.6094    4.5120    1.2164 O   0  0  0  0  0  0  0  0  0  0  0  0
    0.3671    4.2545    1.8638 C   0  0  1  0  0  0  0  0  0  0  0  0
    0.5434    3.2645    2.8702 O   0  0  0  0  0  0  0  0  0  0  0  0
   -0.1767    2.0516    2.7179 C   0  0  2  0  0  0  0  0  0  0  0  0
    0.1340    1.4957    1.3192 C   0  0  1  0  0  0  0  0  0  0  0  0
    1.4818    1.0546    1.2686 O   0  0  0  0  0  0  0  0  0  0  0  0
   -0.7507    0.3098    0.9057 C   0  0  2  0  0  0  0  0  0  0  0  0
   -0.4645   -0.1062   -0.4760 N   0  0  0  0  0  0  0  0  0  0  0  0
   -2.2197    0.6984    1.0245 C   0  0  0  0  0  0  0  0  0  0  0  0
   -2.5125    1.1704    2.4435 C   0  0  2  0  0  0  0  0  0  0  0  0
   -3.9417    1.4849    2.5434 N   0  0  0  0  0  0  0  0  0  0  0  0
   -1.6314    2.3878    2.7974 C   0  0  1  0  0  0  0  0  0  0  0  0
   -2.0010    2.7526    4.1360 O   0  0  0  0  0  0  0  0  0  0  0  0
   -3.2697    3.3735    4.3129 C   0  0  1  0  0  0  0  0  0  0  0  0
   -4.1915    2.4714    4.9188 O   0  0  0  0  0  0  0  0  0  0  0  0
   -3.9348    2.1265    6.2785 C   0  0  2  0  0  0  0  0  0  0  0  0
   -5.0220    1.1561    6.7589 C   0  0  0  0  0  0  0  0  0  0  0  0
   -5.0097   -0.0854    5.9984 N   0  0  0  0  0  0  0  0  0  0  0  0
   -3.9251    3.3823    7.1699 C   0  0  1  0  0  0  0  0  0  0  0  0
   -3.6106    3.0211    8.5030 O   0  0  0  0  0  0  0  0  0  0  0  0
   -2.8733    4.3606    6.6323 C   0  0  2  0  0  0  0  0  0  0  0  0
   -2.9007    5.5631    7.3782 O   0  0  0  0  0  0  0  0  0  0  0  0
   -3.1140    4.6516    5.1448 C   0  0  1  0  0  0  0  0  0  0  0  0
   -2.0284    5.4869    4.6115 N   0  0  0  0  0  0  0  0  0  0  0  0
   -0.0776    5.5732    2.5131 C   0  0  2  0  0  0  0  0  0  0  0  0
   -1.1883    6.1024    1.8133 O   0  0  0  0  0  0  0  0  0  0  0  0
    1.1730    6.4442    2.4047 C   0  0  2  0  0  0  0  0  0  0  0  0
    0.8988    7.8308    2.3679 O   0  0  0  0  0  0  0  0  0  0  0  0
  2  1  1  0  0  0  0
  3  2  1  1  0  0  0
  3 30  1  0  0  0  0
  4  5  1  0  0  0  0
  4  3  1  0  0  0  0
  5 28  1  0  0  0  0
  5  6  1  1  0  0  0
  7  6  1  6  0  0  0
  8  7  1  0  0  0  0
  8  9  1  1  0  0  0
 10 11  1  6  0  0  0
 10  8  1  0  0  0  0
 12 10  1  0  0  0  0
 13 12  1  0  0  0  0
 13 15  1  0  0  0  0
 13 14  1  6  0  0  0
 15  7  1  0  0  0  0
 15 16  1  1  0  0  0
 17 16  1  1  0  0  0
 18 17  1  0  0  0  0
 19 20  1  1  0  0  0
 19 18  1  0  0  0  0
 20 21  1  0  0  0  0
 22 24  1  0  0  0  0
 22 19  1  0  0  0  0
 22 23  1  1  0  0  0
 24 25  1  1  0  0  0
 24 26  1  0  0  0  0
 26 17  1  0  0  0  0
 26 27  1  6  0  0  0
 28 29  1  6  0  0  0
 28 30  1  0  0  0  0
 30 31  1  6  0  0  0
M  END
>  <CHROM.1>
178.98939363,40.34544868,-118.05059735,53.36931664,-179.56631942,-46.32229494
162.07952814,166.68871445,106.82756563,62.19372980,23.18509455,-171.60662686
64.07983628,-66.25109728,-66.44442557,-179.17594983,-1.26509357,3.37669225
3.34954757,-0.11434859,0.76739134,0.58555005

>  <Name>
lig.pdb

>  <RI>
2.67765e+07

>  <Rbt.Current_Directory>
/home/itssahil/PROJECTS/Mol_Feturizer/New_Systems/rnas/2n0j

>  <Rbt.Executable>
rbdock ($Id: //depot/dev/client3/rdock/2013.1/src/exe/rbdock.cxx#4 $)

>  <Rbt.Library>
libRbt.so (2013.1, Build901 2013/11/27)

>  <Rbt.Parameter_File>
/export/apps/rDock/src/rDock_2013.1_src/data/scripts/dock_solv.prm

>  <Rbt.Receptor>
prm/pocket_docking_2.prm

>  <SCORE>
-27.0938

>  <SCORE.INTER>
-27.9949

>  <SCORE.INTER.CONST>
1

>  <SCORE.INTER.POLAR>
-3.80637

>  <SCORE.INTER.ROT>
6

>  <SCORE.INTER.SOLV>
11.1006

>  <SCORE.INTER.VDW>
-17.2755

>  <SCORE.INTER.norm>
-0.90306

>  <SCORE.INTRA>
0.364923

>  <SCORE.INTRA.DIHEDRAL>
-7.50765

>  <SCORE.INTRA.DIHEDRAL.0>
28.0161

>  <SCORE.INTRA.POLAR>
-0.67595

>  <SCORE.INTRA.POLAR.0>
-1.05798

>  <SCORE.INTRA.REPUL>
0

>  <SCORE.INTRA.REPUL.0>
0

>  <SCORE.INTRA.SOLV>
1.25192

>  <SCORE.INTRA.SOLV.lig_0>
-42.5945

>  <SCORE.INTRA.VDW>
5.79102

>  <SCORE.INTRA.VDW.0>
-5.13869

>  <SCORE.INTRA.norm>
0.0117717

>  <SCORE.RESTR>
0.536164

>  <SCORE.RESTR.CAVITY>
0.536164

>  <SCORE.RESTR.norm>
0.0172956

>  <SCORE.SYSTEM>
0

>  <SCORE.SYSTEM.CONST>
0

>  <SCORE.SYSTEM.DIHEDRAL>
0

>  <SCORE.SYSTEM.SOLV>
0

>  <SCORE.SYSTEM.norm>
0

>  <SCORE.heavy>
31

>  <SCORE.norm>
-0.873993

>  <RMSD>
6.290

$$$$
lig.pdb
 OpenBabel11021811453D
libRbt.so/2013.1/901 2013/11/27
 31 33  0  0  0  0  0  0  0  0999 V2000
    4.0665    2.0234    1.8488 O   0  0  0  0  0  0  0  0  0  0  0  0
    3.8857    3.4206    1.7247 C   0  0  0  0  0  0  0  0  0  0  0  0
    2.4191    3.7736    1.4420 C   0  0  1  0  0  0  0  0  0  0  0  0
    1.6630    2.6309    1.0738 O   0  0  0  0  0  0  0  0  0  0  0  0
    0.2925    2.8378    1.4022 C   0  0  1  0  0  0  0  0  0  0  0  0
   -0.2174    1.6987    2.0851 O   0  0  0  0  0  0  0  0  0  0  0  0
   -0.3755    0.5083    1.3297 C   0  0  2  0  0  0  0  0  0  0  0  0
   -1.6385    0.6654    0.4681 C   0  0  1  0  0  0  0  0  0  0  0  0
   -1.4105    1.6355   -0.5420 O   0  0  0  0  0  0  0  0  0  0  0  0
   -2.0839   -0.6274   -0.2321 C   0  0  2  0  0  0  0  0  0  0  0  0
   -3.3480   -0.4267   -0.9573 N   0  0  0  0  0  0  0  0  0  0  0  0
   -2.2612   -1.7357    0.7991 C   0  0  0  0  0  0  0  0  0  0  0  0
   -0.9671   -1.9194    1.5825 C   0  0  2  0  0  0  0  0  0  0  0  0
   -1.1489   -3.0263    2.5277 N   0  0  0  0  0  0  0  0  0  0  0  0
   -0.5837   -0.6083    2.3019 C   0  0  1  0  0  0  0  0  0  0  0  0
    0.6285   -0.9015    3.0134 O   0  0  0  0  0  0  0  0  0  0  0  0
    1.2077    0.1546    3.7722 C   0  0  1  0  0  0  0  0  0  0  0  0
    0.5756    0.2655    5.0445 O   0  0  0  0  0  0  0  0  0  0  0  0
    0.8087   -0.8032    5.9595 C   0  0  2  0  0  0  0  0  0  0  0  0
    0.0565   -0.5127    7.2650 C   0  0  0  0  0  0  0  0  0  0  0  0
   -1.3755   -0.7334    7.1219 N   0  0  0  0  0  0  0  0  0  0  0  0
    2.3134   -0.9594    6.2478 C   0  0  1  0  0  0  0  0  0  0  0  0
    2.5237   -2.0623    7.1115 O   0  0  0  0  0  0  0  0  0  0  0  0
    3.0485   -1.1878    4.9212 C   0  0  2  0  0  0  0  0  0  0  0  0
    4.4451   -1.2480    5.1427 O   0  0  0  0  0  0  0  0  0  0  0  0
    2.7162   -0.0743    3.9187 C   0  0  1  0  0  0  0  0  0  0  0  0
    3.3235   -0.3720    2.6137 N   0  0  0  0  0  0  0  0  0  0  0  0
    0.2372    4.0602    2.3300 C   0  0  2  0  0  0  0  0  0  0  0  0
   -0.3382    5.1572    1.6452 O   0  0  0  0  0  0  0  0  0  0  0  0
    1.7054    4.2791    2.6918 C   0  0  2  0  0  0  0  0  0  0  0  0
    2.0160    5.6183    3.0222 O   0  0  0  0  0  0  0  0  0  0  0  0
  2  1  1  0  0  0  0
  3  2  1  1  0  0  0
  3 30  1  0  0  0  0
  4  5  1  0  0  0  0
  4  3  1  0  0  0  0
  5 28  1  0  0  0  0
  5  6  1  1  0  0  0
  7  6  1  1  0  0  0
  8  7  1  0  0  0  0
  8  9  1  6  0  0  0
 10 11  1  1  0  0  0
 10  8  1  0  0  0  0
 12 10  1  0  0  0  0
 13 12  1  0  0  0  0
 13 15  1  0  0  0  0
 13 14  1  1  0  0  0
 15  7  1  0  0  0  0
 15 16  1  6  0  0  0
 17 16  1  1  0  0  0
 18 17  1  0  0  0  0
 19 20  1  1  0  0  0
 19 18  1  0  0  0  0
 20 21  1  0  0  0  0
 22 24  1  0  0  0  0
 22 19  1  0  0  0  0
 22 23  1  1  0  0  0
 24 25  1  1  0  0  0
 24 26  1  0  0  0  0
 26 17  1  0  0  0  0
 26 27  1  6  0  0  0
 28 29  1  6  0  0  0
 28 30  1  0  0  0  0
 30 31  1  6  0  0  0
M  END
>  <CHROM.1>
-175.27625734,-13.36542250,-69.57344809,-76.68556914,64.17118258,178.99237075
-59.42714463,59.09265800,82.47639246,74.83335564,67.66456691,40.28868048
-61.65654373,173.44940935,65.00718859,65.65038965,0.72348789,0.69264720,2.86541306
-1.99181845,0.69830852,2.47311394

>  <Name>
lig.pdb

>  <RI>
1.79691e+07

>  <Rbt.Current_Directory>
/home/itssahil/PROJECTS/Mol_Feturizer/New_Systems/rnas/2n0j

>  <Rbt.Executable>
rbdock ($Id: //depot/dev/client3/rdock/2013.1/src/exe/rbdock.cxx#4 $)

>  <Rbt.Library>
libRbt.so (2013.1, Build901 2013/11/27)

>  <Rbt.Parameter_File>
/export/apps/rDock/src/rDock_2013.1_src/data/scripts/dock_solv.prm

>  <Rbt.Receptor>
prm/blind_docking_20.prm

>  <SCORE>
-38.8506

>  <SCORE.INTER>
-35.6729

>  <SCORE.INTER.CONST>
1

>  <SCORE.INTER.POLAR>
-3.57152

>  <SCORE.INTER.ROT>
6

>  <SCORE.INTER.SOLV>
23.3379

>  <SCORE.INTER.VDW>
-27.2562

>  <SCORE.INTER.norm>
-1.15074

>  <SCORE.INTRA>
-3.51416

>  <SCORE.INTRA.DIHEDRAL>
-15.8485

>  <SCORE.INTRA.DIHEDRAL.0>
28.0161

>  <SCORE.INTRA.POLAR>
0.581694

>  <SCORE.INTRA.POLAR.0>
-1.05798

>  <SCORE.INTRA.REPUL>
0

>  <SCORE.INTRA.REPUL.0>
0

>  <SCORE.INTRA.SOLV>
0.837386

>  <SCORE.INTRA.SOLV.lig_0>
-42.5945

>  <SCORE.INTRA.VDW>
2.01365

>  <SCORE.INTRA.VDW.0>
-5.13869

>  <SCORE.INTRA.norm>
-0.11336

>  <SCORE.RESTR>
0.336547

>  <SCORE.RESTR.CAVITY>
0.336547

>  <SCORE.RESTR.norm>
0.0108564

>  <SCORE.SYSTEM>
0

>  <SCORE.SYSTEM.CONST>
0

>  <SCORE.SYSTEM.DIHEDRAL>
0

>  <SCORE.SYSTEM.SOLV>
0

>  <SCORE.SYSTEM.norm>
0

>  <SCORE.heavy>
31

>  <SCORE.norm>
-1.25324

>  <RMSD>
6.291

$$$$
lig.pdb
 OpenBabel11021811453D
libRbt.so/2013.1/901 2013/11/27
 31 33  0  0  0  0  0  0  0  0999 V2000
    1.1213    6.8543    2.3214 O   0  0  0  0  0  0  0  0  0  0  0  0
    1.0951    5.7962    3.2594 C   0  0  0  0  0  0  0  0  0  0  0  0
    1.6090    4.4877    2.6438 C   0  0  1  0  0  0  0  0  0  0  0  0
    0.9463    3.3550    3.1830 O   0  0  0  0  0  0  0  0  0  0  0  0
    0.9740    2.2896    2.2381 C   0  0  1  0  0  0  0  0  0  0  0  0
   -0.3245    1.7220    2.1125 O   0  0  0  0  0  0  0  0  0  0  0  0
   -0.4411    0.5377    1.3401 C   0  0  2  0  0  0  0  0  0  0  0  0
   -1.7068    0.6648    0.4775 C   0  0  1  0  0  0  0  0  0  0  0  0
   -1.5091    1.6560   -0.5184 O   0  0  0  0  0  0  0  0  0  0  0  0
   -2.1074   -0.6322   -0.2418 C   0  0  2  0  0  0  0  0  0  0  0  0
   -3.3759   -0.4636   -0.9675 N   0  0  0  0  0  0  0  0  0  0  0  0
   -2.2499   -1.7601    0.7733 C   0  0  0  0  0  0  0  0  0  0  0  0
   -0.9521   -1.9117    1.5574 C   0  0  2  0  0  0  0  0  0  0  0  0
   -1.0989   -3.0372    2.4866 N   0  0  0  0  0  0  0  0  0  0  0  0
   -0.6142   -0.5987    2.2961 C   0  0  1  0  0  0  0  0  0  0  0  0
    0.6056   -0.8614    3.0066 O   0  0  0  0  0  0  0  0  0  0  0  0
    0.9987    0.0858    3.9940 C   0  0  1  0  0  0  0  0  0  0  0  0
   -0.1289    0.5273    4.7451 O   0  0  0  0  0  0  0  0  0  0  0  0
   -0.7295   -0.4375    5.6066 C   0  0  2  0  0  0  0  0  0  0  0  0
   -1.9171    0.2123    6.3290 C   0  0  0  0  0  0  0  0  0  0  0  0
   -2.8603    0.8032    5.3904 N   0  0  0  0  0  0  0  0  0  0  0  0
    0.2875   -0.9588    6.6388 C   0  0  1  0  0  0  0  0  0  0  0  0
   -0.3153   -1.9566    7.4436 O   0  0  0  0  0  0  0  0  0  0  0  0
    1.4908   -1.5474    5.8917 C   0  0  2  0  0  0  0  0  0  0  0  0
    2.4836   -1.9563    6.8138 O   0  0  0  0  0  0  0  0  0  0  0  0
    2.0697   -0.5241    4.9053 C   0  0  1  0  0  0  0  0  0  0  0  0
    3.1384   -1.1412    4.1067 N   0  0  0  0  0  0  0  0  0  0  0  0
    1.4006    2.8980    0.8942 C   0  0  2  0  0  0  0  0  0  0  0  0
    2.7127    2.4766    0.5712 O   0  0  0  0  0  0  0  0  0  0  0  0
    1.2973    4.4003    1.1531 C   0  0  2  0  0  0  0  0  0  0  0  0
    2.1589    5.1772    0.3449 O   0  0  0  0  0  0  0  0  0  0  0  0
  2  1  1  0  0  0  0
  3  2  1  1  0  0  0
  3 30  1  0  0  0  0
  4  5  1  0  0  0  0
  4  3  1  0  0  0  0
  5 28  1  0  0  0  0
  5  6  1  6  0  0  0
  7  6  1  1  0  0  0
  8  7  1  0  0  0  0
  8  9  1  6  0  0  0
 10 11  1  1  0  0  0
 10  8  1  0  0  0  0
 12 10  1  0  0  0  0
 13 12  1  0  0  0  0
 13 15  1  0  0  0  0
 13 14  1  1  0  0  0
 15  7  1  0  0  0  0
 15 16  1  6  0  0  0
 17 16  1  6  0  0  0
 18 17  1  0  0  0  0
 19 20  1  1  0  0  0
 19 18  1  0  0  0  0
 20 21  1  0  0  0  0
 22 24  1  0  0  0  0
 22 19  1  0  0  0  0
 22 23  1  6  0  0  0
 24 25  1  1  0  0  0
 24 26  1  0  0  0  0
 26 17  1  0  0  0  0
 26 27  1  6  0  0  0
 28 29  1  1  0  0  0
 28 30  1  0  0  0  0
 30 31  1  6  0  0  0
M  END
>  <CHROM.1>
69.78277236,-146.69448203,-172.12715752,-137.94186228,-177.98234037,66.37866135
-62.44073996,71.98494203,40.91506068,54.46027244,173.72715494,60.18243599
74.23140838,-48.81417079,-53.89686509,-58.67219587,0.13139213,0.85330943
2.92672495,-1.35435117,0.93024510,2.34816067

>  <Name>
lig.pdb

>  <RI>
9.20816e+06

>  <Rbt.Current_Directory>
/home/itssahil/PROJECTS/Mol_Feturizer/New_Systems/rnas/2n0j

>  <Rbt.Executable>
rbdock ($Id: //depot/dev/client3/rdock/2013.1/src/exe/rbdock.cxx#4 $)

>  <Rbt.Library>
libRbt.so (2013.1, Build901 2013/11/27)

>  <Rbt.Parameter_File>
/export/apps/rDock/src/rDock_2013.1_src/data/scripts/dock_solv.prm

>  <Rbt.Receptor>
prm/blind_docking_100.prm

>  <SCORE>
-19.9312

>  <SCORE.INTER>
-23.5034

>  <SCORE.INTER.CONST>
1

>  <SCORE.INTER.POLAR>
-3.20834

>  <SCORE.INTER.ROT>
6

>  <SCORE.INTER.SOLV>
21.1011

>  <SCORE.INTER.VDW>
-19.6082

>  <SCORE.INTER.norm>
-0.758173

>  <SCORE.INTRA>
-0.2767

>  <SCORE.INTRA.DIHEDRAL>
-13.97

>  <SCORE.INTRA.DIHEDRAL.0>
28.0161

>  <SCORE.INTRA.POLAR>
0.807294

>  <SCORE.INTRA.POLAR.0>
-1.05798

>  <SCORE.INTRA.REPUL>
0.0899244

>  <SCORE.INTRA.REPUL.0>
0

>  <SCORE.INTRA.SOLV>
0.245374

>  <SCORE.INTRA.SOLV.lig_0>
-42.5945

>  <SCORE.INTRA.VDW>
3.3912

>  <SCORE.INTRA.VDW.0>
-5.13869

>  <SCORE.INTRA.norm>
-0.00892582

>  <SCORE.RESTR>
3.84886

>  <SCORE.RESTR.CAVITY>
3.84886

>  <SCORE.RESTR.norm>
0.124157

>  <SCORE.SYSTEM>
0

>  <SCORE.SYSTEM.CONST>
0

>  <SCORE.SYSTEM.DIHEDRAL>
0

>  <SCORE.SYSTEM.SOLV>
0

>  <SCORE.SYSTEM.norm>
0

>  <SCORE.heavy>
31

>  <SCORE.norm>
-0.642942

>  <RMSD>
6.293

$$$$
lig.pdb
 OpenBabel11021811453D
libRbt.so/2013.1/901 2013/11/27
 31 33  0  0  0  0  0  0  0  0999 V2000
   -4.9603    4.1529    5.1547 O   0  0  0  0  0  0  0  0  0  0  0  0
   -3.7688    4.5532    5.8030 C   0  0  0  0  0  0  0  0  0  0  0  0
   -2.6073    4.6878    4.8090 C   0  0  1  0  0  0  0  0  0  0  0  0
   -2.0850    3.4232    4.4335 O   0  0  0  0  0  0  0  0  0  0  0  0
   -1.4851    3.5167    3.1450 C   0  0  1  0  0  0  0  0  0  0  0  0
   -1.9292    2.4410    2.3267 O   0  0  0  0  0  0  0  0  0  0  0  0
   -1.9639    1.1510    2.9161 C   0  0  2  0  0  0  0  0  0  0  0  0
   -0.5119    0.6852    3.1078 C   0  0  1  0  0  0  0  0  0  0  0  0
    0.1099    1.4623    4.1193 O   0  0  0  0  0  0  0  0  0  0  0  0
   -0.3758   -0.7895    3.5160 C   0  0  2  0  0  0  0  0  0  0  0  0
    1.0381   -1.1898    3.5863 N   0  0  0  0  0  0  0  0  0  0  0  0
   -1.1031   -1.6712    2.5077 C   0  0  0  0  0  0  0  0  0  0  0  0
   -2.5587   -1.2338    2.3996 C   0  0  2  0  0  0  0  0  0  0  0  0
   -3.2461   -2.1322    1.4657 N   0  0  0  0  0  0  0  0  0  0  0  0
   -2.6448    0.2395    1.9460 C   0  0  1  0  0  0  0  0  0  0  0  0
   -4.0476    0.5341    1.8635 O   0  0  0  0  0  0  0  0  0  0  0  0
   -4.5185    1.1173    0.6532 C   0  0  1  0  0  0  0  0  0  0  0  0
   -4.3743    0.2069   -0.4335 O   0  0  0  0  0  0  0  0  0  0  0  0
   -5.2198   -0.9412   -0.4105 C   0  0  2  0  0  0  0  0  0  0  0  0
   -4.9277   -1.7984   -1.6493 C   0  0  0  0  0  0  0  0  0  0  0  0
   -4.5451   -0.9809   -2.7916 N   0  0  0  0  0  0  0  0  0  0  0  0
   -6.7036   -0.5290   -0.3991 C   0  0  1  0  0  0  0  0  0  0  0  0
   -7.5208   -1.6831   -0.3170 O   0  0  0  0  0  0  0  0  0  0  0  0
   -6.9547    0.3757    0.8138 C   0  0  2  0  0  0  0  0  0  0  0  0
   -8.2905    0.8431    0.8041 O   0  0  0  0  0  0  0  0  0  0  0  0
   -5.9771    1.5586    0.8193 C   0  0  1  0  0  0  0  0  0  0  0  0
   -6.1427    2.3450    2.0500 N   0  0  0  0  0  0  0  0  0  0  0  0
   -1.9452    4.8491    2.5359 C   0  0  2  0  0  0  0  0  0  0  0  0
   -0.8606    5.7576    2.4932 O   0  0  0  0  0  0  0  0  0  0  0  0
   -3.0614    5.2882    3.4824 C   0  0  2  0  0  0  0  0  0  0  0  0
   -3.2514    6.6886    3.5266 O   0  0  0  0  0  0  0  0  0  0  0  0
  2  1  1  0  0  0  0
  3  2  1  1  0  0  0
  3 30  1  0  0  0  0
  4  5  1  0  0  0  0
  4  3  1  0  0  0  0
  5 28  1  0  0  0  0
  5  6  1  6  0  0  0
  7  6  1  6  0  0  0
  8  7  1  0  0  0  0
  8  9  1  1  0  0  0
 10 11  1  6  0  0  0
 10  8  1  0  0  0  0
 12 10  1  0  0  0  0
 13 12  1  0  0  0  0
 13 15  1  0  0  0  0
 13 14  1  6  0  0  0
 15  7  1  0  0  0  0
 15 16  1  1  0  0  0
 17 16  1  1  0  0  0
 18 17  1  0  0  0  0
 19 20  1  6  0  0  0
 19 18  1  0  0  0  0
 20 21  1  0  0  0  0
 22 24  1  0  0  0  0
 22 19  1  0  0  0  0
 22 23  1  1  0  0  0
 24 25  1  6  0  0  0
 24 26  1  0  0  0  0
 26 17  1  0  0  0  0
 26 27  1  1  0  0  0
 28 29  1  1  0  0  0
 28 30  1  0  0  0  0
 30 31  1  1  0  0  0
M  END
>  <CHROM.1>
-77.43535611,-76.65676916,-44.15955832,-70.97380812,-166.79474950,-171.32015847
169.19080432,110.39032721,65.35614712,-32.62839197,152.11563173,-173.91427837
68.41686493,-178.37344816,63.31459710,-61.44109762,-3.45340905,1.39729157
2.06599068,0.99357162,-0.40856171,0.46593066

>  <Name>
lig.pdb

>  <RI>
0

>  <Rbt.Current_Directory>
/home/itssahil/PROJECTS/Mol_Feturizer/New_Systems/rnas/2n0j

>  <Rbt.Executable>
rbdock ($Id: //depot/dev/client3/rdock/2013.1/src/exe/rbdock.cxx#4 $)

>  <Rbt.Library>
libRbt.so (2013.1, Build901 2013/11/27)

>  <Rbt.Parameter_File>
/export/apps/rDock/src/rDock_2013.1_src/data/scripts/dock_solv.prm

>  <Rbt.Receptor>
prm/pocket_docking_8.prm

>  <SCORE>
-25.9629

>  <SCORE.INTER>
-25.774

>  <SCORE.INTER.CONST>
1

>  <SCORE.INTER.POLAR>
-3.67613

>  <SCORE.INTER.ROT>
6

>  <SCORE.INTER.SOLV>
16.2095

>  <SCORE.INTER.VDW>
-17.9321

>  <SCORE.INTER.norm>
-0.831418

>  <SCORE.INTRA>
-0.188984

>  <SCORE.INTRA.DIHEDRAL>
-10.9155

>  <SCORE.INTRA.DIHEDRAL.0>
28.0161

>  <SCORE.INTRA.POLAR>
0.812274

>  <SCORE.INTRA.POLAR.0>
-1.05798

>  <SCORE.INTRA.REPUL>
0

>  <SCORE.INTRA.REPUL.0>
0

>  <SCORE.INTRA.SOLV>
0.852523

>  <SCORE.INTRA.SOLV.lig_0>
-42.5945

>  <SCORE.INTRA.VDW>
2.08079

>  <SCORE.INTRA.VDW.0>
-5.13869

>  <SCORE.INTRA.norm>
-0.00609625

>  <SCORE.RESTR>
0

>  <SCORE.RESTR.CAVITY>
0

>  <SCORE.RESTR.norm>
0

>  <SCORE.SYSTEM>
0

>  <SCORE.SYSTEM.CONST>
0

>  <SCORE.SYSTEM.DIHEDRAL>
0

>  <SCORE.SYSTEM.SOLV>
0

>  <SCORE.SYSTEM.norm>
0

>  <SCORE.heavy>
31

>  <SCORE.norm>
-0.837514

>  <RMSD>
6.297

$$$$
lig.pdb
 OpenBabel11021811453D
libRbt.so/2013.1/901 2013/11/27
 31 33  0  0  0  0  0  0  0  0999 V2000
    4.5390    2.6408    0.9720 O   0  0  0  0  0  0  0  0  0  0  0  0
    3.8227    3.2520    2.0272 C   0  0  0  0  0  0  0  0  0  0  0  0
    2.4050    3.6444    1.5896 C   0  0  1  0  0  0  0  0  0  0  0  0
    1.6540    2.5187    1.1632 O   0  0  0  0  0  0  0  0  0  0  0  0
    0.2645    2.7735    1.3454 C   0  0  1  0  0  0  0  0  0  0  0  0
   -0.3493    1.6636    1.9898 O   0  0  0  0  0  0  0  0  0  0  0  0
   -0.4935    0.4735    1.2311 C   0  0  2  0  0  0  0  0  0  0  0  0
   -1.7427    0.6296    0.3493 C   0  0  1  0  0  0  0  0  0  0  0  0
   -1.4996    1.6007   -0.6563 O   0  0  0  0  0  0  0  0  0  0  0  0
   -2.1751   -0.6634   -0.3588 C   0  0  2  0  0  0  0  0  0  0  0  0
   -3.4275   -0.4638   -1.1043 N   0  0  0  0  0  0  0  0  0  0  0  0
   -2.3675   -1.7726    0.6686 C   0  0  0  0  0  0  0  0  0  0  0  0
   -1.0860   -1.9551    1.4727 C   0  0  2  0  0  0  0  0  0  0  0  0
   -1.2816   -3.0630    2.4141 N   0  0  0  0  0  0  0  0  0  0  0  0
   -0.7160   -0.6440    2.1991 C   0  0  1  0  0  0  0  0  0  0  0  0
    0.4849   -0.9362    2.9299 O   0  0  0  0  0  0  0  0  0  0  0  0
    0.9813    0.0790    3.7957 C   0  0  1  0  0  0  0  0  0  0  0  0
    0.3492    0.0064    5.0708 O   0  0  0  0  0  0  0  0  0  0  0  0
    0.6725   -1.1288    5.8709 C   0  0  2  0  0  0  0  0  0  0  0  0
   -0.0936   -1.0364    7.1972 C   0  0  0  0  0  0  0  0  0  0  0  0
    0.0482    0.2764    7.8105 N   0  0  0  0  0  0  0  0  0  0  0  0
    2.1864   -1.1923    6.1459 C   0  0  1  0  0  0  0  0  0  0  0  0
    2.4895   -2.3580    6.8914 O   0  0  0  0  0  0  0  0  0  0  0  0
    2.9304   -1.2222    4.8049 C   0  0  2  0  0  0  0  0  0  0  0  0
    4.3284   -1.1923    5.0232 O   0  0  0  0  0  0  0  0  0  0  0  0
    2.5042   -0.0415    3.9222 C   0  0  1  0  0  0  0  0  0  0  0  0
    3.1264   -0.1527    2.5951 N   0  0  0  0  0  0  0  0  0  0  0  0
    0.1540    4.0142    2.2436 C   0  0  2  0  0  0  0  0  0  0  0  0
   -0.3123    5.1153    1.4863 O   0  0  0  0  0  0  0  0  0  0  0  0
    1.5838    4.1949    2.7512 C   0  0  2  0  0  0  0  0  0  0  0  0
    1.9021    5.5299    3.0912 O   0  0  0  0  0  0  0  0  0  0  0  0
  2  1  1  0  0  0  0
  3  2  1  1  0  0  0
  3 30  1  0  0  0  0
  4  5  1  0  0  0  0
  4  3  1  0  0  0  0
  5 28  1  0  0  0  0
  5  6  1  1  0  0  0
  7  6  1  1  0  0  0
  8  7  1  0  0  0  0
  8  9  1  6  0  0  0
 10 11  1  1  0  0  0
 10  8  1  0  0  0  0
 12 10  1  0  0  0  0
 13 12  1  0  0  0  0
 13 15  1  0  0  0  0
 13 14  1  1  0  0  0
 15  7  1  0  0  0  0
 15 16  1  6  0  0  0
 17 16  1  6  0  0  0
 18 17  1  0  0  0  0
 19 20  1  1  0  0  0
 19 18  1  0  0  0  0
 20 21  1  0  0  0  0
 22 24  1  0  0  0  0
 22 19  1  0  0  0  0
 22 23  1  6  0  0  0
 24 25  1  1  0  0  0
 24 26  1  0  0  0  0
 26 17  1  0  0  0  0
 26 27  1  6  0  0  0
 28 29  1  6  0  0  0
 28 30  1  0  0  0  0
 30 31  1  6  0  0  0
M  END
>  <CHROM.1>
73.39611026,59.77462217,-70.89035788,-81.36829305,67.42333344,60.26396744
64.36241517,64.79130451,85.43439503,-48.78123794,-53.65869076,165.78121114
74.48658519,45.45180866,-29.24800348,65.39421837,0.69967823,0.67558033,2.80485995
-2.05768173,0.73703811,2.45990269

>  <Name>
lig.pdb

>  <RI>
1.79691e+07

>  <Rbt.Current_Directory>
/home/itssahil/PROJECTS/Mol_Feturizer/New_Systems/rnas/2n0j

>  <Rbt.Executable>
rbdock ($Id: //depot/dev/client3/rdock/2013.1/src/exe/rbdock.cxx#4 $)

>  <Rbt.Library>
libRbt.so (2013.1, Build901 2013/11/27)

>  <Rbt.Parameter_File>
/export/apps/rDock/src/rDock_2013.1_src/data/scripts/dock_solv.prm

>  <Rbt.Receptor>
prm/blind_docking_20.prm

>  <SCORE>
-39.3528

>  <SCORE.INTER>
-36.9534

>  <SCORE.INTER.CONST>
1

>  <SCORE.INTER.POLAR>
-4.14443

>  <SCORE.INTER.ROT>
6

>  <SCORE.INTER.SOLV>
23.269

>  <SCORE.INTER.VDW>
-26.1772

>  <SCORE.INTER.norm>
-1.19205

>  <SCORE.INTRA>
-2.72724

>  <SCORE.INTRA.DIHEDRAL>
-14.2835

>  <SCORE.INTRA.DIHEDRAL.0>
28.0161

>  <SCORE.INTRA.POLAR>
0.74475

>  <SCORE.INTRA.POLAR.0>
-1.05798

>  <SCORE.INTRA.REPUL>
0

>  <SCORE.INTRA.REPUL.0>
0

>  <SCORE.INTRA.SOLV>
0.421699

>  <SCORE.INTRA.SOLV.lig_0>
-42.5945

>  <SCORE.INTRA.VDW>
1.6715

>  <SCORE.INTRA.VDW.0>
-5.13869

>  <SCORE.INTRA.norm>
-0.0879754

>  <SCORE.RESTR>
0.32782

>  <SCORE.RESTR.CAVITY>
0.32782

>  <SCORE.RESTR.norm>
0.0105749

>  <SCORE.SYSTEM>
0

>  <SCORE.SYSTEM.CONST>
0

>  <SCORE.SYSTEM.DIHEDRAL>
0

>  <SCORE.SYSTEM.SOLV>
0

>  <SCORE.SYSTEM.norm>
0

>  <SCORE.heavy>
31

>  <SCORE.norm>
-1.26945

>  <RMSD>
6.298

$$$$
lig.pdb
 OpenBabel11021811453D
libRbt.so/2013.1/901 2013/11/27
 31 33  0  0  0  0  0  0  0  0999 V2000
    5.2489    3.9417    1.7282 O   0  0  0  0  0  0  0  0  0  0  0  0
    4.2258    2.9655    1.7463 C   0  0  0  0  0  0  0  0  0  0  0  0
    2.8674    3.5692    1.3648 C   0  0  1  0  0  0  0  0  0  0  0  0
    1.9428    2.5729    0.9579 O   0  0  0  0  0  0  0  0  0  0  0  0
    0.6140    3.0283    1.1938 C   0  0  1  0  0  0  0  0  0  0  0  0
   -0.1344    2.0131    1.8520 O   0  0  0  0  0  0  0  0  0  0  0  0
   -0.3232    0.7926    1.1536 C   0  0  2  0  0  0  0  0  0  0  0  0
   -1.7478    0.7994    0.5769 C   0  0  1  0  0  0  0  0  0  0  0  0
   -1.8376    1.7595   -0.4641 O   0  0  0  0  0  0  0  0  0  0  0  0
   -2.1940   -0.5500   -0.0062 C   0  0  2  0  0  0  0  0  0  0  0  0
   -3.5956   -0.4963   -0.4498 N   0  0  0  0  0  0  0  0  0  0  0  0
   -2.0362   -1.6419    1.0454 C   0  0  0  0  0  0  0  0  0  0  0  0
   -0.5950   -1.6742    1.5393 C   0  0  2  0  0  0  0  0  0  0  0  0
   -0.4598   -2.7675    2.5079 N   0  0  0  0  0  0  0  0  0  0  0  0
   -0.2071   -0.3122    2.1543 C   0  0  1  0  0  0  0  0  0  0  0  0
    1.1507   -0.4635    2.5958 O   0  0  0  0  0  0  0  0  0  0  0  0
    1.6591    0.5267    3.4834 C   0  0  1  0  0  0  0  0  0  0  0  0
    0.7790    0.7111    4.5889 O   0  0  0  0  0  0  0  0  0  0  0  0
    0.6901   -0.3726    5.5115 C   0  0  2  0  0  0  0  0  0  0  0  0
   -0.2945    0.0036    6.6267 C   0  0  0  0  0  0  0  0  0  0  0  0
   -1.2970    0.9519    6.1624 N   0  0  0  0  0  0  0  0  0  0  0  0
    2.0694   -0.6902    6.1183 C   0  0  1  0  0  0  0  0  0  0  0  0
    1.9661   -1.8057    6.9853 O   0  0  0  0  0  0  0  0  0  0  0  0
    3.0488   -1.0029    4.9801 C   0  0  2  0  0  0  0  0  0  0  0  0
    4.3481   -1.2136    5.5000 O   0  0  0  0  0  0  0  0  0  0  0  0
    3.0654    0.1358    3.9513 C   0  0  1  0  0  0  0  0  0  0  0  0
    3.9087   -0.2318    2.8048 N   0  0  0  0  0  0  0  0  0  0  0  0
    0.7210    4.2597    2.1051 C   0  0  2  0  0  0  0  0  0  0  0  0
    0.3966    5.4276    1.3742 O   0  0  0  0  0  0  0  0  0  0  0  0
    2.1789    4.2199    2.5604 C   0  0  2  0  0  0  0  0  0  0  0  0
    2.7039    5.4885    2.8986 O   0  0  0  0  0  0  0  0  0  0  0  0
  2  1  1  0  0  0  0
  3  2  1  1  0  0  0
  3 30  1  0  0  0  0
  4  5  1  0  0  0  0
  4  3  1  0  0  0  0
  5 28  1  0  0  0  0
  5  6  1  1  0  0  0
  7  6  1  1  0  0  0
  8  7  1  0  0  0  0
  8  9  1  6  0  0  0
 10 11  1  1  0  0  0
 10  8  1  0  0  0  0
 12 10  1  0  0  0  0
 13 12  1  0  0  0  0
 13 15  1  0  0  0  0
 13 14  1  1  0  0  0
 15  7  1  0  0  0  0
 15 16  1  6  0  0  0
 17 16  1  6  0  0  0
 18 17  1  0  0  0  0
 19 20  1  1  0  0  0
 19 18  1  0  0  0  0
 20 21  1  0  0  0  0
 22 24  1  0  0  0  0
 22 19  1  0  0  0  0
 22 23  1  1  0  0  0
 24 25  1  1  0  0  0
 24 26  1  0  0  0  0
 26 17  1  0  0  0  0
 26 27  1  6  0  0  0
 28 29  1  6  0  0  0
 28 30  1  0  0  0  0
 30 31  1  6  0  0  0
M  END
>  <CHROM.1>
-171.48248853,160.91482577,-62.45506807,-101.71034507,57.57084527,-170.73418955
58.39208200,73.80511646,51.33156139,27.72403881,-21.45291416,62.95199437
151.97332606,32.64764679,-131.98809271,-72.40019843,0.95187574,0.97668820
2.75250756,-1.32266599,0.60645616,2.45925875

>  <Name>
lig.pdb

>  <RI>
1.55206e+07

>  <Rbt.Current_Directory>
/home/itssahil/PROJECTS/Mol_Feturizer/New_Systems/rnas/2n0j

>  <Rbt.Executable>
rbdock ($Id: //depot/dev/client3/rdock/2013.1/src/exe/rbdock.cxx#4 $)

>  <Rbt.Library>
libRbt.so (2013.1, Build901 2013/11/27)

>  <Rbt.Parameter_File>
/export/apps/rDock/src/rDock_2013.1_src/data/scripts/dock_solv.prm

>  <Rbt.Receptor>
prm/blind_docking_80.prm

>  <SCORE>
-18.9099

>  <SCORE.INTER>
-22.5263

>  <SCORE.INTER.CONST>
1

>  <SCORE.INTER.POLAR>
-3.47172

>  <SCORE.INTER.ROT>
6

>  <SCORE.INTER.SOLV>
22.3828

>  <SCORE.INTER.VDW>
-18.5061

>  <SCORE.INTER.norm>
-0.726655

>  <SCORE.INTRA>
1.58921

>  <SCORE.INTRA.DIHEDRAL>
-1.54903

>  <SCORE.INTRA.DIHEDRAL.0>
28.0161

>  <SCORE.INTRA.POLAR>
0.493881

>  <SCORE.INTRA.POLAR.0>
-1.05798

>  <SCORE.INTRA.REPUL>
0

>  <SCORE.INTRA.REPUL.0>
0

>  <SCORE.INTRA.SOLV>
-0.221874

>  <SCORE.INTRA.SOLV.lig_0>
-42.5945

>  <SCORE.INTRA.VDW>
0.795465

>  <SCORE.INTRA.VDW.0>
-5.13869

>  <SCORE.INTRA.norm>
0.0512649

>  <SCORE.RESTR>
2.0272

>  <SCORE.RESTR.CAVITY>
2.0272

>  <SCORE.RESTR.norm>
0.0653935

>  <SCORE.SYSTEM>
0

>  <SCORE.SYSTEM.CONST>
0

>  <SCORE.SYSTEM.DIHEDRAL>
0

>  <SCORE.SYSTEM.SOLV>
0

>  <SCORE.SYSTEM.norm>
0

>  <SCORE.heavy>
31

>  <SCORE.norm>
-0.609997

>  <RMSD>
6.299

$$$$
lig.pdb
 OpenBabel11021811453D
libRbt.so/2013.1/901 2013/11/27
 31 33  0  0  0  0  0  0  0  0999 V2000
    1.2495    2.0925   -0.4479 O   0  0  0  0  0  0  0  0  0  0  0  0
    0.3962    1.0522   -0.0123 C   0  0  0  0  0  0  0  0  0  0  0  0
    0.4138    0.9149    1.5161 C   0  0  1  0  0  0  0  0  0  0  0  0
    1.4129    1.7303    2.1076 O   0  0  0  0  0  0  0  0  0  0  0  0
    1.0377    2.0540    3.4430 C   0  0  1  0  0  0  0  0  0  0  0  0
    1.2037    3.4492    3.6662 O   0  0  0  0  0  0  0  0  0  0  0  0
    1.1681    4.2955    2.5281 C   0  0  2  0  0  0  0  0  0  0  0  0
    2.6132    4.4834    2.0397 C   0  0  1  0  0  0  0  0  0  0  0  0
    3.0959    3.2654    1.4948 O   0  0  0  0  0  0  0  0  0  0  0  0
    2.7736    5.5631    0.9586 C   0  0  2  0  0  0  0  0  0  0  0  0
    4.1899    5.7554    0.6103 N   0  0  0  0  0  0  0  0  0  0  0  0
    2.1904    6.8801    1.4569 C   0  0  0  0  0  0  0  0  0  0  0  0
    0.7347    6.6771    1.8590 C   0  0  2  0  0  0  0  0  0  0  0  0
    0.1844    7.9695    2.2816 N   0  0  0  0  0  0  0  0  0  0  0  0
    0.6286    5.6161    2.9756 C   0  0  1  0  0  0  0  0  0  0  0  0
   -0.7708    5.5209    3.2825 O   0  0  0  0  0  0  0  0  0  0  0  0
   -1.2509    4.2614    3.7405 C   0  0  1  0  0  0  0  0  0  0  0  0
   -1.1598    4.1740    5.1599 O   0  0  0  0  0  0  0  0  0  0  0  0
   -2.0397    5.0165    5.9011 C   0  0  2  0  0  0  0  0  0  0  0  0
   -1.8027    4.7869    7.3997 C   0  0  0  0  0  0  0  0  0  0  0  0
   -1.6452    3.3730    7.7093 N   0  0  0  0  0  0  0  0  0  0  0  0
   -3.5094    4.7155    5.5530 C   0  0  1  0  0  0  0  0  0  0  0  0
   -4.3599    5.6032    6.2567 O   0  0  0  0  0  0  0  0  0  0  0  0
   -3.7046    4.8932    4.0421 C   0  0  2  0  0  0  0  0  0  0  0  0
   -5.0252    4.5386    3.6770 O   0  0  0  0  0  0  0  0  0  0  0  0
   -2.6909    4.0460    3.2613 C   0  0  1  0  0  0  0  0  0  0  0  0
   -2.8040    4.3223    1.8221 N   0  0  0  0  0  0  0  0  0  0  0  0
   -0.4451    1.6832    3.5905 C   0  0  2  0  0  0  0  0  0  0  0  0
   -0.5751    0.5450    4.4219 O   0  0  0  0  0  0  0  0  0  0  0  0
   -0.8768    1.4273    2.1474 C   0  0  2  0  0  0  0  0  0  0  0  0
   -1.9634    0.5303    2.0295 O   0  0  0  0  0  0  0  0  0  0  0  0
  2  1  1  0  0  0  0
  3  2  1  6  0  0  0
  3 30  1  0  0  0  0
  4  5  1  0  0  0  0
  4  3  1  0  0  0  0
  5 28  1  0  0  0  0
  5  6  1  6  0  0  0
  7  6  1  1  0  0  0
  8  7  1  0  0  0  0
  8  9  1  6  0  0  0
 10 11  1  1  0  0  0
 10  8  1  0  0  0  0
 12 10  1  0  0  0  0
 13 12  1  0  0  0  0
 13 15  1  0  0  0  0
 13 14  1  1  0  0  0
 15  7  1  0  0  0  0
 15 16  1  6  0  0  0
 17 16  1  1  0  0  0
 18 17  1  0  0  0  0
 19 20  1  1  0  0  0
 19 18  1  0  0  0  0
 20 21  1  0  0  0  0
 22 24  1  0  0  0  0
 22 19  1  0  0  0  0
 22 23  1  1  0  0  0
 24 25  1  6  0  0  0
 24 26  1  0  0  0  0
 26 17  1  0  0  0  0
 26 27  1  6  0  0  0
 28 29  1  1  0  0  0
 28 30  1  0  0  0  0
 30 31  1  1  0  0  0
M  END
>  <CHROM.1>
36.60044170,-8.18992721,24.00802895,-92.76891473,-55.89336926,-177.65068286
158.17695235,29.08709955,89.56169742,-42.34205017,72.92270744,167.45958985
-54.96503747,31.77358093,66.10337389,-58.96438302,-0.38126099,3.89570942
3.11228219,0.22119505,-0.65849689,-2.91393029

>  <Name>
lig.pdb

>  <RI>
2.67765e+07

>  <Rbt.Current_Directory>
/home/itssahil/PROJECTS/Mol_Feturizer/New_Systems/rnas/2n0j

>  <Rbt.Executable>
rbdock ($Id: //depot/dev/client3/rdock/2013.1/src/exe/rbdock.cxx#4 $)

>  <Rbt.Library>
libRbt.so (2013.1, Build901 2013/11/27)

>  <Rbt.Parameter_File>
/export/apps/rDock/src/rDock_2013.1_src/data/scripts/dock_solv.prm

>  <Rbt.Receptor>
prm/pocket_docking_2.prm

>  <SCORE>
-18.8415

>  <SCORE.INTER>
-30.5549

>  <SCORE.INTER.CONST>
1

>  <SCORE.INTER.POLAR>
-3.1803

>  <SCORE.INTER.ROT>
6

>  <SCORE.INTER.SOLV>
16.7199

>  <SCORE.INTER.VDW>
-22.9422

>  <SCORE.INTER.norm>
-0.985642

>  <SCORE.INTRA>
8.62712

>  <SCORE.INTRA.DIHEDRAL>
0.991141

>  <SCORE.INTRA.DIHEDRAL.0>
28.0161

>  <SCORE.INTRA.POLAR>
-0.253608

>  <SCORE.INTRA.POLAR.0>
-1.05798

>  <SCORE.INTRA.REPUL>
0

>  <SCORE.INTRA.REPUL.0>
0

>  <SCORE.INTRA.SOLV>
2.65487

>  <SCORE.INTRA.SOLV.lig_0>
-42.5945

>  <SCORE.INTRA.VDW>
7.66638

>  <SCORE.INTRA.VDW.0>
-5.13869

>  <SCORE.INTRA.norm>
0.278294

>  <SCORE.RESTR>
3.0863

>  <SCORE.RESTR.CAVITY>
3.0863

>  <SCORE.RESTR.norm>
0.0995582

>  <SCORE.SYSTEM>
0

>  <SCORE.SYSTEM.CONST>
0

>  <SCORE.SYSTEM.DIHEDRAL>
0

>  <SCORE.SYSTEM.SOLV>
0

>  <SCORE.SYSTEM.norm>
0

>  <SCORE.heavy>
31

>  <SCORE.norm>
-0.60779

>  <RMSD>
6.307

$$$$
lig.pdb
 OpenBabel11021811453D
libRbt.so/2013.1/901 2013/11/27
 31 33  0  0  0  0  0  0  0  0999 V2000
    4.0913    3.3464    1.4970 O   0  0  0  0  0  0  0  0  0  0  0  0
    3.1840    4.0896    2.2874 C   0  0  0  0  0  0  0  0  0  0  0  0
    1.7704    4.0663    1.6906 C   0  0  1  0  0  0  0  0  0  0  0  0
    1.3673    2.7519    1.3399 O   0  0  0  0  0  0  0  0  0  0  0  0
   -0.0537    2.6617    1.3751 C   0  0  1  0  0  0  0  0  0  0  0  0
   -0.4458    1.4980    2.0935 O   0  0  0  0  0  0  0  0  0  0  0  0
   -0.6086    0.3017    1.3484 C   0  0  2  0  0  0  0  0  0  0  0  0
   -1.8628    0.4620    0.4746 C   0  0  1  0  0  0  0  0  0  0  0  0
   -1.6172    1.4199   -0.5430 O   0  0  0  0  0  0  0  0  0  0  0  0
   -2.3143   -0.8335   -0.2167 C   0  0  2  0  0  0  0  0  0  0  0  0
   -3.5703   -0.6284   -0.9546 N   0  0  0  0  0  0  0  0  0  0  0  0
   -2.5105   -1.9299    0.8237 C   0  0  0  0  0  0  0  0  0  0  0  0
   -1.2249   -2.1178    1.6198 C   0  0  2  0  0  0  0  0  0  0  0  0
   -1.4249   -3.2136    2.5742 N   0  0  0  0  0  0  0  0  0  0  0  0
   -0.8354   -0.8033    2.3297 C   0  0  1  0  0  0  0  0  0  0  0  0
    0.3680   -1.1006    3.0543 O   0  0  0  0  0  0  0  0  0  0  0  0
    0.8841   -0.0803    3.9025 C   0  0  1  0  0  0  0  0  0  0  0  0
   -0.1622    0.5213    4.6601 O   0  0  0  0  0  0  0  0  0  0  0  0
   -0.7675   -0.2965    5.6593 C   0  0  2  0  0  0  0  0  0  0  0  0
   -1.8619    0.5127    6.3679 C   0  0  0  0  0  0  0  0  0  0  0  0
   -2.4239   -0.2151    7.4967 N   0  0  0  0  0  0  0  0  0  0  0  0
    0.2777   -0.7716    6.6857 C   0  0  1  0  0  0  0  0  0  0  0  0
   -0.3357   -1.6283    7.6325 O   0  0  0  0  0  0  0  0  0  0  0  0
    1.3900   -1.5240    5.9447 C   0  0  2  0  0  0  0  0  0  0  0  0
    2.4113   -1.8982    6.8502 O   0  0  0  0  0  0  0  0  0  0  0  0
    1.9695   -0.6606    4.8161 C   0  0  1  0  0  0  0  0  0  0  0  0
    2.9426   -1.4373    4.0348 N   0  0  0  0  0  0  0  0  0  0  0  0
   -0.5607    3.9125    2.1076 C   0  0  2  0  0  0  0  0  0  0  0  0
   -1.1950    4.7829    1.1892 O   0  0  0  0  0  0  0  0  0  0  0  0
    0.7175    4.4971    2.7068 C   0  0  2  0  0  0  0  0  0  0  0  0
    0.6620    5.8950    2.9112 O   0  0  0  0  0  0  0  0  0  0  0  0
  2  1  1  0  0  0  0
  3  2  1  1  0  0  0
  3 30  1  0  0  0  0
  4  5  1  0  0  0  0
  4  3  1  0  0  0  0
  5 28  1  0  0  0  0
  5  6  1  1  0  0  0
  7  6  1  1  0  0  0
  8  7  1  0  0  0  0
  8  9  1  6  0  0  0
 10 11  1  1  0  0  0
 10  8  1  0  0  0  0
 12 10  1  0  0  0  0
 13 12  1  0  0  0  0
 13 15  1  0  0  0  0
 13 14  1  1  0  0  0
 15  7  1  0  0  0  0
 15 16  1  6  0  0  0
 17 16  1  1  0  0  0
 18 17  1  0  0  0  0
 19 20  1  1  0  0  0
 19 18  1  0  0  0  0
 20 21  1  0  0  0  0
 22 24  1  0  0  0  0
 22 19  1  0  0  0  0
 22 23  1  1  0  0  0
 24 25  1  1  0  0  0
 24 26  1  0  0  0  0
 26 17  1  0  0  0  0
 26 27  1  6  0  0  0
 28 29  1  6  0  0  0
 28 30  1  0  0  0  0
 30 31  1  6  0  0  0
M  END
>  <CHROM.1>
77.69388586,47.95631540,-90.00850959,-70.26393490,-178.27772937,-172.08622776
69.17737910,64.60315573,44.33536027,-173.86442236,-70.50306466,66.89148409
84.31138208,-158.53853439,63.39232500,-55.10083527,-0.05265685,0.69193550
3.03825674,-1.51467533,0.86319588,2.32862272

>  <Name>
lig.pdb

>  <RI>
0

>  <Rbt.Current_Directory>
/home/itssahil/PROJECTS/Mol_Feturizer/New_Systems/rnas/2n0j

>  <Rbt.Executable>
rbdock ($Id: //depot/dev/client3/rdock/2013.1/src/exe/rbdock.cxx#4 $)

>  <Rbt.Library>
libRbt.so (2013.1, Build901 2013/11/27)

>  <Rbt.Parameter_File>
/export/apps/rDock/src/rDock_2013.1_src/data/scripts/dock_solv.prm

>  <Rbt.Receptor>
prm/blind_docking_60.prm

>  <SCORE>
-35.1083

>  <SCORE.INTER>
-35.7205

>  <SCORE.INTER.CONST>
1

>  <SCORE.INTER.POLAR>
-4.44694

>  <SCORE.INTER.ROT>
6

>  <SCORE.INTER.SOLV>
20.9175

>  <SCORE.INTER.VDW>
-23.563

>  <SCORE.INTER.norm>
-1.15227

>  <SCORE.INTRA>
-2.19208

>  <SCORE.INTRA.DIHEDRAL>
-15.6337

>  <SCORE.INTRA.DIHEDRAL.0>
28.0161

>  <SCORE.INTRA.POLAR>
0.418319

>  <SCORE.INTRA.POLAR.0>
-1.05798

>  <SCORE.INTRA.REPUL>
0.0280422

>  <SCORE.INTRA.REPUL.0>
0

>  <SCORE.INTRA.SOLV>
0.097719

>  <SCORE.INTRA.SOLV.lig_0>
-42.5945

>  <SCORE.INTRA.VDW>
4.0134

>  <SCORE.INTRA.VDW.0>
-5.13869

>  <SCORE.INTRA.norm>
-0.0707124

>  <SCORE.RESTR>
2.80422

>  <SCORE.RESTR.CAVITY>
2.80422

>  <SCORE.RESTR.norm>
0.0904588

>  <SCORE.SYSTEM>
0

>  <SCORE.SYSTEM.CONST>
0

>  <SCORE.SYSTEM.DIHEDRAL>
0

>  <SCORE.SYSTEM.SOLV>
0

>  <SCORE.SYSTEM.norm>
0

>  <SCORE.heavy>
31

>  <SCORE.norm>
-1.13253

>  <RMSD>
6.309

$$$$
lig.pdb
 OpenBabel11021811453D
libRbt.so/2013.1/901 2013/11/27
 31 33  0  0  0  0  0  0  0  0999 V2000
    4.5181    3.2245    0.3764 O   0  0  0  0  0  0  0  0  0  0  0  0
    3.7764    3.2782    1.5794 C   0  0  0  0  0  0  0  0  0  0  0  0
    2.3215    3.6944    1.3234 C   0  0  1  0  0  0  0  0  0  0  0  0
    1.5126    2.5874    0.9583 O   0  0  0  0  0  0  0  0  0  0  0  0
    0.1574    2.8482    1.3106 C   0  0  1  0  0  0  0  0  0  0  0  0
   -0.3887    1.7254    1.9925 O   0  0  0  0  0  0  0  0  0  0  0  0
   -0.5441    0.5283    1.2471 C   0  0  2  0  0  0  0  0  0  0  0  0
   -1.8734    0.6233    0.4816 C   0  0  1  0  0  0  0  0  0  0  0  0
   -1.7682    1.6028   -0.5396 O   0  0  0  0  0  0  0  0  0  0  0  0
   -2.3060   -0.6901   -0.1877 C   0  0  2  0  0  0  0  0  0  0  0  0
   -3.6285   -0.5516   -0.8170 N   0  0  0  0  0  0  0  0  0  0  0  0
   -2.3525   -1.8052    0.8503 C   0  0  0  0  0  0  0  0  0  0  0  0
   -0.9967   -1.9252    1.5354 C   0  0  2  0  0  0  0  0  0  0  0  0
   -1.0540   -3.0392    2.4881 N   0  0  0  0  0  0  0  0  0  0  0  0
   -0.6254   -0.5966    2.2287 C   0  0  1  0  0  0  0  0  0  0  0  0
    0.6489   -0.8300    2.8478 O   0  0  0  0  0  0  0  0  0  0  0  0
    1.1673    0.2048    3.6766 C   0  0  1  0  0  0  0  0  0  0  0  0
    0.5247    0.2004    4.9485 O   0  0  0  0  0  0  0  0  0  0  0  0
    0.8107   -0.9105    5.7955 C   0  0  2  0  0  0  0  0  0  0  0  0
    0.0383   -0.7444    7.1110 C   0  0  0  0  0  0  0  0  0  0  0  0
   -0.8515   -1.8698    7.3586 N   0  0  0  0  0  0  0  0  0  0  0  0
    2.3203   -1.0046    6.0849 C   0  0  1  0  0  0  0  0  0  0  0  0
    2.5857   -2.1476    6.8785 O   0  0  0  0  0  0  0  0  0  0  0  0
    3.0724   -1.1084    4.7523 C   0  0  2  0  0  0  0  0  0  0  0  0
    4.4692   -1.1083    4.9804 O   0  0  0  0  0  0  0  0  0  0  0  0
    2.6854    0.0475    3.8200 C   0  0  1  0  0  0  0  0  0  0  0  0
    3.3134   -0.1335    2.5035 N   0  0  0  0  0  0  0  0  0  0  0  0
    0.1678    4.0637    2.2490 C   0  0  2  0  0  0  0  0  0  0  0  0
   -0.3720    5.1897    1.5825 O   0  0  0  0  0  0  0  0  0  0  0  0
    1.6495    4.2182    2.5886 C   0  0  2  0  0  0  0  0  0  0  0  0
    2.0209    5.5404    2.9248 O   0  0  0  0  0  0  0  0  0  0  0  0
  2  1  1  0  0  0  0
  3  2  1  1  0  0  0
  3 30  1  0  0  0  0
  4  5  1  0  0  0  0
  4  3  1  0  0  0  0
  5 28  1  0  0  0  0
  5  6  1  1  0  0  0
  7  6  1  1  0  0  0
  8  7  1  0  0  0  0
  8  9  1  6  0  0  0
 10 11  1  1  0  0  0
 10  8  1  0  0  0  0
 12 10  1  0  0  0  0
 13 12  1  0  0  0  0
 13 15  1  0  0  0  0
 13 14  1  1  0  0  0
 15  7  1  0  0  0  0
 15 16  1  6  0  0  0
 17 16  1  6  0  0  0
 18 17  1  0  0  0  0
 19 20  1  1  0  0  0
 19 18  1  0  0  0  0
 20 21  1  0  0  0  0
 22 24  1  0  0  0  0
 22 19  1  0  0  0  0
 22 23  1  1  0  0  0
 24 25  1  1  0  0  0
 24 26  1  0  0  0  0
 26 17  1  0  0  0  0
 26 27  1  6  0  0  0
 28 29  1  6  0  0  0
 28 30  1  0  0  0  0
 30 31  1  6  0  0  0
M  END
>  <CHROM.1>
-175.03432676,84.32463784,-66.41123596,-83.61398694,-173.93265351,-51.15776616
-60.82369930,65.29840815,77.79905674,121.62193922,90.13836402,-59.56875232
78.59028424,39.32787578,-51.24066078,-57.72092391,0.69470050,0.67761750,2.74344271
-1.77785869,0.63713403,2.43839752

>  <Name>
lig.pdb

>  <RI>
9.20816e+06

>  <Rbt.Current_Directory>
/home/itssahil/PROJECTS/Mol_Feturizer/New_Systems/rnas/2n0j

>  <Rbt.Executable>
rbdock ($Id: //depot/dev/client3/rdock/2013.1/src/exe/rbdock.cxx#4 $)

>  <Rbt.Library>
libRbt.so (2013.1, Build901 2013/11/27)

>  <Rbt.Parameter_File>
/export/apps/rDock/src/rDock_2013.1_src/data/scripts/dock_solv.prm

>  <Rbt.Receptor>
prm/blind_docking_100.prm

>  <SCORE>
-46.7725

>  <SCORE.INTER>
-46.512

>  <SCORE.INTER.CONST>
1

>  <SCORE.INTER.POLAR>
-5.87262

>  <SCORE.INTER.ROT>
6

>  <SCORE.INTER.SOLV>
24.5471

>  <SCORE.INTER.VDW>
-27.215

>  <SCORE.INTER.norm>
-1.50039

>  <SCORE.INTRA>
-0.643524

>  <SCORE.INTRA.DIHEDRAL>
-11.0977

>  <SCORE.INTRA.DIHEDRAL.0>
28.0161

>  <SCORE.INTRA.POLAR>
1.05763

>  <SCORE.INTRA.POLAR.0>
-1.05798

>  <SCORE.INTRA.REPUL>
0

>  <SCORE.INTRA.REPUL.0>
0

>  <SCORE.INTRA.SOLV>
-0.651148

>  <SCORE.INTRA.SOLV.lig_0>
-42.5945

>  <SCORE.INTRA.VDW>
1.63493

>  <SCORE.INTRA.VDW.0>
-5.13869

>  <SCORE.INTRA.norm>
-0.0207588

>  <SCORE.RESTR>
0.38307

>  <SCORE.RESTR.CAVITY>
0.38307

>  <SCORE.RESTR.norm>
0.0123571

>  <SCORE.SYSTEM>
0

>  <SCORE.SYSTEM.CONST>
0

>  <SCORE.SYSTEM.DIHEDRAL>
0

>  <SCORE.SYSTEM.SOLV>
0

>  <SCORE.SYSTEM.norm>
0

>  <SCORE.heavy>
31

>  <SCORE.norm>
-1.50879

>  <RMSD>
6.310

$$$$
lig.pdb
 OpenBabel11021811453D
libRbt.so/2013.1/901 2013/11/27
 31 33  0  0  0  0  0  0  0  0999 V2000
   -0.9174   -2.5491    6.0479 O   0  0  0  0  0  0  0  0  0  0  0  0
   -0.9643   -1.3679    5.2716 C   0  0  0  0  0  0  0  0  0  0  0  0
    0.3656   -1.1193    4.5473 C   0  0  1  0  0  0  0  0  0  0  0  0
    0.3027    0.0209    3.7053 O   0  0  0  0  0  0  0  0  0  0  0  0
    1.6078    0.5676    3.5417 C   0  0  1  0  0  0  0  0  0  0  0  0
    1.5704    1.9751    3.7455 O   0  0  0  0  0  0  0  0  0  0  0  0
    1.4018    2.7910    2.5972 C   0  0  2  0  0  0  0  0  0  0  0  0
    2.7425    3.4891    2.3186 C   0  0  1  0  0  0  0  0  0  0  0  0
    3.6946    2.5357    1.8739 O   0  0  0  0  0  0  0  0  0  0  0  0
    2.6651    4.5903    1.2503 C   0  0  2  0  0  0  0  0  0  0  0  0
    3.9576    5.2780    1.1060 N   0  0  0  0  0  0  0  0  0  0  0  0
    1.5917    5.6027    1.6323 C   0  0  0  0  0  0  0  0  0  0  0  0
    0.2589    4.8895    1.8242 C   0  0  2  0  0  0  0  0  0  0  0  0
   -0.7646    5.8928    2.1366 N   0  0  0  0  0  0  0  0  0  0  0  0
    0.3748    3.8237    2.9352 C   0  0  1  0  0  0  0  0  0  0  0  0
   -0.9303    3.2342    3.0389 O   0  0  0  0  0  0  0  0  0  0  0  0
   -1.2956    2.6832    4.2997 C   0  0  1  0  0  0  0  0  0  0  0  0
   -1.4575    3.7132    5.2711 O   0  0  0  0  0  0  0  0  0  0  0  0
   -2.5743    4.5811    5.0894 C   0  0  2  0  0  0  0  0  0  0  0  0
   -2.5881    5.6168    6.2216 C   0  0  0  0  0  0  0  0  0  0  0  0
   -3.0390    6.9197    5.7538 N   0  0  0  0  0  0  0  0  0  0  0  0
   -3.8929    3.7856    5.0936 C   0  0  1  0  0  0  0  0  0  0  0  0
   -4.9809    4.6604    4.8534 O   0  0  0  0  0  0  0  0  0  0  0  0
   -3.8286    2.7184    3.9939 C   0  0  2  0  0  0  0  0  0  0  0  0
   -4.9913    1.9124    4.0292 O   0  0  0  0  0  0  0  0  0  0  0  0
   -2.5737    1.8497    4.1545 C   0  0  1  0  0  0  0  0  0  0  0  0
   -2.4575    0.9167    3.0247 N   0  0  0  0  0  0  0  0  0  0  0  0
    2.4992   -0.0824    4.6099 C   0  0  2  0  0  0  0  0  0  0  0  0
    3.4048   -0.9814    3.9973 O   0  0  0  0  0  0  0  0  0  0  0  0
    1.4875   -0.7748    5.5217 C   0  0  2  0  0  0  0  0  0  0  0  0
    2.0121   -1.8959    6.2052 O   0  0  0  0  0  0  0  0  0  0  0  0
  2  1  1  0  0  0  0
  3  2  1  1  0  0  0
  3 30  1  0  0  0  0
  4  5  1  0  0  0  0
  4  3  1  0  0  0  0
  5 28  1  0  0  0  0
  5  6  1  1  0  0  0
  7  6  1  1  0  0  0
  8  7  1  0  0  0  0
  8  9  1  6  0  0  0
 10 11  1  1  0  0  0
 10  8  1  0  0  0  0
 12 10  1  0  0  0  0
 13 12  1  0  0  0  0
 13 15  1  0  0  0  0
 13 14  1  1  0  0  0
 15  7  1  0  0  0  0
 15 16  1  6  0  0  0
 17 16  1  6  0  0  0
 18 17  1  0  0  0  0
 19 20  1  1  0  0  0
 19 18  1  0  0  0  0
 20 21  1  0  0  0  0
 22 24  1  0  0  0  0
 22 19  1  0  0  0  0
 22 23  1  6  0  0  0
 24 25  1  1  0  0  0
 24 26  1  0  0  0  0
 26 17  1  0  0  0  0
 26 27  1  6  0  0  0
 28 29  1  6  0  0  0
 28 30  1  0  0  0  0
 30 31  1  6  0  0  0
M  END
>  <CHROM.1>
-57.50211423,176.59224230,-93.42609104,-107.98320097,-60.69363535,-57.35312573
64.57397755,86.29130251,68.49203903,143.69310786,74.79107125,-173.31967311
175.95992106,-69.98757897,174.79202558,-79.93632522,-0.25214029,2.41198182
3.86971726,0.68959739,-0.36705710,2.78847194

>  <Name>
lig.pdb

>  <RI>
0

>  <Rbt.Current_Directory>
/home/itssahil/PROJECTS/Mol_Feturizer/New_Systems/rnas/2n0j

>  <Rbt.Executable>
rbdock ($Id: //depot/dev/client3/rdock/2013.1/src/exe/rbdock.cxx#4 $)

>  <Rbt.Library>
libRbt.so (2013.1, Build901 2013/11/27)

>  <Rbt.Parameter_File>
/export/apps/rDock/src/rDock_2013.1_src/data/scripts/dock_solv.prm

>  <Rbt.Receptor>
prm/pocket_docking_5.prm

>  <SCORE>
-38.6012

>  <SCORE.INTER>
-35.173

>  <SCORE.INTER.CONST>
1

>  <SCORE.INTER.POLAR>
-4.38623

>  <SCORE.INTER.ROT>
6

>  <SCORE.INTER.SOLV>
17.3408

>  <SCORE.INTER.VDW>
-22.2082

>  <SCORE.INTER.norm>
-1.13461

>  <SCORE.INTRA>
-4.0812

>  <SCORE.INTRA.DIHEDRAL>
-7.08124

>  <SCORE.INTRA.DIHEDRAL.0>
28.0161

>  <SCORE.INTRA.POLAR>
0.0463547

>  <SCORE.INTRA.POLAR.0>
-1.05798

>  <SCORE.INTRA.REPUL>
0

>  <SCORE.INTRA.REPUL.0>
0

>  <SCORE.INTRA.SOLV>
0.720734

>  <SCORE.INTRA.SOLV.lig_0>
-42.5945

>  <SCORE.INTRA.VDW>
-1.05855

>  <SCORE.INTRA.VDW.0>
-5.13869

>  <SCORE.INTRA.norm>
-0.131652

>  <SCORE.RESTR>
0.652962

>  <SCORE.RESTR.CAVITY>
0.652962

>  <SCORE.RESTR.norm>
0.0210633

>  <SCORE.SYSTEM>
0

>  <SCORE.SYSTEM.CONST>
0

>  <SCORE.SYSTEM.DIHEDRAL>
0

>  <SCORE.SYSTEM.SOLV>
0

>  <SCORE.SYSTEM.norm>
0

>  <SCORE.heavy>
31

>  <SCORE.norm>
-1.2452

>  <RMSD>
6.311

$$$$
lig.pdb
 OpenBabel11021811453D
libRbt.so/2013.1/901 2013/11/27
 31 33  0  0  0  0  0  0  0  0999 V2000
    4.6240    4.5350    2.3299 O   0  0  0  0  0  0  0  0  0  0  0  0
    3.8436    3.3780    2.1010 C   0  0  0  0  0  0  0  0  0  0  0  0
    2.4526    3.7372    1.5613 C   0  0  1  0  0  0  0  0  0  0  0  0
    1.7372    2.5869    1.1394 O   0  0  0  0  0  0  0  0  0  0  0  0
    0.3373    2.8356    1.2256 C   0  0  1  0  0  0  0  0  0  0  0  0
   -0.3067    1.7485    1.8791 O   0  0  0  0  0  0  0  0  0  0  0  0
   -0.4842    0.5566    1.1303 C   0  0  2  0  0  0  0  0  0  0  0  0
   -1.7946    0.6925    0.3387 C   0  0  1  0  0  0  0  0  0  0  0  0
   -1.6390    1.6682   -0.6797 O   0  0  0  0  0  0  0  0  0  0  0  0
   -2.2543   -0.6070   -0.3397 C   0  0  2  0  0  0  0  0  0  0  0  0
   -3.5591   -0.4277   -0.9949 N   0  0  0  0  0  0  0  0  0  0  0  0
   -2.3557   -1.7199    0.6967 C   0  0  0  0  0  0  0  0  0  0  0  0
   -1.0181   -1.8817    1.4084 C   0  0  2  0  0  0  0  0  0  0  0  0
   -1.1286   -2.9932    2.3592 N   0  0  0  0  0  0  0  0  0  0  0  0
   -0.6196   -0.5651    2.1095 C   0  0  1  0  0  0  0  0  0  0  0  0
    0.6343   -0.8377    2.7536 O   0  0  0  0  0  0  0  0  0  0  0  0
    1.1338    0.1515    3.6472 C   0  0  1  0  0  0  0  0  0  0  0  0
    0.3840    0.1599    4.8589 O   0  0  0  0  0  0  0  0  0  0  0  0
    0.5352   -0.9804    5.7017 C   0  0  2  0  0  0  0  0  0  0  0  0
   -0.3383   -0.7954    6.9497 C   0  0  0  0  0  0  0  0  0  0  0  0
   -0.8296   -2.0688    7.4565 N   0  0  0  0  0  0  0  0  0  0  0  0
    2.0068   -1.1635    6.1171 C   0  0  1  0  0  0  0  0  0  0  0  0
    2.1404   -2.3336    6.9042 O   0  0  0  0  0  0  0  0  0  0  0  0
    2.8650   -1.2848    4.8517 C   0  0  2  0  0  0  0  0  0  0  0  0
    4.2347   -1.3665    5.1986 O   0  0  0  0  0  0  0  0  0  0  0  0
    2.6230   -0.0924    3.9164 C   0  0  1  0  0  0  0  0  0  0  0  0
    3.3523   -0.2842    2.6547 N   0  0  0  0  0  0  0  0  0  0  0  0
    0.1632    4.1126    2.0605 C   0  0  2  0  0  0  0  0  0  0  0  0
   -0.2639    5.1755    1.2290 O   0  0  0  0  0  0  0  0  0  0  0  0
    1.5579    4.3290    2.6458 C   0  0  2  0  0  0  0  0  0  0  0  0
    1.8452    5.6805    2.9459 O   0  0  0  0  0  0  0  0  0  0  0  0
  2  1  1  0  0  0  0
  3  2  1  1  0  0  0
  3 30  1  0  0  0  0
  4  5  1  0  0  0  0
  4  3  1  0  0  0  0
  5 28  1  0  0  0  0
  5  6  1  1  0  0  0
  7  6  1  1  0  0  0
  8  7  1  0  0  0  0
  8  9  1  6  0  0  0
 10 11  1  1  0  0  0
 10  8  1  0  0  0  0
 12 10  1  0  0  0  0
 13 12  1  0  0  0  0
 13 15  1  0  0  0  0
 13 14  1  1  0  0  0
 15  7  1  0  0  0  0
 15 16  1  6  0  0  0
 17 16  1  6  0  0  0
 18 17  1  0  0  0  0
 19 20  1  1  0  0  0
 19 18  1  0  0  0  0
 20 21  1  0  0  0  0
 22 24  1  0  0  0  0
 22 19  1  0  0  0  0
 22 23  1  1  0  0  0
 24 25  1  1  0  0  0
 24 26  1  0  0  0  0
 26 17  1  0  0  0  0
 26 27  1  6  0  0  0
 28 29  1  6  0  0  0
 28 30  1  0  0  0  0
 30 31  1  6  0  0  0
M  END
>  <CHROM.1>
80.94656541,171.13672080,-75.44203035,-86.14585253,57.40892683,-175.45573096
63.48648679,68.48252693,73.22329133,148.50905705,-157.53964140,179.36908612
120.59792201,36.09492357,-51.92242752,-59.16450054,0.66448301,0.70931655
2.79192266,-1.67748738,0.70188503,2.48493499

>  <Name>
lig.pdb

>  <RI>
0

>  <Rbt.Current_Directory>
/home/itssahil/PROJECTS/Mol_Feturizer/New_Systems/rnas/2n0j

>  <Rbt.Executable>
rbdock ($Id: //depot/dev/client3/rdock/2013.1/src/exe/rbdock.cxx#4 $)

>  <Rbt.Library>
libRbt.so (2013.1, Build901 2013/11/27)

>  <Rbt.Parameter_File>
/export/apps/rDock/src/rDock_2013.1_src/data/scripts/dock_solv.prm

>  <Rbt.Receptor>
prm/blind_docking_40.prm

>  <SCORE>
-39.9416

>  <SCORE.INTER>
-42.4883

>  <SCORE.INTER.CONST>
1

>  <SCORE.INTER.POLAR>
-5.28668

>  <SCORE.INTER.ROT>
6

>  <SCORE.INTER.SOLV>
24.6904

>  <SCORE.INTER.VDW>
-26.5334

>  <SCORE.INTER.norm>
-1.37059

>  <SCORE.INTRA>
1.4999

>  <SCORE.INTRA.DIHEDRAL>
-7.48395

>  <SCORE.INTRA.DIHEDRAL.0>
28.0161

>  <SCORE.INTRA.POLAR>
1.04701

>  <SCORE.INTRA.POLAR.0>
-1.05798

>  <SCORE.INTRA.REPUL>
0

>  <SCORE.INTRA.REPUL.0>
0

>  <SCORE.INTRA.SOLV>
0.303094

>  <SCORE.INTRA.SOLV.lig_0>
-42.5945

>  <SCORE.INTRA.VDW>
1.5305

>  <SCORE.INTRA.VDW.0>
-5.13869

>  <SCORE.INTRA.norm>
0.048384

>  <SCORE.RESTR>
1.04685

>  <SCORE.RESTR.CAVITY>
1.04685

>  <SCORE.RESTR.norm>
0.0337693

>  <SCORE.SYSTEM>
0

>  <SCORE.SYSTEM.CONST>
0

>  <SCORE.SYSTEM.DIHEDRAL>
0

>  <SCORE.SYSTEM.SOLV>
0

>  <SCORE.SYSTEM.norm>
0

>  <SCORE.heavy>
31

>  <SCORE.norm>
-1.28844

>  <RMSD>
6.314

$$$$
lig.pdb
 OpenBabel11021811453D
libRbt.so/2013.1/901 2013/11/27
 31 33  0  0  0  0  0  0  0  0999 V2000
    4.8703    4.0827    1.6643 O   0  0  0  0  0  0  0  0  0  0  0  0
    3.9454    3.0148    1.5997 C   0  0  0  0  0  0  0  0  0  0  0  0
    2.5210    3.5214    1.3356 C   0  0  1  0  0  0  0  0  0  0  0  0
    1.6506    2.4702    0.9478 O   0  0  0  0  0  0  0  0  0  0  0  0
    0.3100    2.8078    1.2906 C   0  0  1  0  0  0  0  0  0  0  0  0
   -0.3098    1.7114    1.9520 O   0  0  0  0  0  0  0  0  0  0  0  0
   -0.4775    0.5164    1.2059 C   0  0  2  0  0  0  0  0  0  0  0  0
   -1.7788    0.6479    0.3988 C   0  0  1  0  0  0  0  0  0  0  0  0
   -1.6124    1.6197   -0.6217 O   0  0  0  0  0  0  0  0  0  0  0  0
   -2.2294   -0.6547   -0.2797 C   0  0  2  0  0  0  0  0  0  0  0  0
   -3.5267   -0.4794   -0.9507 N   0  0  0  0  0  0  0  0  0  0  0  0
   -2.3417   -1.7637    0.7598 C   0  0  0  0  0  0  0  0  0  0  0  0
   -1.0122   -1.9213    1.4875 C   0  0  2  0  0  0  0  0  0  0  0  0
   -1.1326   -3.0292    2.4414 N   0  0  0  0  0  0  0  0  0  0  0  0
   -0.6231   -0.6015    2.1879 C   0  0  1  0  0  0  0  0  0  0  0  0
    0.6236   -0.8704    2.8475 O   0  0  0  0  0  0  0  0  0  0  0  0
    1.1941    0.1857    3.6129 C   0  0  1  0  0  0  0  0  0  0  0  0
    0.5408    0.3032    4.8739 O   0  0  0  0  0  0  0  0  0  0  0  0
    0.7536   -0.7636    5.7959 C   0  0  2  0  0  0  0  0  0  0  0  0
   -0.0196   -0.4658    7.0875 C   0  0  0  0  0  0  0  0  0  0  0  0
   -0.7665   -1.6277    7.5478 N   0  0  0  0  0  0  0  0  0  0  0  0
    2.2525   -0.9252    6.1105 C   0  0  1  0  0  0  0  0  0  0  0  0
    2.4433   -2.0262    6.9810 O   0  0  0  0  0  0  0  0  0  0  0  0
    3.0093   -1.1608    4.7974 C   0  0  2  0  0  0  0  0  0  0  0  0
    4.4015   -1.2261    5.0431 O   0  0  0  0  0  0  0  0  0  0  0  0
    2.6990   -0.0491    3.7860 C   0  0  1  0  0  0  0  0  0  0  0  0
    3.3273   -0.3533    2.4925 N   0  0  0  0  0  0  0  0  0  0  0  0
    0.3841    4.0082    2.2455 C   0  0  2  0  0  0  0  0  0  0  0  0
   -0.0800    5.1733    1.5891 O   0  0  0  0  0  0  0  0  0  0  0  0
    1.8687    4.0686    2.6013 C   0  0  2  0  0  0  0  0  0  0  0  0
    2.3157    5.3614    2.9588 O   0  0  0  0  0  0  0  0  0  0  0  0
  2  1  1  0  0  0  0
  3  2  1  1  0  0  0
  3 30  1  0  0  0  0
  4  5  1  0  0  0  0
  4  3  1  0  0  0  0
  5 28  1  0  0  0  0
  5  6  1  1  0  0  0
  7  6  1  1  0  0  0
  8  7  1  0  0  0  0
  8  9  1  6  0  0  0
 10 11  1  1  0  0  0
 10  8  1  0  0  0  0
 12 10  1  0  0  0  0
 13 12  1  0  0  0  0
 13 15  1  0  0  0  0
 13 14  1  1  0  0  0
 15  7  1  0  0  0  0
 15 16  1  6  0  0  0
 17 16  1  1  0  0  0
 18 17  1  0  0  0  0
 19 20  1  1  0  0  0
 19 18  1  0  0  0  0
 20 21  1  0  0  0  0
 22 24  1  0  0  0  0
 22 19  1  0  0  0  0
 22 23  1  1  0  0  0
 24 25  1  1  0  0  0
 24 26  1  0  0  0  0
 26 17  1  0  0  0  0
 26 27  1  6  0  0  0
 28 29  1  6  0  0  0
 28 30  1  0  0  0  0
 30 31  1  6  0  0  0
M  END
>  <CHROM.1>
-175.68109026,165.68760394,-63.79018003,-84.58486369,61.44243223,49.05521259
-58.39336227,60.96269876,78.35028459,133.50273547,-39.79372340,-63.67298595
-58.29550912,163.08122866,-34.45656306,63.84405065,0.76825346,0.70109935
2.77713530,-1.79668435,0.66945738,2.41391774

>  <Name>
lig.pdb

>  <RI>
0

>  <Rbt.Current_Directory>
/home/itssahil/PROJECTS/Mol_Feturizer/New_Systems/rnas/2n0j

>  <Rbt.Executable>
rbdock ($Id: //depot/dev/client3/rdock/2013.1/src/exe/rbdock.cxx#4 $)

>  <Rbt.Library>
libRbt.so (2013.1, Build901 2013/11/27)

>  <Rbt.Parameter_File>
/export/apps/rDock/src/rDock_2013.1_src/data/scripts/dock_solv.prm

>  <Rbt.Receptor>
prm/blind_docking_40.prm

>  <SCORE>
-41.4771

>  <SCORE.INTER>
-40.9258

>  <SCORE.INTER.CONST>
1

>  <SCORE.INTER.POLAR>
-4.48728

>  <SCORE.INTER.ROT>
6

>  <SCORE.INTER.SOLV>
23.2028

>  <SCORE.INTER.VDW>
-27.6605

>  <SCORE.INTER.norm>
-1.32019

>  <SCORE.INTRA>
-1.17743

>  <SCORE.INTRA.DIHEDRAL>
-13.3092

>  <SCORE.INTRA.DIHEDRAL.0>
28.0161

>  <SCORE.INTRA.POLAR>
1.04971

>  <SCORE.INTRA.POLAR.0>
-1.05798

>  <SCORE.INTRA.REPUL>
0

>  <SCORE.INTRA.REPUL.0>
0

>  <SCORE.INTRA.SOLV>
-0.0395667

>  <SCORE.INTRA.SOLV.lig_0>
-42.5945

>  <SCORE.INTRA.VDW>
1.92793

>  <SCORE.INTRA.VDW.0>
-5.13869

>  <SCORE.INTRA.norm>
-0.0379817

>  <SCORE.RESTR>
0.626118

>  <SCORE.RESTR.CAVITY>
0.626118

>  <SCORE.RESTR.norm>
0.0201973

>  <SCORE.SYSTEM>
0

>  <SCORE.SYSTEM.CONST>
0

>  <SCORE.SYSTEM.DIHEDRAL>
0

>  <SCORE.SYSTEM.SOLV>
0

>  <SCORE.SYSTEM.norm>
0

>  <SCORE.heavy>
31

>  <SCORE.norm>
-1.33797

>  <RMSD>
6.321

$$$$
lig.pdb
 OpenBabel11021811453D
libRbt.so/2013.1/901 2013/11/27
 31 33  0  0  0  0  0  0  0  0999 V2000
   -1.4494    6.4357    3.6934 O   0  0  0  0  0  0  0  0  0  0  0  0
   -0.9597    5.2045    4.1881 C   0  0  0  0  0  0  0  0  0  0  0  0
    0.0477    4.5712    3.2189 C   0  0  1  0  0  0  0  0  0  0  0  0
    0.7961    3.5367    3.8375 O   0  0  0  0  0  0  0  0  0  0  0  0
    1.2396    2.6108    2.8502 C   0  0  1  0  0  0  0  0  0  0  0  0
    0.9671    1.2817    3.2780 O   0  0  0  0  0  0  0  0  0  0  0  0
    1.7635    0.7650    4.3323 C   0  0  2  0  0  0  0  0  0  0  0  0
    3.0162    0.1326    3.7054 C   0  0  1  0  0  0  0  0  0  0  0  0
    3.8481    1.1497    3.1696 O   0  0  0  0  0  0  0  0  0  0  0  0
    3.8673   -0.6816    4.6917 C   0  0  2  0  0  0  0  0  0  0  0  0
    4.9919   -1.3351    4.0044 N   0  0  0  0  0  0  0  0  0  0  0  0
    3.0015   -1.7391    5.3664 C   0  0  0  0  0  0  0  0  0  0  0  0
    1.8115   -1.0716    6.0447 C   0  0  2  0  0  0  0  0  0  0  0  0
    1.0275   -2.1045    6.7305 N   0  0  0  0  0  0  0  0  0  0  0  0
    0.9641   -0.3025    5.0083 C   0  0  1  0  0  0  0  0  0  0  0  0
   -0.1263    0.2655    5.7498 O   0  0  0  0  0  0  0  0  0  0  0  0
   -1.3965    0.3061    5.1082 C   0  0  1  0  0  0  0  0  0  0  0  0
   -1.2439    0.4475    3.6985 O   0  0  0  0  0  0  0  0  0  0  0  0
   -0.6953   -0.6732    3.0081 C   0  0  2  0  0  0  0  0  0  0  0  0
   -0.6077   -0.3414    1.5125 C   0  0  0  0  0  0  0  0  0  0  0  0
    0.7475   -0.4996    1.0045 N   0  0  0  0  0  0  0  0  0  0  0  0
   -1.5682   -1.9250    3.2148 C   0  0  1  0  0  0  0  0  0  0  0  0
   -0.9725   -3.0363    2.5693 O   0  0  0  0  0  0  0  0  0  0  0  0
   -1.6896   -2.1986    4.7191 C   0  0  2  0  0  0  0  0  0  0  0  0
   -2.5584   -3.2925    4.9462 O   0  0  0  0  0  0  0  0  0  0  0  0
   -2.1981   -0.9530    5.4573 C   0  0  1  0  0  0  0  0  0  0  0  0
   -2.1884   -1.1868    6.9084 N   0  0  0  0  0  0  0  0  0  0  0  0
    0.4459    2.9113    1.5704 C   0  0  2  0  0  0  0  0  0  0  0  0
    1.2977    3.4968    0.6034 O   0  0  0  0  0  0  0  0  0  0  0  0
   -0.6469    3.8589    2.0627 C   0  0  2  0  0  0  0  0  0  0  0  0
   -1.1327    4.7342    1.0643 O   0  0  0  0  0  0  0  0  0  0  0  0
  2  1  1  0  0  0  0
  3  2  1  1  0  0  0
  3 30  1  0  0  0  0
  4  5  1  0  0  0  0
  4  3  1  0  0  0  0
  5 28  1  0  0  0  0
  5  6  1  1  0  0  0
  7  6  1  6  0  0  0
  8  7  1  0  0  0  0
  8  9  1  1  0  0  0
 10 11  1  6  0  0  0
 10  8  1  0  0  0  0
 12 10  1  0  0  0  0
 13 12  1  0  0  0  0
 13 15  1  0  0  0  0
 13 14  1  6  0  0  0
 15  7  1  0  0  0  0
 15 16  1  1  0  0  0
 17 16  1  1  0  0  0
 18 17  1  0  0  0  0
 19 20  1  6  0  0  0
 19 18  1  0  0  0  0
 20 21  1  0  0  0  0
 22 24  1  0  0  0  0
 22 19  1  0  0  0  0
 22 23  1  6  0  0  0
 24 25  1  6  0  0  0
 24 26  1  0  0  0  0
 26 17  1  0  0  0  0
 26 27  1  1  0  0  0
 28 29  1  6  0  0  0
 28 30  1  0  0  0  0
 30 31  1  6  0  0  0
M  END
>  <CHROM.1>
56.99579895,164.82514555,-72.02275296,-87.75784732,-71.87304045,-168.82673244
151.94486369,96.21558214,-30.94436646,124.08644017,-51.72661622,68.40474362
-58.07682558,-77.92764896,59.16077768,-76.28722197,0.33313941,0.65563801
3.76410531,1.61408145,0.12131142,-0.39138805

>  <Name>
lig.pdb

>  <RI>
0

>  <Rbt.Current_Directory>
/home/itssahil/PROJECTS/Mol_Feturizer/New_Systems/rnas/2n0j

>  <Rbt.Executable>
rbdock ($Id: //depot/dev/client3/rdock/2013.1/src/exe/rbdock.cxx#4 $)

>  <Rbt.Library>
libRbt.so (2013.1, Build901 2013/11/27)

>  <Rbt.Parameter_File>
/export/apps/rDock/src/rDock_2013.1_src/data/scripts/dock_solv.prm

>  <Rbt.Receptor>
prm/blind_docking_60.prm

>  <SCORE>
12.1853

>  <SCORE.INTER>
1.22935

>  <SCORE.INTER.CONST>
1

>  <SCORE.INTER.POLAR>
-5.38916

>  <SCORE.INTER.ROT>
6

>  <SCORE.INTER.SOLV>
25.8958

>  <SCORE.INTER.VDW>
2.55153

>  <SCORE.INTER.norm>
0.0396564

>  <SCORE.INTRA>
6.22253

>  <SCORE.INTRA.DIHEDRAL>
-4.55634

>  <SCORE.INTRA.DIHEDRAL.0>
28.0161

>  <SCORE.INTRA.POLAR>
0.481291

>  <SCORE.INTRA.POLAR.0>
-1.05798

>  <SCORE.INTRA.REPUL>
0

>  <SCORE.INTRA.REPUL.0>
0

>  <SCORE.INTRA.SOLV>
2.22007

>  <SCORE.INTRA.SOLV.lig_0>
-42.5945

>  <SCORE.INTRA.VDW>
5.75428

>  <SCORE.INTRA.VDW.0>
-5.13869

>  <SCORE.INTRA.norm>
0.200727

>  <SCORE.RESTR>
4.73342

>  <SCORE.RESTR.CAVITY>
4.73342

>  <SCORE.RESTR.norm>
0.152691

>  <SCORE.SYSTEM>
0

>  <SCORE.SYSTEM.CONST>
0

>  <SCORE.SYSTEM.DIHEDRAL>
0

>  <SCORE.SYSTEM.SOLV>
0

>  <SCORE.SYSTEM.norm>
0

>  <SCORE.heavy>
31

>  <SCORE.norm>
0.393074

>  <RMSD>
6.335

$$$$
lig.pdb
 OpenBabel11021811453D
libRbt.so/2013.1/901 2013/11/27
 31 33  0  0  0  0  0  0  0  0999 V2000
    3.9206    2.4324    2.2724 O   0  0  0  0  0  0  0  0  0  0  0  0
    3.7235    3.6962    1.6690 C   0  0  0  0  0  0  0  0  0  0  0  0
    2.2426    3.9403    1.3487 C   0  0  1  0  0  0  0  0  0  0  0  0
    1.5741    2.7393    0.9970 O   0  0  0  0  0  0  0  0  0  0  0  0
    0.1861    2.8598    1.2932 C   0  0  1  0  0  0  0  0  0  0  0  0
   -0.2592    1.7064    1.9968 O   0  0  0  0  0  0  0  0  0  0  0  0
   -0.4174    0.5121    1.2474 C   0  0  2  0  0  0  0  0  0  0  0  0
   -1.6926    0.6562    0.4016 C   0  0  1  0  0  0  0  0  0  0  0  0
   -1.4854    1.6247   -0.6146 O   0  0  0  0  0  0  0  0  0  0  0  0
   -2.1366   -0.6425   -0.2885 C   0  0  2  0  0  0  0  0  0  0  0  0
   -3.4115   -0.4544   -0.9981 N   0  0  0  0  0  0  0  0  0  0  0  0
   -2.2917   -1.7487    0.7485 C   0  0  0  0  0  0  0  0  0  0  0  0
   -0.9862   -1.9194    1.5157 C   0  0  2  0  0  0  0  0  0  0  0  0
   -1.1469   -3.0245    2.4668 N   0  0  0  0  0  0  0  0  0  0  0  0
   -0.6042   -0.6028    2.2259 C   0  0  1  0  0  0  0  0  0  0  0  0
    0.6194   -0.8838    2.9227 O   0  0  0  0  0  0  0  0  0  0  0  0
    1.0537    0.0724    3.8837 C   0  0  1  0  0  0  0  0  0  0  0  0
    0.3237   -0.0687    5.0994 O   0  0  0  0  0  0  0  0  0  0  0  0
    0.5759   -1.2531    5.8524 C   0  0  2  0  0  0  0  0  0  0  0  0
   -0.2906   -1.2309    7.1186 C   0  0  0  0  0  0  0  0  0  0  0  0
   -1.5579   -1.9183    6.9158 N   0  0  0  0  0  0  0  0  0  0  0  0
    2.0633   -1.3501    6.2394 C   0  0  1  0  0  0  0  0  0  0  0  0
    2.2994   -2.5614    6.9347 O   0  0  0  0  0  0  0  0  0  0  0  0
    2.9093   -1.3088    4.9607 C   0  0  2  0  0  0  0  0  0  0  0  0
    4.2862   -1.3079    5.2880 O   0  0  0  0  0  0  0  0  0  0  0  0
    2.5612   -0.0729    4.1203 C   0  0  1  0  0  0  0  0  0  0  0  0
    3.2842   -0.1121    2.8411 N   0  0  0  0  0  0  0  0  0  0  0  0
    0.0280    4.0990    2.1863 C   0  0  2  0  0  0  0  0  0  0  0  0
   -0.6063    5.1359    1.4611 O   0  0  0  0  0  0  0  0  0  0  0  0
    1.4699    4.4275    2.5703 C   0  0  2  0  0  0  0  0  0  0  0  0
    1.6814    5.7930    2.8703 O   0  0  0  0  0  0  0  0  0  0  0  0
  2  1  1  0  0  0  0
  3  2  1  1  0  0  0
  3 30  1  0  0  0  0
  4  5  1  0  0  0  0
  4  3  1  0  0  0  0
  5 28  1  0  0  0  0
  5  6  1  1  0  0  0
  7  6  1  1  0  0  0
  8  7  1  0  0  0  0
  8  9  1  6  0  0  0
 10 11  1  1  0  0  0
 10  8  1  0  0  0  0
 12 10  1  0  0  0  0
 13 12  1  0  0  0  0
 13 15  1  0  0  0  0
 13 14  1  1  0  0  0
 15  7  1  0  0  0  0
 15 16  1  6  0  0  0
 17 16  1  6  0  0  0
 18 17  1  0  0  0  0
 19 20  1  1  0  0  0
 19 18  1  0  0  0  0
 20 21  1  0  0  0  0
 22 24  1  0  0  0  0
 22 19  1  0  0  0  0
 22 23  1  6  0  0  0
 24 25  1  1  0  0  0
 24 26  1  0  0  0  0
 26 17  1  0  0  0  0
 26 27  1  6  0  0  0
 28 29  1  6  0  0  0
 28 30  1  0  0  0  0
 30 31  1  6  0  0  0
M  END
>  <CHROM.1>
-179.34856353,-33.44431741,-74.25190217,-74.45153167,65.24470411,179.51099417
62.55823791,71.77185136,78.62146860,92.92424132,-176.78880797,179.30952901
118.26205260,41.74203190,63.44035959,-175.93797582,0.58939098,0.61347205
2.83316465,-1.77399522,0.68646785,2.50288468

>  <Name>
lig.pdb

>  <RI>
1.55206e+07

>  <Rbt.Current_Directory>
/home/itssahil/PROJECTS/Mol_Feturizer/New_Systems/rnas/2n0j

>  <Rbt.Executable>
rbdock ($Id: //depot/dev/client3/rdock/2013.1/src/exe/rbdock.cxx#4 $)

>  <Rbt.Library>
libRbt.so (2013.1, Build901 2013/11/27)

>  <Rbt.Parameter_File>
/export/apps/rDock/src/rDock_2013.1_src/data/scripts/dock_solv.prm

>  <Rbt.Receptor>
prm/blind_docking_80.prm

>  <SCORE>
-40.3373

>  <SCORE.INTER>
-39.3963

>  <SCORE.INTER.CONST>
1

>  <SCORE.INTER.POLAR>
-4.74572

>  <SCORE.INTER.ROT>
6

>  <SCORE.INTER.SOLV>
24.8562

>  <SCORE.INTER.VDW>
-26.3305

>  <SCORE.INTER.norm>
-1.27085

>  <SCORE.INTRA>
-1.15042

>  <SCORE.INTRA.DIHEDRAL>
-10.0497

>  <SCORE.INTRA.DIHEDRAL.0>
28.0161

>  <SCORE.INTRA.POLAR>
0.789584

>  <SCORE.INTRA.POLAR.0>
-1.05798

>  <SCORE.INTRA.REPUL>
0

>  <SCORE.INTRA.REPUL.0>
0

>  <SCORE.INTRA.SOLV>
0.961329

>  <SCORE.INTRA.SOLV.lig_0>
-42.5945

>  <SCORE.INTRA.VDW>
0.709196

>  <SCORE.INTRA.VDW.0>
-5.13869

>  <SCORE.INTRA.norm>
-0.0371104

>  <SCORE.RESTR>
0.209443

>  <SCORE.RESTR.CAVITY>
0.209443

>  <SCORE.RESTR.norm>
0.00675622

>  <SCORE.SYSTEM>
0

>  <SCORE.SYSTEM.CONST>
0

>  <SCORE.SYSTEM.DIHEDRAL>
0

>  <SCORE.SYSTEM.SOLV>
0

>  <SCORE.SYSTEM.norm>
0

>  <SCORE.heavy>
31

>  <SCORE.norm>
-1.3012

>  <RMSD>
6.341

$$$$
lig.pdb
 OpenBabel11021811453D
libRbt.so/2013.1/901 2013/11/27
 31 33  0  0  0  0  0  0  0  0999 V2000
    2.0878    9.0339    0.9345 O   0  0  0  0  0  0  0  0  0  0  0  0
    1.6200    8.4236    2.1214 C   0  0  0  0  0  0  0  0  0  0  0  0
    1.8132    6.9016    2.0834 C   0  0  1  0  0  0  0  0  0  0  0  0
    0.7181    6.2159    2.6696 O   0  0  0  0  0  0  0  0  0  0  0  0
    0.6171    4.9095    2.1112 C   0  0  1  0  0  0  0  0  0  0  0  0
   -0.7301    4.6475    1.7369 O   0  0  0  0  0  0  0  0  0  0  0  0
   -1.5893    4.1230    2.7366 C   0  0  2  0  0  0  0  0  0  0  0  0
   -1.3617    4.9347    4.0217 C   0  0  1  0  0  0  0  0  0  0  0  0
   -1.8650    6.2504    3.8516 O   0  0  0  0  0  0  0  0  0  0  0  0
   -2.0418    4.3424    5.2654 C   0  0  2  0  0  0  0  0  0  0  0  0
   -1.7022    5.1140    6.4710 N   0  0  0  0  0  0  0  0  0  0  0  0
   -1.6043    2.8941    5.4500 C   0  0  0  0  0  0  0  0  0  0  0  0
   -1.9155    2.0993    4.1878 C   0  0  2  0  0  0  0  0  0  0  0  0
   -1.5352    0.7006    4.4133 N   0  0  0  0  0  0  0  0  0  0  0  0
   -1.1771    2.7057    2.9751 C   0  0  1  0  0  0  0  0  0  0  0  0
   -1.5276    1.8748    1.8578 O   0  0  0  0  0  0  0  0  0  0  0  0
   -0.4628    1.4090    1.0358 C   0  0  1  0  0  0  0  0  0  0  0  0
    0.7936    1.6108    1.6773 O   0  0  0  0  0  0  0  0  0  0  0  0
    1.0499    0.8086    2.8280 C   0  0  2  0  0  0  0  0  0  0  0  0
    2.4383    1.1595    3.3793 C   0  0  0  0  0  0  0  0  0  0  0  0
    3.4231    1.2892    2.3148 N   0  0  0  0  0  0  0  0  0  0  0  0
    0.9915   -0.6895    2.4758 C   0  0  1  0  0  0  0  0  0  0  0  0
    1.1908   -1.4646    3.6445 O   0  0  0  0  0  0  0  0  0  0  0  0
   -0.3833   -1.0007    1.8712 C   0  0  2  0  0  0  0  0  0  0  0  0
   -0.4376   -2.3525    1.4558 O   0  0  0  0  0  0  0  0  0  0  0  0
   -0.6791   -0.0683    0.6887 C   0  0  1  0  0  0  0  0  0  0  0  0
   -2.0477   -0.2901    0.2007 N   0  0  0  0  0  0  0  0  0  0  0  0
    1.5102    4.8896    0.8622 C   0  0  2  0  0  0  0  0  0  0  0  0
    2.6551    4.0929    1.1032 O   0  0  0  0  0  0  0  0  0  0  0  0
    1.8379    6.3674    0.6548 C   0  0  2  0  0  0  0  0  0  0  0  0
    3.0631    6.5897   -0.0150 O   0  0  0  0  0  0  0  0  0  0  0  0
  2  1  1  0  0  0  0
  3  2  1  6  0  0  0
  3 30  1  0  0  0  0
  4  5  1  0  0  0  0
  4  3  1  0  0  0  0
  5 28  1  0  0  0  0
  5  6  1  6  0  0  0
  7  6  1  6  0  0  0
  8  7  1  0  0  0  0
  8  9  1  6  0  0  0
 10 11  1  1  0  0  0
 10  8  1  0  0  0  0
 12 10  1  0  0  0  0
 13 12  1  0  0  0  0
 13 15  1  0  0  0  0
 13 14  1  1  0  0  0
 15  7  1  0  0  0  0
 15 16  1  6  0  0  0
 17 16  1  1  0  0  0
 18 17  1  0  0  0  0
 19 20  1  6  0  0  0
 19 18  1  0  0  0  0
 20 21  1  0  0  0  0
 22 24  1  0  0  0  0
 22 19  1  0  0  0  0
 22 23  1  1  0  0  0
 24 25  1  6  0  0  0
 24 26  1  0  0  0  0
 26 17  1  0  0  0  0
 26 27  1  1  0  0  0
 28 29  1  1  0  0  0
 28 30  1  0  0  0  0
 30 31  1  1  0  0  0
M  END
>  <CHROM.1>
70.10753475,-141.33614833,-86.64514852,45.29199175,-71.25645263,165.46828902
-55.49950077,108.33021524,13.79598076,-43.43807412,-42.73257837,170.43510084
-43.62467123,78.62955810,-57.16997122,62.00027295,0.18175414,3.13874535,2.47471279
-1.31226009,-0.74010154,-3.01620364

>  <Name>
lig.pdb

>  <RI>
3.33129e+07

>  <Rbt.Current_Directory>
/home/itssahil/PROJECTS/Mol_Feturizer/New_Systems/rnas/2n0j

>  <Rbt.Executable>
rbdock ($Id: //depot/dev/client3/rdock/2013.1/src/exe/rbdock.cxx#4 $)

>  <Rbt.Library>
libRbt.so (2013.1, Build901 2013/11/27)

>  <Rbt.Parameter_File>
/export/apps/rDock/src/rDock_2013.1_src/data/scripts/dock_solv.prm

>  <Rbt.Receptor>
prm/pocket_docking_4.prm

>  <SCORE>
-39.3004

>  <SCORE.INTER>
-41.949

>  <SCORE.INTER.CONST>
1

>  <SCORE.INTER.POLAR>
-5.44694

>  <SCORE.INTER.ROT>
6

>  <SCORE.INTER.SOLV>
16.2384

>  <SCORE.INTER.VDW>
-22.8223

>  <SCORE.INTER.norm>
-1.35319

>  <SCORE.INTRA>
2.56743

>  <SCORE.INTRA.DIHEDRAL>
-1.3488

>  <SCORE.INTRA.DIHEDRAL.0>
28.0161

>  <SCORE.INTRA.POLAR>
-0.627423

>  <SCORE.INTRA.POLAR.0>
-1.05798

>  <SCORE.INTRA.REPUL>
0

>  <SCORE.INTRA.REPUL.0>
0

>  <SCORE.INTRA.SOLV>
3.11262

>  <SCORE.INTRA.SOLV.lig_0>
-42.5945

>  <SCORE.INTRA.VDW>
3.81876

>  <SCORE.INTRA.VDW.0>
-5.13869

>  <SCORE.INTRA.norm>
0.0828204

>  <SCORE.RESTR>
0.0811571

>  <SCORE.RESTR.CAVITY>
0.0811571

>  <SCORE.RESTR.norm>
0.00261797

>  <SCORE.SYSTEM>
0

>  <SCORE.SYSTEM.CONST>
0

>  <SCORE.SYSTEM.DIHEDRAL>
0

>  <SCORE.SYSTEM.SOLV>
0

>  <SCORE.SYSTEM.norm>
0

>  <SCORE.heavy>
31

>  <SCORE.norm>
-1.26775

>  <RMSD>
6.341

$$$$
lig.pdb
 OpenBabel11021811453D
libRbt.so/2013.1/901 2013/11/27
 31 33  0  0  0  0  0  0  0  0999 V2000
   -0.6773    6.4517    2.2225 O   0  0  0  0  0  0  0  0  0  0  0  0
    0.5931    6.6674    2.8053 C   0  0  0  0  0  0  0  0  0  0  0  0
    1.5355    5.4832    2.5509 C   0  0  1  0  0  0  0  0  0  0  0  0
    1.2170    4.3700    3.3708 O   0  0  0  0  0  0  0  0  0  0  0  0
    1.6496    3.1698    2.7373 C   0  0  1  0  0  0  0  0  0  0  0  0
    0.6061    2.2033    2.7706 O   0  0  0  0  0  0  0  0  0  0  0  0
    0.5723    1.2510    1.7196 C   0  0  2  0  0  0  0  0  0  0  0  0
   -0.6496    1.5660    0.8422 C   0  0  1  0  0  0  0  0  0  0  0  0
   -0.4345    2.7809    0.1414 O   0  0  0  0  0  0  0  0  0  0  0  0
   -0.9657    0.4854   -0.2029 C   0  0  2  0  0  0  0  0  0  0  0  0
   -2.1991    0.8059   -0.9378 N   0  0  0  0  0  0  0  0  0  0  0  0
   -1.1219   -0.8655    0.4854 C   0  0  0  0  0  0  0  0  0  0  0  0
    0.1371   -1.1837    1.2828 C   0  0  2  0  0  0  0  0  0  0  0  0
   -0.0190   -2.5105    1.8884 N   0  0  0  0  0  0  0  0  0  0  0  0
    0.3890   -0.0938    2.3469 C   0  0  1  0  0  0  0  0  0  0  0  0
    1.5779   -0.5024    3.0405 O   0  0  0  0  0  0  0  0  0  0  0  0
    1.9420    0.2412    4.1985 C   0  0  1  0  0  0  0  0  0  0  0  0
    0.7894    0.8075    4.8160 O   0  0  0  0  0  0  0  0  0  0  0  0
   -0.1120   -0.1108    5.4306 C   0  0  2  0  0  0  0  0  0  0  0  0
   -1.2821    0.6733    6.0392 C   0  0  0  0  0  0  0  0  0  0  0  0
   -2.2468   -0.2096    6.6792 N   0  0  0  0  0  0  0  0  0  0  0  0
    0.5984   -0.9242    6.5285 C   0  0  1  0  0  0  0  0  0  0  0  0
   -0.3005   -1.8683    7.0827 O   0  0  0  0  0  0  0  0  0  0  0  0
    1.7986   -1.6490    5.9066 C   0  0  2  0  0  0  0  0  0  0  0  0
    2.5246   -2.3363    6.9084 O   0  0  0  0  0  0  0  0  0  0  0  0
    2.7115   -0.6561    5.1745 C   0  0  1  0  0  0  0  0  0  0  0  0
    3.7856   -1.3775    4.4770 N   0  0  0  0  0  0  0  0  0  0  0  0
    1.9714    3.5278    1.2790 C   0  0  2  0  0  0  0  0  0  0  0  0
    3.3709    3.4831    1.0713 O   0  0  0  0  0  0  0  0  0  0  0  0
    1.3861    4.9319    1.1365 C   0  0  2  0  0  0  0  0  0  0  0  0
    2.0250    5.7168    0.1491 O   0  0  0  0  0  0  0  0  0  0  0  0
  2  1  1  0  0  0  0
  3  2  1  6  0  0  0
  3 30  1  0  0  0  0
  4  5  1  0  0  0  0
  4  3  1  0  0  0  0
  5 28  1  0  0  0  0
  5  6  1  6  0  0  0
  7  6  1  1  0  0  0
  8  7  1  0  0  0  0
  8  9  1  6  0  0  0
 10 11  1  1  0  0  0
 10  8  1  0  0  0  0
 12 10  1  0  0  0  0
 13 12  1  0  0  0  0
 13 15  1  0  0  0  0
 13 14  1  1  0  0  0
 15  7  1  0  0  0  0
 15 16  1  6  0  0  0
 17 16  1  6  0  0  0
 18 17  1  0  0  0  0
 19 20  1  1  0  0  0
 19 18  1  0  0  0  0
 20 21  1  0  0  0  0
 22 24  1  0  0  0  0
 22 19  1  0  0  0  0
 22 23  1  6  0  0  0
 24 25  1  1  0  0  0
 24 26  1  0  0  0  0
 26 17  1  0  0  0  0
 26 27  1  6  0  0  0
 28 29  1  1  0  0  0
 28 30  1  0  0  0  0
 30 31  1  6  0  0  0
M  END
>  <CHROM.1>
-70.05900775,-75.30861156,151.13471511,-110.12485727,-73.16348171,79.23566107
-29.39859963,67.15214198,28.06631044,179.69835074,47.98702570,-175.09841636
-152.53985650,-166.52886732,-47.05621291,-51.05232623,0.67650333,1.29865440
3.03946826,-1.58827517,1.12862503,2.52165895

>  <Name>
lig.pdb

>  <RI>
0

>  <Rbt.Current_Directory>
/home/itssahil/PROJECTS/Mol_Feturizer/New_Systems/rnas/2n0j

>  <Rbt.Executable>
rbdock ($Id: //depot/dev/client3/rdock/2013.1/src/exe/rbdock.cxx#4 $)

>  <Rbt.Library>
libRbt.so (2013.1, Build901 2013/11/27)

>  <Rbt.Parameter_File>
/export/apps/rDock/src/rDock_2013.1_src/data/scripts/dock_solv.prm

>  <Rbt.Receptor>
prm/blind_docking_40.prm

>  <SCORE>
-7.11884

>  <SCORE.INTER>
-18.1867

>  <SCORE.INTER.CONST>
1

>  <SCORE.INTER.POLAR>
-4.835

>  <SCORE.INTER.ROT>
6

>  <SCORE.INTER.SOLV>
24.0095

>  <SCORE.INTER.VDW>
-11.611

>  <SCORE.INTER.norm>
-0.586669

>  <SCORE.INTRA>
9.05595

>  <SCORE.INTRA.DIHEDRAL>
-3.44799

>  <SCORE.INTRA.DIHEDRAL.0>
28.0161

>  <SCORE.INTRA.POLAR>
0.248093

>  <SCORE.INTRA.POLAR.0>
-1.05798

>  <SCORE.INTRA.REPUL>
0.0255253

>  <SCORE.INTRA.REPUL.0>
0

>  <SCORE.INTRA.SOLV>
1.88029

>  <SCORE.INTRA.SOLV.lig_0>
-42.5945

>  <SCORE.INTRA.VDW>
8.86866

>  <SCORE.INTRA.VDW.0>
-5.13869

>  <SCORE.INTRA.norm>
0.292127

>  <SCORE.RESTR>
2.01196

>  <SCORE.RESTR.CAVITY>
2.01196

>  <SCORE.RESTR.norm>
0.0649019

>  <SCORE.SYSTEM>
0

>  <SCORE.SYSTEM.CONST>
0

>  <SCORE.SYSTEM.DIHEDRAL>
0

>  <SCORE.SYSTEM.SOLV>
0

>  <SCORE.SYSTEM.norm>
0

>  <SCORE.heavy>
31

>  <SCORE.norm>
-0.22964

>  <RMSD>
6.351

$$$$
lig.pdb
 OpenBabel11021811453D
libRbt.so/2013.1/901 2013/11/27
 31 33  0  0  0  0  0  0  0  0999 V2000
    4.6893    2.1837    1.1681 O   0  0  0  0  0  0  0  0  0  0  0  0
    4.0217    3.0007    2.1099 C   0  0  0  0  0  0  0  0  0  0  0  0
    2.6639    3.4774    1.5765 C   0  0  1  0  0  0  0  0  0  0  0  0
    1.8584    2.3938    1.1408 O   0  0  0  0  0  0  0  0  0  0  0  0
    0.4831    2.7530    1.2318 C   0  0  1  0  0  0  0  0  0  0  0  0
   -0.2461    1.7128    1.8722 O   0  0  0  0  0  0  0  0  0  0  0  0
   -0.4032    0.4976    1.1571 C   0  0  2  0  0  0  0  0  0  0  0  0
   -1.6784    0.6165    0.3074 C   0  0  1  0  0  0  0  0  0  0  0  0
   -1.4718    1.5558   -0.7359 O   0  0  0  0  0  0  0  0  0  0  0  0
   -2.1212   -0.7017   -0.3455 C   0  0  2  0  0  0  0  0  0  0  0  0
   -3.3961   -0.5349   -1.0604 N   0  0  0  0  0  0  0  0  0  0  0  0
   -2.2756   -1.7780    0.7226 C   0  0  0  0  0  0  0  0  0  0  0  0
   -0.9702   -1.9257    1.4946 C   0  0  2  0  0  0  0  0  0  0  0  0
   -1.1302   -3.0034    2.4768 N   0  0  0  0  0  0  0  0  0  0  0  0
   -0.5893   -0.5891    2.1670 C   0  0  1  0  0  0  0  0  0  0  0  0
    0.6343   -0.8493    2.8717 O   0  0  0  0  0  0  0  0  0  0  0  0
    1.1491    0.1978    3.6872 C   0  0  1  0  0  0  0  0  0  0  0  0
    0.5131    0.2016    4.9624 O   0  0  0  0  0  0  0  0  0  0  0  0
    0.8119   -0.8984    5.8192 C   0  0  2  0  0  0  0  0  0  0  0  0
    0.0450   -0.7246    7.1369 C   0  0  0  0  0  0  0  0  0  0  0  0
   -1.3020   -1.2706    7.0519 N   0  0  0  0  0  0  0  0  0  0  0  0
    2.3237   -0.9781    6.1017 C   0  0  1  0  0  0  0  0  0  0  0  0
    2.6018   -2.1109    6.9054 O   0  0  0  0  0  0  0  0  0  0  0  0
    3.0697   -1.0899    4.7662 C   0  0  2  0  0  0  0  0  0  0  0  0
    4.4676   -1.0769    4.9870 O   0  0  0  0  0  0  0  0  0  0  0  0
    2.6690    0.0535    3.8243 C   0  0  1  0  0  0  0  0  0  0  0  0
    3.2917   -0.1362    2.5064 N   0  0  0  0  0  0  0  0  0  0  0  0
    0.4122    4.0291    2.0832 C   0  0  2  0  0  0  0  0  0  0  0  0
    0.0718    5.1334    1.2658 O   0  0  0  0  0  0  0  0  0  0  0  0
    1.8198    4.1252    2.6695 C   0  0  2  0  0  0  0  0  0  0  0  0
    2.2148    5.4453    2.9865 O   0  0  0  0  0  0  0  0  0  0  0  0
  2  1  1  0  0  0  0
  3  2  1  1  0  0  0
  3 30  1  0  0  0  0
  4  5  1  0  0  0  0
  4  3  1  0  0  0  0
  5 28  1  0  0  0  0
  5  6  1  1  0  0  0
  7  6  1  1  0  0  0
  8  7  1  0  0  0  0
  8  9  1  6  0  0  0
 10 11  1  1  0  0  0
 10  8  1  0  0  0  0
 12 10  1  0  0  0  0
 13 12  1  0  0  0  0
 13 15  1  0  0  0  0
 13 14  1  1  0  0  0
 15  7  1  0  0  0  0
 15 16  1  6  0  0  0
 17 16  1  6  0  0  0
 18 17  1  0  0  0  0
 19 20  1  1  0  0  0
 19 18  1  0  0  0  0
 20 21  1  0  0  0  0
 22 24  1  0  0  0  0
 22 19  1  0  0  0  0
 22 23  1  1  0  0  0
 24 25  1  1  0  0  0
 24 26  1  0  0  0  0
 26 17  1  0  0  0  0
 26 27  1  6  0  0  0
 28 29  1  6  0  0  0
 28 30  1  0  0  0  0
 30 31  1  6  0  0  0
M  END
>  <CHROM.1>
63.72394370,53.53032602,-69.28591571,-88.71706431,179.83533202,66.56754447
179.66908396,64.67433676,82.91107640,86.12589941,69.54232266,-60.23042695
-178.38095719,161.19587751,-56.90964737,-56.20087396,0.79570021,0.63577709
2.73791166,-1.97145390,0.65678033,2.40147720

>  <Name>
lig.pdb

>  <RI>
0

>  <Rbt.Current_Directory>
/home/itssahil/PROJECTS/Mol_Feturizer/New_Systems/rnas/2n0j

>  <Rbt.Executable>
rbdock ($Id: //depot/dev/client3/rdock/2013.1/src/exe/rbdock.cxx#4 $)

>  <Rbt.Library>
libRbt.so (2013.1, Build901 2013/11/27)

>  <Rbt.Parameter_File>
/export/apps/rDock/src/rDock_2013.1_src/data/scripts/dock_solv.prm

>  <Rbt.Receptor>
prm/blind_docking_40.prm

>  <SCORE>
-41.493

>  <SCORE.INTER>
-35.5905

>  <SCORE.INTER.CONST>
1

>  <SCORE.INTER.POLAR>
-3.56814

>  <SCORE.INTER.ROT>
6

>  <SCORE.INTER.SOLV>
24.7168

>  <SCORE.INTER.VDW>
-27.6721

>  <SCORE.INTER.norm>
-1.14808

>  <SCORE.INTRA>
-6.01518

>  <SCORE.INTRA.DIHEDRAL>
-17.913

>  <SCORE.INTRA.DIHEDRAL.0>
28.0161

>  <SCORE.INTRA.POLAR>
0.397106

>  <SCORE.INTRA.POLAR.0>
-1.05798

>  <SCORE.INTRA.REPUL>
0

>  <SCORE.INTRA.REPUL.0>
0

>  <SCORE.INTRA.SOLV>
0.16264

>  <SCORE.INTRA.SOLV.lig_0>
-42.5945

>  <SCORE.INTRA.VDW>
1.50981

>  <SCORE.INTRA.VDW.0>
-5.13869

>  <SCORE.INTRA.norm>
-0.194038

>  <SCORE.RESTR>
0.112635

>  <SCORE.RESTR.CAVITY>
0.112635

>  <SCORE.RESTR.norm>
0.0036334

>  <SCORE.SYSTEM>
0

>  <SCORE.SYSTEM.CONST>
0

>  <SCORE.SYSTEM.DIHEDRAL>
0

>  <SCORE.SYSTEM.SOLV>
0

>  <SCORE.SYSTEM.norm>
0

>  <SCORE.heavy>
31

>  <SCORE.norm>
-1.33848

>  <RMSD>
6.357

$$$$
lig.pdb
 OpenBabel11021811453D
libRbt.so/2013.1/901 2013/11/27
 31 33  0  0  0  0  0  0  0  0999 V2000
    3.7347    5.2632    0.5131 O   0  0  0  0  0  0  0  0  0  0  0  0
    2.5349    5.9933    0.6790 C   0  0  0  0  0  0  0  0  0  0  0  0
    1.4105    5.1068    1.2314 C   0  0  1  0  0  0  0  0  0  0  0  0
    1.3502    3.8553    0.5658 O   0  0  0  0  0  0  0  0  0  0  0  0
    0.7729    2.8811    1.4298 C   0  0  1  0  0  0  0  0  0  0  0  0
    1.5652    1.6996    1.4227 O   0  0  0  0  0  0  0  0  0  0  0  0
    0.9367    0.5014    0.9959 C   0  0  2  0  0  0  0  0  0  0  0  0
   -0.2736    0.8903    0.1320 C   0  0  1  0  0  0  0  0  0  0  0  0
    0.1734    1.4493   -1.0932 O   0  0  0  0  0  0  0  0  0  0  0  0
   -1.2004   -0.2853   -0.2132 C   0  0  2  0  0  0  0  0  0  0  0  0
   -2.3835    0.1754   -0.9563 N   0  0  0  0  0  0  0  0  0  0  0  0
   -1.6452   -0.9824    1.0671 C   0  0  0  0  0  0  0  0  0  0  0  0
   -0.4226   -1.4247    1.8618 C   0  0  2  0  0  0  0  0  0  0  0  0
   -0.8795   -2.1393    3.0587 N   0  0  0  0  0  0  0  0  0  0  0  0
    0.4543   -0.2060    2.2215 C   0  0  1  0  0  0  0  0  0  0  0  0
    1.5559   -0.7352    2.9752 O   0  0  0  0  0  0  0  0  0  0  0  0
    2.0431    0.0547    4.0546 C   0  0  1  0  0  0  0  0  0  0  0  0
    0.9712    0.7266    4.7106 O   0  0  0  0  0  0  0  0  0  0  0  0
    0.0662   -0.0961    5.4438 C   0  0  2  0  0  0  0  0  0  0  0  0
   -1.0116    0.7932    6.0779 C   0  0  0  0  0  0  0  0  0  0  0  0
   -1.8844    0.0340    6.9620 N   0  0  0  0  0  0  0  0  0  0  0  0
    0.8068   -0.8820    6.5418 C   0  0  1  0  0  0  0  0  0  0  0  0
   -0.1016   -1.7342    7.2164 O   0  0  0  0  0  0  0  0  0  0  0  0
    1.9168   -1.7148    5.8886 C   0  0  2  0  0  0  0  0  0  0  0  0
    2.6731   -2.3820    6.8816 O   0  0  0  0  0  0  0  0  0  0  0  0
    2.8291   -0.8258    5.0327 C   0  0  1  0  0  0  0  0  0  0  0  0
    3.8084   -1.6522    4.3127 N   0  0  0  0  0  0  0  0  0  0  0  0
    0.7662    3.4865    2.8410 C   0  0  2  0  0  0  0  0  0  0  0  0
   -0.5602    3.7999    3.2229 O   0  0  0  0  0  0  0  0  0  0  0  0
    1.6554    4.7193    2.6863 C   0  0  2  0  0  0  0  0  0  0  0  0
    1.3621    5.7512    3.6073 O   0  0  0  0  0  0  0  0  0  0  0  0
  2  1  1  0  0  0  0
  3  2  1  6  0  0  0
  3 30  1  0  0  0  0
  4  5  1  0  0  0  0
  4  3  1  0  0  0  0
  5 28  1  0  0  0  0
  5  6  1  1  0  0  0
  7  6  1  1  0  0  0
  8  7  1  0  0  0  0
  8  9  1  6  0  0  0
 10 11  1  1  0  0  0
 10  8  1  0  0  0  0
 12 10  1  0  0  0  0
 13 12  1  0  0  0  0
 13 15  1  0  0  0  0
 13 14  1  1  0  0  0
 15  7  1  0  0  0  0
 15 16  1  6  0  0  0
 17 16  1  6  0  0  0
 18 17  1  0  0  0  0
 19 20  1  1  0  0  0
 19 18  1  0  0  0  0
 20 21  1  0  0  0  0
 22 24  1  0  0  0  0
 22 19  1  0  0  0  0
 22 23  1  6  0  0  0
 24 25  1  1  0  0  0
 24 26  1  0  0  0  0
 26 17  1  0  0  0  0
 26 27  1  6  0  0  0
 28 29  1  6  0  0  0
 28 30  1  0  0  0  0
 30 31  1  1  0  0  0
M  END
>  <CHROM.1>
-67.02931257,-45.06834369,-120.10754737,22.22687384,77.02746962,-85.07248721
-73.40314974,95.92064874,36.37229151,-173.71142590,52.77889013,59.08527956
-13.68730391,-172.13483606,173.09942259,-54.21732704,0.73928160,1.03212210
2.97207845,-1.43796796,1.03695104,2.28460038

>  <Name>
lig.pdb

>  <RI>
9.20816e+06

>  <Rbt.Current_Directory>
/home/itssahil/PROJECTS/Mol_Feturizer/New_Systems/rnas/2n0j

>  <Rbt.Executable>
rbdock ($Id: //depot/dev/client3/rdock/2013.1/src/exe/rbdock.cxx#4 $)

>  <Rbt.Library>
libRbt.so (2013.1, Build901 2013/11/27)

>  <Rbt.Parameter_File>
/export/apps/rDock/src/rDock_2013.1_src/data/scripts/dock_solv.prm

>  <Rbt.Receptor>
prm/blind_docking_100.prm

>  <SCORE>
-18.164

>  <SCORE.INTER>
-30.9796

>  <SCORE.INTER.CONST>
1

>  <SCORE.INTER.POLAR>
-4.78725

>  <SCORE.INTER.ROT>
6

>  <SCORE.INTER.SOLV>
23.7018

>  <SCORE.INTER.VDW>
-20.1962

>  <SCORE.INTER.norm>
-0.999343

>  <SCORE.INTRA>
10.4176

>  <SCORE.INTRA.DIHEDRAL>
2.80723

>  <SCORE.INTRA.DIHEDRAL.0>
28.0161

>  <SCORE.INTRA.POLAR>
0.65633

>  <SCORE.INTRA.POLAR.0>
-1.05798

>  <SCORE.INTRA.REPUL>
0

>  <SCORE.INTRA.REPUL.0>
0

>  <SCORE.INTRA.SOLV>
1.37445

>  <SCORE.INTRA.SOLV.lig_0>
-42.5945

>  <SCORE.INTRA.VDW>
6.09521

>  <SCORE.INTRA.VDW.0>
-5.13869

>  <SCORE.INTRA.norm>
0.336051

>  <SCORE.RESTR>
2.39806

>  <SCORE.RESTR.CAVITY>
2.39806

>  <SCORE.RESTR.norm>
0.0773568

>  <SCORE.SYSTEM>
0

>  <SCORE.SYSTEM.CONST>
0

>  <SCORE.SYSTEM.DIHEDRAL>
0

>  <SCORE.SYSTEM.SOLV>
0

>  <SCORE.SYSTEM.norm>
0

>  <SCORE.heavy>
31

>  <SCORE.norm>
-0.585935

>  <RMSD>
6.359

$$$$
lig.pdb
 OpenBabel11021811453D
libRbt.so/2013.1/901 2013/11/27
 31 33  0  0  0  0  0  0  0  0999 V2000
   -1.6655   -2.6837    4.9889 O   0  0  0  0  0  0  0  0  0  0  0  0
   -2.0213   -1.5303    4.2519 C   0  0  0  0  0  0  0  0  0  0  0  0
   -0.7838   -0.8283    3.6764 C   0  0  1  0  0  0  0  0  0  0  0  0
   -1.1157    0.4071    3.0627 O   0  0  0  0  0  0  0  0  0  0  0  0
    0.0138    1.2744    3.0914 C   0  0  1  0  0  0  0  0  0  0  0  0
   -0.3774    2.5613    3.5546 O   0  0  0  0  0  0  0  0  0  0  0  0
   -0.1828    3.6540    2.6708 C   0  0  2  0  0  0  0  0  0  0  0  0
    1.2999    4.0527    2.7396 C   0  0  1  0  0  0  0  0  0  0  0  0
    2.0957    3.0391    2.1457 O   0  0  0  0  0  0  0  0  0  0  0  0
    1.6281    5.3707    2.0217 C   0  0  2  0  0  0  0  0  0  0  0  0
    3.0400    5.7379    2.2109 N   0  0  0  0  0  0  0  0  0  0  0  0
    0.7378    6.4847    2.5598 C   0  0  0  0  0  0  0  0  0  0  0  0
   -0.7262    6.0915    2.4048 C   0  0  2  0  0  0  0  0  0  0  0  0
   -1.5588    7.2022    2.8791 N   0  0  0  0  0  0  0  0  0  0  0  0
   -1.0169    4.7867    3.1773 C   0  0  1  0  0  0  0  0  0  0  0  0
   -2.4142    4.5247    2.9758 O   0  0  0  0  0  0  0  0  0  0  0  0
   -2.9272    3.3026    3.4952 C   0  0  1  0  0  0  0  0  0  0  0  0
   -2.6610    3.1979    4.8912 O   0  0  0  0  0  0  0  0  0  0  0  0
   -3.3702    4.1002    5.7376 C   0  0  2  0  0  0  0  0  0  0  0  0
   -2.9605    3.8418    7.1936 C   0  0  0  0  0  0  0  0  0  0  0  0
   -1.7410    4.5555    7.5444 N   0  0  0  0  0  0  0  0  0  0  0  0
   -4.8913    3.9159    5.5828 C   0  0  1  0  0  0  0  0  0  0  0  0
   -5.5728    4.8612    6.3880 O   0  0  0  0  0  0  0  0  0  0  0  0
   -5.2653    4.1193    4.1093 C   0  0  2  0  0  0  0  0  0  0  0  0
   -6.6453    3.8701    3.9185 O   0  0  0  0  0  0  0  0  0  0  0  0
   -4.4292    3.2023    3.2063 C   0  0  1  0  0  0  0  0  0  0  0  0
   -4.7052    3.4972    1.7930 N   0  0  0  0  0  0  0  0  0  0  0  0
    1.0216    0.6597    4.0736 C   0  0  2  0  0  0  0  0  0  0  0  0
    2.1332    0.1469    3.3629 O   0  0  0  0  0  0  0  0  0  0  0  0
    0.2001   -0.4242    4.7698 C   0  0  2  0  0  0  0  0  0  0  0  0
    0.9767   -1.4983    5.2621 O   0  0  0  0  0  0  0  0  0  0  0  0
  2  1  1  0  0  0  0
  3  2  1  1  0  0  0
  3 30  1  0  0  0  0
  4  5  1  0  0  0  0
  4  3  1  0  0  0  0
  5 28  1  0  0  0  0
  5  6  1  1  0  0  0
  7  6  1  1  0  0  0
  8  7  1  0  0  0  0
  8  9  1  6  0  0  0
 10 11  1  1  0  0  0
 10  8  1  0  0  0  0
 12 10  1  0  0  0  0
 13 12  1  0  0  0  0
 13 15  1  0  0  0  0
 13 14  1  1  0  0  0
 15  7  1  0  0  0  0
 15 16  1  6  0  0  0
 17 16  1  1  0  0  0
 18 17  1  0  0  0  0
 19 20  1  1  0  0  0
 19 18  1  0  0  0  0
 20 21  1  0  0  0  0
 22 24  1  0  0  0  0
 22 19  1  0  0  0  0
 22 23  1  1  0  0  0
 24 25  1  1  0  0  0
 24 26  1  0  0  0  0
 26 17  1  0  0  0  0
 26 27  1  6  0  0  0
 28 29  1  6  0  0  0
 28 30  1  0  0  0  0
 30 31  1  6  0  0  0
M  END
>  <CHROM.1>
-51.90982359,-173.48460033,-119.35782193,-79.47893741,59.19512509,-56.09340456
165.96105048,53.99322552,55.88712167,84.56999711,-63.25756393,74.65892885
-175.46552372,38.63175065,178.00443337,-179.11766667,-1.41166425,2.94198601
3.87389919,0.67838076,-0.32657789,2.91811942

>  <Name>
lig.pdb

>  <RI>
0

>  <Rbt.Current_Directory>
/home/itssahil/PROJECTS/Mol_Feturizer/New_Systems/rnas/2n0j

>  <Rbt.Executable>
rbdock ($Id: //depot/dev/client3/rdock/2013.1/src/exe/rbdock.cxx#4 $)

>  <Rbt.Library>
libRbt.so (2013.1, Build901 2013/11/27)

>  <Rbt.Parameter_File>
/export/apps/rDock/src/rDock_2013.1_src/data/scripts/dock_solv.prm

>  <Rbt.Receptor>
prm/pocket_docking_8.prm

>  <SCORE>
-38.8345

>  <SCORE.INTER>
-38.9359

>  <SCORE.INTER.CONST>
1

>  <SCORE.INTER.POLAR>
-4.81074

>  <SCORE.INTER.ROT>
6

>  <SCORE.INTER.SOLV>
15.7191

>  <SCORE.INTER.VDW>
-22.7612

>  <SCORE.INTER.norm>
-1.256

>  <SCORE.INTRA>
0.101459

>  <SCORE.INTRA.DIHEDRAL>
-13.4631

>  <SCORE.INTRA.DIHEDRAL.0>
28.0161

>  <SCORE.INTRA.POLAR>
1.05798

>  <SCORE.INTRA.POLAR.0>
-1.05798

>  <SCORE.INTRA.REPUL>
0.0367278

>  <SCORE.INTRA.REPUL.0>
0

>  <SCORE.INTRA.SOLV>
0.184629

>  <SCORE.INTRA.SOLV.lig_0>
-42.5945

>  <SCORE.INTRA.VDW>
2.95992

>  <SCORE.INTRA.VDW.0>
-5.13869

>  <SCORE.INTRA.norm>
0.00327286

>  <SCORE.RESTR>
0

>  <SCORE.RESTR.CAVITY>
0

>  <SCORE.RESTR.norm>
0

>  <SCORE.SYSTEM>
0

>  <SCORE.SYSTEM.CONST>
0

>  <SCORE.SYSTEM.DIHEDRAL>
0

>  <SCORE.SYSTEM.SOLV>
0

>  <SCORE.SYSTEM.norm>
0

>  <SCORE.heavy>
31

>  <SCORE.norm>
-1.25272

>  <RMSD>
6.360

$$$$
lig.pdb
 OpenBabel11021811453D
libRbt.so/2013.1/901 2013/11/27
 31 33  0  0  0  0  0  0  0  0999 V2000
   -0.9580   -1.4824    1.2073 O   0  0  0  0  0  0  0  0  0  0  0  0
   -1.5988   -0.5770    2.0847 C   0  0  0  0  0  0  0  0  0  0  0  0
   -2.2382   -1.3058    3.2743 C   0  0  1  0  0  0  0  0  0  0  0  0
   -1.8514   -0.7333    4.5135 O   0  0  0  0  0  0  0  0  0  0  0  0
   -2.8553   -0.9863    5.4917 C   0  0  1  0  0  0  0  0  0  0  0  0
   -3.1613    0.2142    6.1910 O   0  0  0  0  0  0  0  0  0  0  0  0
   -2.0699    0.9545    6.7142 C   0  0  2  0  0  0  0  0  0  0  0  0
   -1.4382    0.1226    7.8417 C   0  0  1  0  0  0  0  0  0  0  0  0
   -0.7943   -1.0163    7.2923 O   0  0  0  0  0  0  0  0  0  0  0  0
   -0.3923    0.8833    8.6709 C   0  0  2  0  0  0  0  0  0  0  0  0
    0.0970    0.0601    9.7875 N   0  0  0  0  0  0  0  0  0  0  0  0
   -1.0048    2.1675    9.2176 C   0  0  0  0  0  0  0  0  0  0  0  0
   -1.5512    3.0053    8.0681 C   0  0  2  0  0  0  0  0  0  0  0  0
   -2.0840    4.2569    8.6171 N   0  0  0  0  0  0  0  0  0  0  0  0
   -2.6274    2.2158    7.2919 C   0  0  1  0  0  0  0  0  0  0  0  0
   -3.0778    3.0999    6.2541 O   0  0  0  0  0  0  0  0  0  0  0  0
   -2.4010    3.0312    5.0036 C   0  0  1  0  0  0  0  0  0  0  0  0
   -3.1358    2.2365    4.0767 O   0  0  0  0  0  0  0  0  0  0  0  0
   -4.3705    2.7829    3.6178 C   0  0  2  0  0  0  0  0  0  0  0  0
   -5.0150    1.7973    2.6340 C   0  0  0  0  0  0  0  0  0  0  0  0
   -6.4687    1.8412    2.7027 N   0  0  0  0  0  0  0  0  0  0  0  0
   -4.1456    4.1398    2.9252 C   0  0  1  0  0  0  0  0  0  0  0  0
   -5.3905    4.6888    2.5312 O   0  0  0  0  0  0  0  0  0  0  0  0
   -3.4460    5.0858    3.9092 C   0  0  2  0  0  0  0  0  0  0  0  0
   -3.1461    6.3143    3.2736 O   0  0  0  0  0  0  0  0  0  0  0  0
   -2.1649    4.4447    4.4595 C   0  0  1  0  0  0  0  0  0  0  0  0
   -1.5737    5.3053    5.4941 N   0  0  0  0  0  0  0  0  0  0  0  0
   -4.1006   -1.4717    4.7356 C   0  0  2  0  0  0  0  0  0  0  0  0
   -4.3029   -2.8513    4.9792 O   0  0  0  0  0  0  0  0  0  0  0  0
   -3.7567   -1.1615    3.2796 C   0  0  2  0  0  0  0  0  0  0  0  0
   -4.4115   -2.0011    2.3493 O   0  0  0  0  0  0  0  0  0  0  0  0
  2  1  1  0  0  0  0
  3  2  1  6  0  0  0
  3 30  1  0  0  0  0
  4  5  1  0  0  0  0
  4  3  1  0  0  0  0
  5 28  1  0  0  0  0
  5  6  1  6  0  0  0
  7  6  1  1  0  0  0
  8  7  1  0  0  0  0
  8  9  1  6  0  0  0
 10 11  1  1  0  0  0
 10  8  1  0  0  0  0
 12 10  1  0  0  0  0
 13 12  1  0  0  0  0
 13 15  1  0  0  0  0
 13 14  1  1  0  0  0
 15  7  1  0  0  0  0
 15 16  1  6  0  0  0
 17 16  1  1  0  0  0
 18 17  1  0  0  0  0
 19 20  1  6  0  0  0
 19 18  1  0  0  0  0
 20 21  1  0  0  0  0
 22 24  1  0  0  0  0
 22 19  1  0  0  0  0
 22 23  1  1  0  0  0
 24 25  1  6  0  0  0
 24 26  1  0  0  0  0
 26 17  1  0  0  0  0
 26 27  1  1  0  0  0
 28 29  1  6  0  0  0
 28 30  1  0  0  0  0
 30 31  1  6  0  0  0
M  END
>  <CHROM.1>
-59.50065294,128.73856274,-50.15161509,-67.57759314,-177.02367418,-61.74998541
-53.70546257,-29.94645414,98.80458652,147.46607056,74.77912673,-72.00006273
-34.36514537,39.44782466,-178.98293267,-173.58553085,-2.77177625,1.44846364
5.09055704,-2.92348175,-1.07208216,0.21735971

>  <Name>
lig.pdb

>  <RI>
0

>  <Rbt.Current_Directory>
/home/itssahil/PROJECTS/Mol_Feturizer/New_Systems/rnas/2n0j

>  <Rbt.Executable>
rbdock ($Id: //depot/dev/client3/rdock/2013.1/src/exe/rbdock.cxx#4 $)

>  <Rbt.Library>
libRbt.so (2013.1, Build901 2013/11/27)

>  <Rbt.Parameter_File>
/export/apps/rDock/src/rDock_2013.1_src/data/scripts/dock_solv.prm

>  <Rbt.Receptor>
prm/pocket_docking_8.prm

>  <SCORE>
-19.7194

>  <SCORE.INTER>
-24.4657

>  <SCORE.INTER.CONST>
1

>  <SCORE.INTER.POLAR>
-3.98181

>  <SCORE.INTER.ROT>
6

>  <SCORE.INTER.SOLV>
13.3455

>  <SCORE.INTER.VDW>
-15.0863

>  <SCORE.INTER.norm>
-0.789216

>  <SCORE.INTRA>
4.74626

>  <SCORE.INTRA.DIHEDRAL>
-4.95639

>  <SCORE.INTRA.DIHEDRAL.0>
28.0161

>  <SCORE.INTRA.POLAR>
1.04385

>  <SCORE.INTRA.POLAR.0>
-1.05798

>  <SCORE.INTRA.REPUL>
0

>  <SCORE.INTRA.REPUL.0>
0

>  <SCORE.INTRA.SOLV>
1.01728

>  <SCORE.INTRA.SOLV.lig_0>
-42.5945

>  <SCORE.INTRA.VDW>
3.16673

>  <SCORE.INTRA.VDW.0>
-5.13869

>  <SCORE.INTRA.norm>
0.153105

>  <SCORE.RESTR>
0

>  <SCORE.RESTR.CAVITY>
0

>  <SCORE.RESTR.norm>
0

>  <SCORE.SYSTEM>
0

>  <SCORE.SYSTEM.CONST>
0

>  <SCORE.SYSTEM.DIHEDRAL>
0

>  <SCORE.SYSTEM.SOLV>
0

>  <SCORE.SYSTEM.norm>
0

>  <SCORE.heavy>
31

>  <SCORE.norm>
-0.636111

>  <RMSD>
6.362

$$$$
lig.pdb
 OpenBabel11021811453D
libRbt.so/2013.1/901 2013/11/27
 31 33  0  0  0  0  0  0  0  0999 V2000
    5.0197    3.0898    1.0858 O   0  0  0  0  0  0  0  0  0  0  0  0
    3.9798    2.7802    1.9929 C   0  0  0  0  0  0  0  0  0  0  0  0
    2.6322    3.3356    1.5124 C   0  0  1  0  0  0  0  0  0  0  0  0
    1.7622    2.3038    1.0750 O   0  0  0  0  0  0  0  0  0  0  0  0
    0.4094    2.7267    1.2161 C   0  0  1  0  0  0  0  0  0  0  0  0
   -0.3512    1.7068    1.8527 O   0  0  0  0  0  0  0  0  0  0  0  0
   -0.5208    0.4888    1.1452 C   0  0  2  0  0  0  0  0  0  0  0  0
   -1.8463    0.5776    0.3723 C   0  0  1  0  0  0  0  0  0  0  0  0
   -1.7243    1.5227   -0.6791 O   0  0  0  0  0  0  0  0  0  0  0  0
   -2.2948   -0.7503   -0.2565 C   0  0  2  0  0  0  0  0  0  0  0  0
   -3.6133   -0.6138   -0.8947 N   0  0  0  0  0  0  0  0  0  0  0  0
   -2.3599   -1.8311    0.8162 C   0  0  0  0  0  0  0  0  0  0  0  0
   -1.0080   -1.9478    1.5096 C   0  0  2  0  0  0  0  0  0  0  0  0
   -1.0837   -3.0301    2.4968 N   0  0  0  0  0  0  0  0  0  0  0  0
   -0.6206   -0.6031    2.1616 C   0  0  1  0  0  0  0  0  0  0  0  0
    0.6484   -0.8341    2.7924 O   0  0  0  0  0  0  0  0  0  0  0  0
    1.1618    0.2055    3.6183 C   0  0  1  0  0  0  0  0  0  0  0  0
    0.4854    0.2325    4.8722 O   0  0  0  0  0  0  0  0  0  0  0  0
    0.7299   -0.8689    5.7443 C   0  0  2  0  0  0  0  0  0  0  0  0
   -0.0745   -0.6686    7.0356 C   0  0  0  0  0  0  0  0  0  0  0  0
   -0.7351   -1.8966    7.4543 N   0  0  0  0  0  0  0  0  0  0  0  0
    2.2295   -0.9829    6.0758 C   0  0  1  0  0  0  0  0  0  0  0  0
    2.4543   -2.1169    6.8944 O   0  0  0  0  0  0  0  0  0  0  0  0
    3.0151   -1.1209    4.7658 C   0  0  2  0  0  0  0  0  0  0  0  0
    4.4051   -1.1398    5.0315 O   0  0  0  0  0  0  0  0  0  0  0  0
    2.6726    0.0258    3.8051 C   0  0  1  0  0  0  0  0  0  0  0  0
    3.3325   -0.1870    2.5091 N   0  0  0  0  0  0  0  0  0  0  0  0
    0.4259    3.9823    2.1000 C   0  0  2  0  0  0  0  0  0  0  0  0
    0.1166    5.1225    1.3204 O   0  0  0  0  0  0  0  0  0  0  0  0
    1.8529    3.9951    2.6458 C   0  0  2  0  0  0  0  0  0  0  0  0
    2.3213    5.2860    2.9828 O   0  0  0  0  0  0  0  0  0  0  0  0
  2  1  1  0  0  0  0
  3  2  1  1  0  0  0
  3 30  1  0  0  0  0
  4  5  1  0  0  0  0
  4  3  1  0  0  0  0
  5 28  1  0  0  0  0
  5  6  1  1  0  0  0
  7  6  1  1  0  0  0
  8  7  1  0  0  0  0
  8  9  1  6  0  0  0
 10 11  1  1  0  0  0
 10  8  1  0  0  0  0
 12 10  1  0  0  0  0
 13 12  1  0  0  0  0
 13 15  1  0  0  0  0
 13 14  1  1  0  0  0
 15  7  1  0  0  0  0
 15 16  1  6  0  0  0
 17 16  1  6  0  0  0
 18 17  1  0  0  0  0
 19 20  1  1  0  0  0
 19 18  1  0  0  0  0
 20 21  1  0  0  0  0
 22 24  1  0  0  0  0
 22 19  1  0  0  0  0
 22 23  1  1  0  0  0
 24 25  1  1  0  0  0
 24 26  1  0  0  0  0
 26 17  1  0  0  0  0
 26 27  1  6  0  0  0
 28 29  1  6  0  0  0
 28 30  1  0  0  0  0
 30 31  1  6  0  0  0
M  END
>  <CHROM.1>
-58.51009226,108.65954917,-65.61881058,-93.78008142,-68.68981416,63.83664838
58.80182471,66.91679144,76.30688138,135.75899890,88.49191137,-64.19293107
-62.02280040,-80.45830347,49.85767128,68.21338519,0.77105469,0.60905731,2.74964332
-1.86740185,0.63408774,2.39349541

>  <Name>
lig.pdb

>  <RI>
0

>  <Rbt.Current_Directory>
/home/itssahil/PROJECTS/Mol_Feturizer/New_Systems/rnas/2n0j

>  <Rbt.Executable>
rbdock ($Id: //depot/dev/client3/rdock/2013.1/src/exe/rbdock.cxx#4 $)

>  <Rbt.Library>
libRbt.so (2013.1, Build901 2013/11/27)

>  <Rbt.Parameter_File>
/export/apps/rDock/src/rDock_2013.1_src/data/scripts/dock_solv.prm

>  <Rbt.Receptor>
prm/blind_docking_60.prm

>  <SCORE>
-39.6569

>  <SCORE.INTER>
-38.5431

>  <SCORE.INTER.CONST>
1

>  <SCORE.INTER.POLAR>
-4.50237

>  <SCORE.INTER.ROT>
6

>  <SCORE.INTER.SOLV>
24.5401

>  <SCORE.INTER.VDW>
-26.4675

>  <SCORE.INTER.norm>
-1.24332

>  <SCORE.INTRA>
-1.33532

>  <SCORE.INTRA.DIHEDRAL>
-8.62703

>  <SCORE.INTRA.DIHEDRAL.0>
28.0161

>  <SCORE.INTRA.POLAR>
0.536646

>  <SCORE.INTRA.POLAR.0>
-1.05798

>  <SCORE.INTRA.REPUL>
0

>  <SCORE.INTRA.REPUL.0>
0

>  <SCORE.INTRA.SOLV>
-0.0979796

>  <SCORE.INTRA.SOLV.lig_0>
-42.5945

>  <SCORE.INTRA.VDW>
1.20259

>  <SCORE.INTRA.VDW.0>
-5.13869

>  <SCORE.INTRA.norm>
-0.0430748

>  <SCORE.RESTR>
0.221472

>  <SCORE.RESTR.CAVITY>
0.221472

>  <SCORE.RESTR.norm>
0.00714427

>  <SCORE.SYSTEM>
0

>  <SCORE.SYSTEM.CONST>
0

>  <SCORE.SYSTEM.DIHEDRAL>
0

>  <SCORE.SYSTEM.SOLV>
0

>  <SCORE.SYSTEM.norm>
0

>  <SCORE.heavy>
31

>  <SCORE.norm>
-1.27926

>  <RMSD>
6.363

$$$$
lig.pdb
 OpenBabel11021811453D
libRbt.so/2013.1/901 2013/11/27
 31 33  0  0  0  0  0  0  0  0999 V2000
   -6.0867    0.7349    9.0924 O   0  0  0  0  0  0  0  0  0  0  0  0
   -7.1637    1.2919    8.3644 C   0  0  0  0  0  0  0  0  0  0  0  0
   -6.6877    2.4066    7.4230 C   0  0  1  0  0  0  0  0  0  0  0  0
   -5.9212    3.3843    8.1082 O   0  0  0  0  0  0  0  0  0  0  0  0
   -5.0297    4.0188    7.1963 C   0  0  1  0  0  0  0  0  0  0  0  0
   -3.7228    4.0703    7.7560 O   0  0  0  0  0  0  0  0  0  0  0  0
   -2.7373    4.7912    7.0334 C   0  0  2  0  0  0  0  0  0  0  0  0
   -3.4020    6.0586    6.4730 C   0  0  1  0  0  0  0  0  0  0  0  0
   -3.7076    6.9479    7.5356 O   0  0  0  0  0  0  0  0  0  0  0  0
   -2.5331    6.8293    5.4676 C   0  0  2  0  0  0  0  0  0  0  0  0
   -3.2672    7.9717    4.9018 N   0  0  0  0  0  0  0  0  0  0  0  0
   -2.0997    5.8972    4.3422 C   0  0  0  0  0  0  0  0  0  0  0  0
   -1.3751    4.6904    4.9259 C   0  0  2  0  0  0  0  0  0  0  0  0
   -0.9224    3.8401    3.8197 N   0  0  0  0  0  0  0  0  0  0  0  0
   -2.3011    3.9250    5.8956 C   0  0  1  0  0  0  0  0  0  0  0  0
   -1.5268    2.8112    6.3664 O   0  0  0  0  0  0  0  0  0  0  0  0
   -2.2099    1.5752    6.5458 C   0  0  1  0  0  0  0  0  0  0  0  0
   -2.6975    1.0842    5.3001 O   0  0  0  0  0  0  0  0  0  0  0  0
   -1.7129    0.6466    4.3660 C   0  0  2  0  0  0  0  0  0  0  0  0
   -2.4177    0.1544    3.0950 C   0  0  0  0  0  0  0  0  0  0  0  0
   -1.6668    0.4977    1.8958 N   0  0  0  0  0  0  0  0  0  0  0  0
   -0.8583   -0.4877    4.9616 C   0  0  1  0  0  0  0  0  0  0  0  0
    0.1482   -0.8643    4.0387 O   0  0  0  0  0  0  0  0  0  0  0  0
   -0.2146    0.0103    6.2616 C   0  0  2  0  0  0  0  0  0  0  0  0
    0.5078   -1.0380    6.8797 O   0  0  0  0  0  0  0  0  0  0  0  0
   -1.2812    0.5585    7.2192 C   0  0  1  0  0  0  0  0  0  0  0  0
   -0.6412    1.1477    8.4040 N   0  0  0  0  0  0  0  0  0  0  0  0
   -5.0098    3.1599    5.9235 C   0  0  2  0  0  0  0  0  0  0  0  0
   -5.6774    3.8383    4.8759 O   0  0  0  0  0  0  0  0  0  0  0  0
   -5.7228    1.8825    6.3642 C   0  0  2  0  0  0  0  0  0  0  0  0
   -6.3583    1.1922    5.3065 O   0  0  0  0  0  0  0  0  0  0  0  0
  2  1  1  0  0  0  0
  3  2  1  1  0  0  0
  3 30  1  0  0  0  0
  4  5  1  0  0  0  0
  4  3  1  0  0  0  0
  5 28  1  0  0  0  0
  5  6  1  1  0  0  0
  7  6  1  1  0  0  0
  8  7  1  0  0  0  0
  8  9  1  1  0  0  0
 10 11  1  6  0  0  0
 10  8  1  0  0  0  0
 12 10  1  0  0  0  0
 13 12  1  0  0  0  0
 13 15  1  0  0  0  0
 13 14  1  6  0  0  0
 15  7  1  0  0  0  0
 15 16  1  1  0  0  0
 17 16  1  6  0  0  0
 18 17  1  0  0  0  0
 19 20  1  6  0  0  0
 19 18  1  0  0  0  0
 20 21  1  0  0  0  0
 22 24  1  0  0  0  0
 22 19  1  0  0  0  0
 22 23  1  6  0  0  0
 24 25  1  1  0  0  0
 24 26  1  0  0  0  0
 26 17  1  0  0  0  0
 26 27  1  1  0  0  0
 28 29  1  6  0  0  0
 28 30  1  0  0  0  0
 30 31  1  6  0  0  0
M  END
>  <CHROM.1>
177.20928662,-52.62139815,-173.88359594,39.96747362,73.77408635,-174.21480453
-64.11173664,97.20351346,63.99737663,143.16423122,66.35734308,-69.09296500
-61.32751837,-160.40102250,44.78896959,63.76622685,-3.03449901,2.66130085
5.99075865,2.31676280,0.54729282,-0.13794432

>  <Name>
lig.pdb

>  <RI>
0

>  <Rbt.Current_Directory>
/home/itssahil/PROJECTS/Mol_Feturizer/New_Systems/rnas/2n0j

>  <Rbt.Executable>
rbdock ($Id: //depot/dev/client3/rdock/2013.1/src/exe/rbdock.cxx#4 $)

>  <Rbt.Library>
libRbt.so (2013.1, Build901 2013/11/27)

>  <Rbt.Parameter_File>
/export/apps/rDock/src/rDock_2013.1_src/data/scripts/dock_solv.prm

>  <Rbt.Receptor>
prm/pocket_docking_5.prm

>  <SCORE>
-26.0915

>  <SCORE.INTER>
-26.1666

>  <SCORE.INTER.CONST>
1

>  <SCORE.INTER.POLAR>
-3.34082

>  <SCORE.INTER.ROT>
6

>  <SCORE.INTER.SOLV>
12.864

>  <SCORE.INTER.VDW>
-18.1963

>  <SCORE.INTER.norm>
-0.844083

>  <SCORE.INTRA>
0.0750575

>  <SCORE.INTRA.DIHEDRAL>
-13.3107

>  <SCORE.INTRA.DIHEDRAL.0>
28.0161

>  <SCORE.INTRA.POLAR>
0.931546

>  <SCORE.INTRA.POLAR.0>
-1.05798

>  <SCORE.INTRA.REPUL>
0.00101513

>  <SCORE.INTRA.REPUL.0>
0

>  <SCORE.INTRA.SOLV>
1.25047

>  <SCORE.INTRA.SOLV.lig_0>
-42.5945

>  <SCORE.INTRA.VDW>
2.93286

>  <SCORE.INTRA.VDW.0>
-5.13869

>  <SCORE.INTRA.norm>
0.00242121

>  <SCORE.RESTR>
0

>  <SCORE.RESTR.CAVITY>
0

>  <SCORE.RESTR.norm>
0

>  <SCORE.SYSTEM>
0

>  <SCORE.SYSTEM.CONST>
0

>  <SCORE.SYSTEM.DIHEDRAL>
0

>  <SCORE.SYSTEM.SOLV>
0

>  <SCORE.SYSTEM.norm>
0

>  <SCORE.heavy>
31

>  <SCORE.norm>
-0.841662

>  <RMSD>
6.365

$$$$
lig.pdb
 OpenBabel11021811453D
libRbt.so/2013.1/901 2013/11/27
 31 33  0  0  0  0  0  0  0  0999 V2000
    5.0097    3.6138    1.4245 O   0  0  0  0  0  0  0  0  0  0  0  0
    3.9798    2.8109    1.9674 C   0  0  0  0  0  0  0  0  0  0  0  0
    2.5944    3.2998    1.5238 C   0  0  1  0  0  0  0  0  0  0  0  0
    1.7603    2.2254    1.1199 O   0  0  0  0  0  0  0  0  0  0  0  0
    0.3942    2.5868    1.2987 C   0  0  1  0  0  0  0  0  0  0  0  0
   -0.2992    1.5384    1.9649 O   0  0  0  0  0  0  0  0  0  0  0  0
   -0.4447    0.3124    1.2660 C   0  0  2  0  0  0  0  0  0  0  0  0
   -1.6437    0.4556    0.3152 C   0  0  1  0  0  0  0  0  0  0  0  0
   -1.3207    1.3611   -0.7285 O   0  0  0  0  0  0  0  0  0  0  0  0
   -2.0826   -0.8617   -0.3423 C   0  0  2  0  0  0  0  0  0  0  0  0
   -3.2901   -0.6674   -1.1598 N   0  0  0  0  0  0  0  0  0  0  0  0
   -2.3606   -1.9053    0.7332 C   0  0  0  0  0  0  0  0  0  0  0  0
   -1.1264   -2.0803    1.6096 C   0  0  2  0  0  0  0  0  0  0  0  0
   -1.4033   -3.1273    2.5990 N   0  0  0  0  0  0  0  0  0  0  0  0
   -0.7501   -0.7420    2.2812 C   0  0  1  0  0  0  0  0  0  0  0  0
    0.4037   -1.0280    3.0865 O   0  0  0  0  0  0  0  0  0  0  0  0
    0.9812    0.0584    3.8025 C   0  0  1  0  0  0  0  0  0  0  0  0
    0.4286    0.1480    5.1129 O   0  0  0  0  0  0  0  0  0  0  0  0
    0.7700   -0.9030    6.0142 C   0  0  2  0  0  0  0  0  0  0  0  0
    0.0915   -0.6393    7.3651 C   0  0  0  0  0  0  0  0  0  0  0  0
   -1.2834   -1.1182    7.3795 N   0  0  0  0  0  0  0  0  0  0  0  0
    2.2959   -0.9878    6.2044 C   0  0  1  0  0  0  0  0  0  0  0  0
    2.6129   -2.0744    7.0561 O   0  0  0  0  0  0  0  0  0  0  0  0
    2.9532   -1.1904    4.8334 C   0  0  2  0  0  0  0  0  0  0  0  0
    4.3624   -1.1847    4.9637 O   0  0  0  0  0  0  0  0  0  0  0  0
    2.5052   -0.0997    3.8512 C   0  0  1  0  0  0  0  0  0  0  0  0
    3.0396   -0.3772    2.5103 N   0  0  0  0  0  0  0  0  0  0  0  0
    0.3790    3.8492    2.1730 C   0  0  2  0  0  0  0  0  0  0  0  0
   -0.0057    4.9675    1.3951 O   0  0  0  0  0  0  0  0  0  0  0  0
    1.8194    3.9322    2.6755 C   0  0  2  0  0  0  0  0  0  0  0  0
    2.2375    5.2459    2.9893 O   0  0  0  0  0  0  0  0  0  0  0  0
  2  1  1  0  0  0  0
  3  2  1  1  0  0  0
  3 30  1  0  0  0  0
  4  5  1  0  0  0  0
  4  3  1  0  0  0  0
  5 28  1  0  0  0  0
  5  6  1  1  0  0  0
  7  6  1  1  0  0  0
  8  7  1  0  0  0  0
  8  9  1  6  0  0  0
 10 11  1  1  0  0  0
 10  8  1  0  0  0  0
 12 10  1  0  0  0  0
 13 12  1  0  0  0  0
 13 15  1  0  0  0  0
 13 14  1  1  0  0  0
 15  7  1  0  0  0  0
 15 16  1  1  0  0  0
 17 16  1  1  0  0  0
 18 17  1  0  0  0  0
 19 20  1  1  0  0  0
 19 18  1  0  0  0  0
 20 21  1  0  0  0  0
 22 24  1  0  0  0  0
 22 19  1  0  0  0  0
 22 23  1  1  0  0  0
 24 25  1  1  0  0  0
 24 26  1  0  0  0  0
 26 17  1  0  0  0  0
 26 27  1  6  0  0  0
 28 29  1  6  0  0  0
 28 30  1  0  0  0  0
 30 31  1  6  0  0  0
M  END
>  <CHROM.1>
60.89194805,135.16879330,-66.22237296,-82.06936055,-170.77102746,52.40469379
-54.92352952,57.84174569,92.10337590,83.65474686,-172.01230267,46.29702328
79.30500359,-72.24284589,45.36820695,178.01096666,0.73814126,0.56795164,2.82006762
-1.86114979,0.68580887,2.35651666

>  <Name>
lig.pdb

>  <RI>
0

>  <Rbt.Current_Directory>
/home/itssahil/PROJECTS/Mol_Feturizer/New_Systems/rnas/2n0j

>  <Rbt.Executable>
rbdock ($Id: //depot/dev/client3/rdock/2013.1/src/exe/rbdock.cxx#4 $)

>  <Rbt.Library>
libRbt.so (2013.1, Build901 2013/11/27)

>  <Rbt.Parameter_File>
/export/apps/rDock/src/rDock_2013.1_src/data/scripts/dock_solv.prm

>  <Rbt.Receptor>
prm/blind_docking_60.prm

>  <SCORE>
-38.1363

>  <SCORE.INTER>
-36.2469

>  <SCORE.INTER.CONST>
1

>  <SCORE.INTER.POLAR>
-3.83268

>  <SCORE.INTER.ROT>
6

>  <SCORE.INTER.SOLV>
23.1801

>  <SCORE.INTER.VDW>
-26.7157

>  <SCORE.INTER.norm>
-1.16925

>  <SCORE.INTRA>
-2.38

>  <SCORE.INTRA.DIHEDRAL>
-10.4668

>  <SCORE.INTRA.DIHEDRAL.0>
28.0161

>  <SCORE.INTRA.POLAR>
0.368643

>  <SCORE.INTRA.POLAR.0>
-1.05798

>  <SCORE.INTRA.REPUL>
0

>  <SCORE.INTRA.REPUL.0>
0

>  <SCORE.INTRA.SOLV>
-0.297198

>  <SCORE.INTRA.SOLV.lig_0>
-42.5945

>  <SCORE.INTRA.VDW>
1.74861

>  <SCORE.INTRA.VDW.0>
-5.13869

>  <SCORE.INTRA.norm>
-0.0767742

>  <SCORE.RESTR>
0.490599

>  <SCORE.RESTR.CAVITY>
0.490599

>  <SCORE.RESTR.norm>
0.0158258

>  <SCORE.SYSTEM>
0

>  <SCORE.SYSTEM.CONST>
0

>  <SCORE.SYSTEM.DIHEDRAL>
0

>  <SCORE.SYSTEM.SOLV>
0

>  <SCORE.SYSTEM.norm>
0

>  <SCORE.heavy>
31

>  <SCORE.norm>
-1.2302

>  <RMSD>
6.366

$$$$
lig.pdb
 OpenBabel11021811453D
libRbt.so/2013.1/901 2013/11/27
 31 33  0  0  0  0  0  0  0  0999 V2000
    4.5393    3.2261    0.3213 O   0  0  0  0  0  0  0  0  0  0  0  0
    3.8584    3.2735    1.5600 C   0  0  0  0  0  0  0  0  0  0  0  0
    2.4121    3.7567    1.3871 C   0  0  1  0  0  0  0  0  0  0  0  0
    1.5482    2.7039    0.9891 O   0  0  0  0  0  0  0  0  0  0  0  0
    0.2181    2.9914    1.4097 C   0  0  1  0  0  0  0  0  0  0  0  0
   -0.3448    1.8495    2.0446 O   0  0  0  0  0  0  0  0  0  0  0  0
   -0.5171    0.6866    1.2505 C   0  0  2  0  0  0  0  0  0  0  0  0
   -1.8948    0.7809    0.5759 C   0  0  1  0  0  0  0  0  0  0  0  0
   -1.8803    1.8121   -0.3987 O   0  0  0  0  0  0  0  0  0  0  0  0
   -2.3358   -0.5098   -0.1310 C   0  0  2  0  0  0  0  0  0  0  0  0
   -3.6990   -0.3785   -0.6682 N   0  0  0  0  0  0  0  0  0  0  0  0
   -2.2871   -1.6755    0.8498 C   0  0  0  0  0  0  0  0  0  0  0  0
   -0.8875   -1.7901    1.4413 C   0  0  2  0  0  0  0  0  0  0  0  0
   -0.8552   -2.9508    2.3377 N   0  0  0  0  0  0  0  0  0  0  0  0
   -0.5065   -0.4871    2.1766 C   0  0  1  0  0  0  0  0  0  0  0  0
    0.8104   -0.7141    2.7018 O   0  0  0  0  0  0  0  0  0  0  0  0
    1.2990    0.2222    3.6564 C   0  0  1  0  0  0  0  0  0  0  0  0
    0.4896    0.2142    4.8292 O   0  0  0  0  0  0  0  0  0  0  0  0
    0.5574   -0.9612    5.6338 C   0  0  2  0  0  0  0  0  0  0  0  0
   -0.3710   -0.7895    6.8435 C   0  0  0  0  0  0  0  0  0  0  0  0
   -0.7664   -2.0732    7.4051 N   0  0  0  0  0  0  0  0  0  0  0  0
    1.9986   -1.2144    6.1137 C   0  0  1  0  0  0  0  0  0  0  0  0
    2.0505   -2.4168    6.8607 O   0  0  0  0  0  0  0  0  0  0  0  0
    2.9148   -1.3212    4.8883 C   0  0  2  0  0  0  0  0  0  0  0  0
    4.2614   -1.4668    5.2987 O   0  0  0  0  0  0  0  0  0  0  0  0
    2.7631   -0.0871    3.9889 C   0  0  1  0  0  0  0  0  0  0  0  0
    3.5479   -0.2596    2.7581 N   0  0  0  0  0  0  0  0  0  0  0  0
    0.3103    4.1462    2.4176 C   0  0  2  0  0  0  0  0  0  0  0  0
   -0.2106    5.3295    1.8412 O   0  0  0  0  0  0  0  0  0  0  0  0
    1.8084    4.2263    2.7069 C   0  0  2  0  0  0  0  0  0  0  0  0
    2.2426    5.5113    3.1062 O   0  0  0  0  0  0  0  0  0  0  0  0
  2  1  1  0  0  0  0
  3  2  1  1  0  0  0
  3 30  1  0  0  0  0
  4  5  1  0  0  0  0
  4  3  1  0  0  0  0
  5 28  1  0  0  0  0
  5  6  1  1  0  0  0
  7  6  1  1  0  0  0
  8  7  1  0  0  0  0
  8  9  1  6  0  0  0
 10 11  1  1  0  0  0
 10  8  1  0  0  0  0
 12 10  1  0  0  0  0
 13 12  1  0  0  0  0
 13 15  1  0  0  0  0
 13 14  1  1  0  0  0
 15  7  1  0  0  0  0
 15 16  1  6  0  0  0
 17 16  1  6  0  0  0
 18 17  1  0  0  0  0
 19 20  1  1  0  0  0
 19 18  1  0  0  0  0
 20 21  1  0  0  0  0
 22 24  1  0  0  0  0
 22 19  1  0  0  0  0
 22 23  1  6  0  0  0
 24 25  1  1  0  0  0
 24 26  1  0  0  0  0
 26 17  1  0  0  0  0
 26 27  1  6  0  0  0
 28 29  1  6  0  0  0
 28 30  1  0  0  0  0
 30 31  1  6  0  0  0
M  END
>  <CHROM.1>
-173.67635701,82.45683216,-63.60995724,-88.01873166,-78.31955882,-54.34116481
58.55610970,71.66969294,62.83526385,157.43397837,67.15235229,-175.19457454
-66.93935324,-88.69055891,-177.56196666,-58.22941895,0.70264502,0.69754231
2.79224611,-1.67024308,0.62001696,2.45805719

>  <Name>
lig.pdb

>  <RI>
0

>  <Rbt.Current_Directory>
/home/itssahil/PROJECTS/Mol_Feturizer/New_Systems/rnas/2n0j

>  <Rbt.Executable>
rbdock ($Id: //depot/dev/client3/rdock/2013.1/src/exe/rbdock.cxx#4 $)

>  <Rbt.Library>
libRbt.so (2013.1, Build901 2013/11/27)

>  <Rbt.Parameter_File>
/export/apps/rDock/src/rDock_2013.1_src/data/scripts/dock_solv.prm

>  <Rbt.Receptor>
prm/blind_docking_40.prm

>  <SCORE>
-41.3712

>  <SCORE.INTER>
-36.5591

>  <SCORE.INTER.CONST>
1

>  <SCORE.INTER.POLAR>
-4.89635

>  <SCORE.INTER.ROT>
6

>  <SCORE.INTER.SOLV>
24.7618

>  <SCORE.INTER.VDW>
-23.9055

>  <SCORE.INTER.norm>
-1.17933

>  <SCORE.INTRA>
-5.18917

>  <SCORE.INTRA.DIHEDRAL>
-16.423

>  <SCORE.INTRA.DIHEDRAL.0>
28.0161

>  <SCORE.INTRA.POLAR>
0.717001

>  <SCORE.INTRA.POLAR.0>
-1.05798

>  <SCORE.INTRA.REPUL>
0

>  <SCORE.INTRA.REPUL.0>
0

>  <SCORE.INTRA.SOLV>
-0.328339

>  <SCORE.INTRA.SOLV.lig_0>
-42.5945

>  <SCORE.INTRA.VDW>
0.748682

>  <SCORE.INTRA.VDW.0>
-5.13869

>  <SCORE.INTRA.norm>
-0.167393

>  <SCORE.RESTR>
0.377108

>  <SCORE.RESTR.CAVITY>
0.377108

>  <SCORE.RESTR.norm>
0.0121648

>  <SCORE.SYSTEM>
0

>  <SCORE.SYSTEM.CONST>
0

>  <SCORE.SYSTEM.DIHEDRAL>
0

>  <SCORE.SYSTEM.SOLV>
0

>  <SCORE.SYSTEM.norm>
0

>  <SCORE.heavy>
31

>  <SCORE.norm>
-1.33455

>  <RMSD>
6.367

$$$$
lig.pdb
 OpenBabel11021811453D
libRbt.so/2013.1/901 2013/11/27
 31 33  0  0  0  0  0  0  0  0999 V2000
    0.8143    7.2276    0.8479 O   0  0  0  0  0  0  0  0  0  0  0  0
    2.0388    6.5883    1.1513 C   0  0  0  0  0  0  0  0  0  0  0  0
    1.8386    5.4342    2.1428 C   0  0  1  0  0  0  0  0  0  0  0  0
    0.6757    5.6152    2.9352 O   0  0  0  0  0  0  0  0  0  0  0  0
    0.1907    4.3484    3.3697 C   0  0  1  0  0  0  0  0  0  0  0  0
   -1.2113    4.2647    3.1431 O   0  0  0  0  0  0  0  0  0  0  0  0
   -2.0167    3.8256    4.2254 C   0  0  2  0  0  0  0  0  0  0  0  0
   -1.5411    4.5585    5.4898 C   0  0  1  0  0  0  0  0  0  0  0  0
   -1.8791    5.9338    5.4009 O   0  0  0  0  0  0  0  0  0  0  0  0
   -2.1522    4.0210    6.7927 C   0  0  2  0  0  0  0  0  0  0  0  0
   -1.5805    4.7020    7.9646 N   0  0  0  0  0  0  0  0  0  0  0  0
   -1.8952    2.5226    6.9012 C   0  0  0  0  0  0  0  0  0  0  0  0
   -2.4484    1.8166    5.6693 C   0  0  2  0  0  0  0  0  0  0  0  0
   -2.2364    0.3736    5.8259 N   0  0  0  0  0  0  0  0  0  0  0  0
   -1.7745    2.3595    4.3908 C   0  0  1  0  0  0  0  0  0  0  0  0
   -2.3550    1.6183    3.3068 O   0  0  0  0  0  0  0  0  0  0  0  0
   -1.5356    1.3874    2.1658 C   0  0  1  0  0  0  0  0  0  0  0  0
   -0.3653    0.6585    2.5258 O   0  0  0  0  0  0  0  0  0  0  0  0
   -0.5635   -0.6975    2.9202 C   0  0  2  0  0  0  0  0  0  0  0  0
    0.7963   -1.3181    3.2670 C   0  0  0  0  0  0  0  0  0  0  0  0
    1.6500   -1.4344    2.0934 N   0  0  0  0  0  0  0  0  0  0  0  0
   -1.2328   -1.5041    1.7919 C   0  0  1  0  0  0  0  0  0  0  0  0
   -1.4721   -2.8303    2.2281 O   0  0  0  0  0  0  0  0  0  0  0  0
   -2.5595   -0.8286    1.4229 C   0  0  2  0  0  0  0  0  0  0  0  0
   -3.1578   -1.4966    0.3280 O   0  0  0  0  0  0  0  0  0  0  0  0
   -2.3386    0.6523    1.0866 C   0  0  1  0  0  0  0  0  0  0  0  0
   -3.6299    1.3168    0.8599 N   0  0  0  0  0  0  0  0  0  0  0  0
    0.9111    3.2842    2.5290 C   0  0  2  0  0  0  0  0  0  0  0  0
    1.8383    2.5819    3.3356 O   0  0  0  0  0  0  0  0  0  0  0  0
    1.5751    4.1117    1.4296 C   0  0  2  0  0  0  0  0  0  0  0  0
    2.7379    3.5137    0.8915 O   0  0  0  0  0  0  0  0  0  0  0  0
  2  1  1  0  0  0  0
  3  2  1  6  0  0  0
  3 30  1  0  0  0  0
  4  5  1  0  0  0  0
  4  3  1  0  0  0  0
  5 28  1  0  0  0  0
  5  6  1  6  0  0  0
  7  6  1  6  0  0  0
  8  7  1  0  0  0  0
  8  9  1  6  0  0  0
 10 11  1  1  0  0  0
 10  8  1  0  0  0  0
 12 10  1  0  0  0  0
 13 12  1  0  0  0  0
 13 15  1  0  0  0  0
 13 14  1  1  0  0  0
 15  7  1  0  0  0  0
 15 16  1  6  0  0  0
 17 16  1  1  0  0  0
 18 17  1  0  0  0  0
 19 20  1  6  0  0  0
 19 18  1  0  0  0  0
 20 21  1  0  0  0  0
 22 24  1  0  0  0  0
 22 19  1  0  0  0  0
 22 23  1  1  0  0  0
 24 25  1  6  0  0  0
 24 26  1  0  0  0  0
 26 17  1  0  0  0  0
 26 27  1  1  0  0  0
 28 29  1  1  0  0  0
 28 30  1  0  0  0  0
 30 31  1  1  0  0  0
M  END
>  <CHROM.1>
-178.54696658,-24.94773093,-130.75766847,44.66789490,-78.26712076,62.37661538
177.16538517,90.05149321,59.71405354,-66.66560926,-177.37770955,-161.45822097
61.81117334,-61.24780683,178.40686161,171.53965448,-0.72711560,2.32650914
3.15129295,-1.16536141,-0.89917083,-2.59253991

>  <Name>
lig.pdb

>  <RI>
2.74555e+07

>  <Rbt.Current_Directory>
/home/itssahil/PROJECTS/Mol_Feturizer/New_Systems/rnas/2n0j

>  <Rbt.Executable>
rbdock ($Id: //depot/dev/client3/rdock/2013.1/src/exe/rbdock.cxx#4 $)

>  <Rbt.Library>
libRbt.so (2013.1, Build901 2013/11/27)

>  <Rbt.Parameter_File>
/export/apps/rDock/src/rDock_2013.1_src/data/scripts/dock_solv.prm

>  <Rbt.Receptor>
prm/pocket_docking_6.prm

>  <SCORE>
-34.5071

>  <SCORE.INTER>
-35.3904

>  <SCORE.INTER.CONST>
1

>  <SCORE.INTER.POLAR>
-4.51068

>  <SCORE.INTER.ROT>
6

>  <SCORE.INTER.SOLV>
15.6641

>  <SCORE.INTER.VDW>
-21.3794

>  <SCORE.INTER.norm>
-1.14163

>  <SCORE.INTRA>
0.88327

>  <SCORE.INTRA.DIHEDRAL>
-9.33365

>  <SCORE.INTRA.DIHEDRAL.0>
28.0161

>  <SCORE.INTRA.POLAR>
1.05798

>  <SCORE.INTRA.POLAR.0>
-1.05798

>  <SCORE.INTRA.REPUL>
0.00910368

>  <SCORE.INTRA.REPUL.0>
0

>  <SCORE.INTRA.SOLV>
1.2587

>  <SCORE.INTRA.SOLV.lig_0>
-42.5945

>  <SCORE.INTRA.VDW>
1.27808

>  <SCORE.INTRA.VDW.0>
-5.13869

>  <SCORE.INTRA.norm>
0.0284926

>  <SCORE.RESTR>
0

>  <SCORE.RESTR.CAVITY>
0

>  <SCORE.RESTR.norm>
0

>  <SCORE.SYSTEM>
0

>  <SCORE.SYSTEM.CONST>
0

>  <SCORE.SYSTEM.DIHEDRAL>
0

>  <SCORE.SYSTEM.SOLV>
0

>  <SCORE.SYSTEM.norm>
0

>  <SCORE.heavy>
31

>  <SCORE.norm>
-1.11313

>  <RMSD>
6.367

$$$$
lig.pdb
 OpenBabel11021811453D
libRbt.so/2013.1/901 2013/11/27
 31 33  0  0  0  0  0  0  0  0999 V2000
    4.8277    2.1159    1.2160 O   0  0  0  0  0  0  0  0  0  0  0  0
    3.9855    2.6501    2.2187 C   0  0  0  0  0  0  0  0  0  0  0  0
    2.6877    3.2108    1.6215 C   0  0  1  0  0  0  0  0  0  0  0  0
    1.8309    2.1788    1.1591 O   0  0  0  0  0  0  0  0  0  0  0  0
    0.4803    2.6303    1.1858 C   0  0  1  0  0  0  0  0  0  0  0  0
   -0.3448    1.6485    1.8015 O   0  0  0  0  0  0  0  0  0  0  0  0
   -0.5256    0.4258    1.1049 C   0  0  2  0  0  0  0  0  0  0  0  0
   -1.8297    0.5350    0.2991 C   0  0  1  0  0  0  0  0  0  0  0  0
   -1.6607    1.4636   -0.7605 O   0  0  0  0  0  0  0  0  0  0  0  0
   -2.2937   -0.7902   -0.3243 C   0  0  2  0  0  0  0  0  0  0  0  0
   -3.5930   -0.6317   -0.9958 N   0  0  0  0  0  0  0  0  0  0  0  0
   -2.4095   -1.8555    0.7597 C   0  0  0  0  0  0  0  0  0  0  0  0
   -1.0778   -1.9943    1.4870 C   0  0  2  0  0  0  0  0  0  0  0  0
   -1.2021   -3.0618    2.4853 N   0  0  0  0  0  0  0  0  0  0  0  0
   -0.6750   -0.6505    2.1318 C   0  0  1  0  0  0  0  0  0  0  0  0
    0.5728   -0.9025    2.7960 O   0  0  0  0  0  0  0  0  0  0  0  0
    1.0713    0.1206    3.6512 C   0  0  1  0  0  0  0  0  0  0  0  0
    0.3819    0.1144    4.8983 O   0  0  0  0  0  0  0  0  0  0  0  0
    0.6242   -1.0056    5.7470 C   0  0  2  0  0  0  0  0  0  0  0  0
   -0.1946   -0.8402    7.0341 C   0  0  0  0  0  0  0  0  0  0  0  0
   -1.0159    0.3615    6.9990 N   0  0  0  0  0  0  0  0  0  0  0  0
    2.1209   -1.1186    6.0914 C   0  0  1  0  0  0  0  0  0  0  0  0
    2.3442   -2.2700    6.8856 O   0  0  0  0  0  0  0  0  0  0  0  0
    2.9208   -1.2213    4.7868 C   0  0  2  0  0  0  0  0  0  0  0  0
    4.3081   -1.2383    5.0664 O   0  0  0  0  0  0  0  0  0  0  0  0
    2.5812   -0.0545    3.8495 C   0  0  1  0  0  0  0  0  0  0  0  0
    3.2557   -0.2332    2.5558 N   0  0  0  0  0  0  0  0  0  0  0  0
    0.4582    3.9177    2.0227 C   0  0  2  0  0  0  0  0  0  0  0  0
    0.2293    5.0331    1.1820 O   0  0  0  0  0  0  0  0  0  0  0  0
    1.8420    3.9258    2.6704 C   0  0  2  0  0  0  0  0  0  0  0  0
    2.3108    5.2199    2.9940 O   0  0  0  0  0  0  0  0  0  0  0  0
  2  1  1  0  0  0  0
  3  2  1  1  0  0  0
  3 30  1  0  0  0  0
  4  5  1  0  0  0  0
  4  3  1  0  0  0  0
  5 28  1  0  0  0  0
  5  6  1  1  0  0  0
  7  6  1  1  0  0  0
  8  7  1  0  0  0  0
  8  9  1  6  0  0  0
 10 11  1  1  0  0  0
 10  8  1  0  0  0  0
 12 10  1  0  0  0  0
 13 12  1  0  0  0  0
 13 15  1  0  0  0  0
 13 14  1  1  0  0  0
 15  7  1  0  0  0  0
 15 16  1  6  0  0  0
 17 16  1  6  0  0  0
 18 17  1  0  0  0  0
 19 20  1  1  0  0  0
 19 18  1  0  0  0  0
 20 21  1  0  0  0  0
 22 24  1  0  0  0  0
 22 19  1  0  0  0  0
 22 23  1  1  0  0  0
 24 25  1  1  0  0  0
 24 26  1  0  0  0  0
 26 17  1  0  0  0  0
 26 27  1  6  0  0  0
 28 29  1  6  0  0  0
 28 30  1  0  0  0  0
 30 31  1  6  0  0  0
M  END
>  <CHROM.1>
-176.86762719,70.94053886,-67.79244584,-95.24052153,-175.89090135,-172.39970887
-179.36353040,68.64914743,77.79905571,2.45989201,178.47240979,167.37529719
-59.47508681,42.15928146,43.25236833,174.39040380,0.72613490,0.58178844,2.73431806
-0.87211086,-0.65628697,-0.73918305

>  <Name>
lig.pdb

>  <RI>
0

>  <Rbt.Current_Directory>
/home/itssahil/PROJECTS/Mol_Feturizer/New_Systems/rnas/2n0j

>  <Rbt.Executable>
rbdock ($Id: //depot/dev/client3/rdock/2013.1/src/exe/rbdock.cxx#4 $)

>  <Rbt.Library>
libRbt.so (2013.1, Build901 2013/11/27)

>  <Rbt.Parameter_File>
/export/apps/rDock/src/rDock_2013.1_src/data/scripts/dock_solv.prm

>  <Rbt.Receptor>
prm/blind_docking_40.prm

>  <SCORE>
-40.5854

>  <SCORE.INTER>
-36.968

>  <SCORE.INTER.CONST>
1

>  <SCORE.INTER.POLAR>
-4.13852

>  <SCORE.INTER.ROT>
6

>  <SCORE.INTER.SOLV>
23.6808

>  <SCORE.INTER.VDW>
-26.3439

>  <SCORE.INTER.norm>
-1.19252

>  <SCORE.INTRA>
-3.91493

>  <SCORE.INTRA.DIHEDRAL>
-12.1003

>  <SCORE.INTRA.DIHEDRAL.0>
28.0161

>  <SCORE.INTRA.POLAR>
0.12441

>  <SCORE.INTRA.POLAR.0>
-1.05798

>  <SCORE.INTRA.REPUL>
0

>  <SCORE.INTRA.REPUL.0>
0

>  <SCORE.INTRA.SOLV>
0.514407

>  <SCORE.INTRA.SOLV.lig_0>
-42.5945

>  <SCORE.INTRA.VDW>
1.45503

>  <SCORE.INTRA.VDW.0>
-5.13869

>  <SCORE.INTRA.norm>
-0.126288

>  <SCORE.RESTR>
0.297611

>  <SCORE.RESTR.CAVITY>
0.297611

>  <SCORE.RESTR.norm>
0.00960036

>  <SCORE.SYSTEM>
0

>  <SCORE.SYSTEM.CONST>
0

>  <SCORE.SYSTEM.DIHEDRAL>
0

>  <SCORE.SYSTEM.SOLV>
0

>  <SCORE.SYSTEM.norm>
0

>  <SCORE.heavy>
31

>  <SCORE.norm>
-1.3092

>  <RMSD>
6.370

$$$$
lig.pdb
 OpenBabel11021811453D
libRbt.so/2013.1/901 2013/11/27
 31 33  0  0  0  0  0  0  0  0999 V2000
    4.7768    4.5116    2.4091 O   0  0  0  0  0  0  0  0  0  0  0  0
    4.0865    3.3352    2.0356 C   0  0  0  0  0  0  0  0  0  0  0  0
    2.6581    3.6470    1.5689 C   0  0  1  0  0  0  0  0  0  0  0  0
    1.9588    2.4722    1.1896 O   0  0  0  0  0  0  0  0  0  0  0  0
    0.5582    2.6766    1.3488 C   0  0  1  0  0  0  0  0  0  0  0  0
   -0.0152    1.5729    2.0393 O   0  0  0  0  0  0  0  0  0  0  0  0
   -0.2392    0.3877    1.2924 C   0  0  2  0  0  0  0  0  0  0  0  0
   -1.4686    0.6223    0.4004 C   0  0  1  0  0  0  0  0  0  0  0  0
   -1.1510    1.5625   -0.6138 O   0  0  0  0  0  0  0  0  0  0  0  0
   -1.9875   -0.6444   -0.2969 C   0  0  2  0  0  0  0  0  0  0  0  0
   -3.2180   -0.3647   -1.0530 N   0  0  0  0  0  0  0  0  0  0  0  0
   -2.2646   -1.7257    0.7410 C   0  0  0  0  0  0  0  0  0  0  0  0
   -1.0043   -1.9899    1.5557 C   0  0  2  0  0  0  0  0  0  0  0  0
   -1.2839   -3.0705    2.5074 N   0  0  0  0  0  0  0  0  0  0  0  0
   -0.5464   -0.7004    2.2707 C   0  0  1  0  0  0  0  0  0  0  0  0
    0.6262   -1.0690    3.0127 O   0  0  0  0  0  0  0  0  0  0  0  0
    1.2400   -0.0558    3.8023 C   0  0  1  0  0  0  0  0  0  0  0  0
    0.2545    0.7361    4.4597 O   0  0  0  0  0  0  0  0  0  0  0  0
   -0.4899    0.0891    5.4896 C   0  0  2  0  0  0  0  0  0  0  0  0
   -1.4940    1.0883    6.0796 C   0  0  0  0  0  0  0  0  0  0  0  0
   -2.3041    0.4826    7.1268 N   0  0  0  0  0  0  0  0  0  0  0  0
    0.4447   -0.4283    6.5988 C   0  0  1  0  0  0  0  0  0  0  0  0
   -0.3109   -1.1171    7.5793 O   0  0  0  0  0  0  0  0  0  0  0  0
    1.4752   -1.3763    5.9729 C   0  0  2  0  0  0  0  0  0  0  0  0
    2.4039   -1.8011    6.9528 O   0  0  0  0  0  0  0  0  0  0  0  0
    2.2049   -0.6918    4.8094 C   0  0  1  0  0  0  0  0  0  0  0  0
    3.0958   -1.6494    4.1386 N   0  0  0  0  0  0  0  0  0  0  0  0
    0.3873    3.9518    2.1871 C   0  0  2  0  0  0  0  0  0  0  0  0
   -0.1169    4.9961    1.3756 O   0  0  0  0  0  0  0  0  0  0  0  0
    1.8032    4.2157    2.6970 C   0  0  2  0  0  0  0  0  0  0  0  0
    2.0624    5.5772    2.9768 O   0  0  0  0  0  0  0  0  0  0  0  0
  2  1  1  0  0  0  0
  3  2  1  1  0  0  0
  3 30  1  0  0  0  0
  4  5  1  0  0  0  0
  4  3  1  0  0  0  0
  5 28  1  0  0  0  0
  5  6  1  1  0  0  0
  7  6  1  1  0  0  0
  8  7  1  0  0  0  0
  8  9  1  6  0  0  0
 10 11  1  1  0  0  0
 10  8  1  0  0  0  0
 12 10  1  0  0  0  0
 13 12  1  0  0  0  0
 13 15  1  0  0  0  0
 13 14  1  1  0  0  0
 15  7  1  0  0  0  0
 15 16  1  6  0  0  0
 17 16  1  1  0  0  0
 18 17  1  0  0  0  0
 19 20  1  1  0  0  0
 19 18  1  0  0  0  0
 20 21  1  0  0  0  0
 22 24  1  0  0  0  0
 22 19  1  0  0  0  0
 22 23  1  1  0  0  0
 24 25  1  1  0  0  0
 24 26  1  0  0  0  0
 26 17  1  0  0  0  0
 26 27  1  6  0  0  0
 28 29  1  6  0  0  0
 28 30  1  0  0  0  0
 30 31  1  6  0  0  0
M  END
>  <CHROM.1>
59.09260152,179.88184107,-77.70364293,-75.20163760,65.09839512,52.12014215
-51.36847191,60.72012936,40.81340767,179.09924308,-71.38211944,-173.36455895
171.51246434,-158.63578894,51.38531797,177.14817234,0.39571204,0.82031125
3.01347842,-1.22367654,0.82740008,2.20489493

>  <Name>
lig.pdb

>  <RI>
9.20816e+06

>  <Rbt.Current_Directory>
/home/itssahil/PROJECTS/Mol_Feturizer/New_Systems/rnas/2n0j

>  <Rbt.Executable>
rbdock ($Id: //depot/dev/client3/rdock/2013.1/src/exe/rbdock.cxx#4 $)

>  <Rbt.Library>
libRbt.so (2013.1, Build901 2013/11/27)

>  <Rbt.Parameter_File>
/export/apps/rDock/src/rDock_2013.1_src/data/scripts/dock_solv.prm

>  <Rbt.Receptor>
prm/blind_docking_100.prm

>  <SCORE>
-35.4486

>  <SCORE.INTER>
-33.709

>  <SCORE.INTER.CONST>
1

>  <SCORE.INTER.POLAR>
-3.19426

>  <SCORE.INTER.ROT>
6

>  <SCORE.INTER.SOLV>
20.7811

>  <SCORE.INTER.VDW>
-26.3522

>  <SCORE.INTER.norm>
-1.08739

>  <SCORE.INTRA>
-5.01607

>  <SCORE.INTRA.DIHEDRAL>
-20.7036

>  <SCORE.INTRA.DIHEDRAL.0>
28.0161

>  <SCORE.INTRA.POLAR>
0.0518796

>  <SCORE.INTRA.POLAR.0>
-1.05798

>  <SCORE.INTRA.REPUL>
0.134738

>  <SCORE.INTRA.REPUL.0>
0

>  <SCORE.INTRA.SOLV>
0.707779

>  <SCORE.INTRA.SOLV.lig_0>
-42.5945

>  <SCORE.INTRA.VDW>
4.13176

>  <SCORE.INTRA.VDW.0>
-5.13869

>  <SCORE.INTRA.norm>
-0.161809

>  <SCORE.RESTR>
3.27645

>  <SCORE.RESTR.CAVITY>
3.27645

>  <SCORE.RESTR.norm>
0.105692

>  <SCORE.SYSTEM>
0

>  <SCORE.SYSTEM.CONST>
0

>  <SCORE.SYSTEM.DIHEDRAL>
0

>  <SCORE.SYSTEM.SOLV>
0

>  <SCORE.SYSTEM.norm>
0

>  <SCORE.heavy>
31

>  <SCORE.norm>
-1.1435

>  <RMSD>
6.381

$$$$
lig.pdb
 OpenBabel11021811453D
libRbt.so/2013.1/901 2013/11/27
 31 33  0  0  0  0  0  0  0  0999 V2000
   -2.8384    6.1747    7.4020 O   0  0  0  0  0  0  0  0  0  0  0  0
   -3.0994    5.5901    6.1409 C   0  0  0  0  0  0  0  0  0  0  0  0
   -1.8064    5.3808    5.3411 C   0  0  1  0  0  0  0  0  0  0  0  0
   -1.3660    4.0331    5.3935 O   0  0  0  0  0  0  0  0  0  0  0  0
   -0.5910    3.7375    4.2356 C   0  0  1  0  0  0  0  0  0  0  0  0
   -1.0247    2.5085    3.6653 O   0  0  0  0  0  0  0  0  0  0  0  0
   -0.3436    1.3314    4.0696 C   0  0  2  0  0  0  0  0  0  0  0  0
    0.7856    1.0741    3.0592 C   0  0  1  0  0  0  0  0  0  0  0  0
    1.7894    2.0671    3.2009 O   0  0  0  0  0  0  0  0  0  0  0  0
    1.4691   -0.2925    3.2183 C   0  0  2  0  0  0  0  0  0  0  0  0
    2.4692   -0.5091    2.1614 N   0  0  0  0  0  0  0  0  0  0  0  0
    0.4234   -1.3999    3.1617 C   0  0  0  0  0  0  0  0  0  0  0  0
   -0.6386   -1.1577    4.2273 C   0  0  2  0  0  0  0  0  0  0  0  0
   -1.5996   -2.2651    4.1863 N   0  0  0  0  0  0  0  0  0  0  0  0
   -1.3257    0.2063    4.0009 C   0  0  1  0  0  0  0  0  0  0  0  0
   -2.3078    0.3185    5.0422 O   0  0  0  0  0  0  0  0  0  0  0  0
   -3.3991    1.2034    4.8128 C   0  0  1  0  0  0  0  0  0  0  0  0
   -4.3487    0.6130    3.9295 O   0  0  0  0  0  0  0  0  0  0  0  0
   -5.0823   -0.4968    4.4429 C   0  0  2  0  0  0  0  0  0  0  0  0
   -6.0497   -0.9963    3.3616 C   0  0  0  0  0  0  0  0  0  0  0  0
   -6.6510   -2.2716    3.7246 N   0  0  0  0  0  0  0  0  0  0  0  0
   -5.8706   -0.0965    5.7039 C   0  0  1  0  0  0  0  0  0  0  0  0
   -6.5430   -1.2279    6.2278 O   0  0  0  0  0  0  0  0  0  0  0  0
   -4.8886    0.4554    6.7449 C   0  0  2  0  0  0  0  0  0  0  0  0
   -5.5931    0.9139    7.8835 O   0  0  0  0  0  0  0  0  0  0  0  0
   -4.0466    1.5907    6.1472 C   0  0  1  0  0  0  0  0  0  0  0  0
   -3.0252    2.0235    7.1116 N   0  0  0  0  0  0  0  0  0  0  0  0
   -0.8301    4.8795    3.2371 C   0  0  2  0  0  0  0  0  0  0  0  0
    0.3350    5.6763    3.1309 O   0  0  0  0  0  0  0  0  0  0  0  0
   -2.0150    5.6244    3.8499 C   0  0  2  0  0  0  0  0  0  0  0  0
   -2.0696    6.9929    3.4988 O   0  0  0  0  0  0  0  0  0  0  0  0
  2  1  1  0  0  0  0
  3  2  1  1  0  0  0
  3 30  1  0  0  0  0
  4  5  1  0  0  0  0
  4  3  1  0  0  0  0
  5 28  1  0  0  0  0
  5  6  1  6  0  0  0
  7  6  1  6  0  0  0
  8  7  1  0  0  0  0
  8  9  1  1  0  0  0
 10 11  1  6  0  0  0
 10  8  1  0  0  0  0
 12 10  1  0  0  0  0
 13 12  1  0  0  0  0
 13 15  1  0  0  0  0
 13 14  1  6  0  0  0
 15  7  1  0  0  0  0
 15 16  1  1  0  0  0
 17 16  1  1  0  0  0
 18 17  1  0  0  0  0
 19 20  1  6  0  0  0
 19 18  1  0  0  0  0
 20 21  1  0  0  0  0
 22 24  1  0  0  0  0
 22 19  1  0  0  0  0
 22 23  1  1  0  0  0
 24 25  1  1  0  0  0
 24 26  1  0  0  0  0
 26 17  1  0  0  0  0
 26 27  1  1  0  0  0
 28 29  1  1  0  0  0
 28 30  1  0  0  0  0
 30 31  1  1  0  0  0
M  END
>  <CHROM.1>
60.99119377,101.11633869,-93.21162827,-93.07081631,64.67834426,-58.53247447
-63.99179980,81.72037047,77.00273522,169.45438092,176.34176051,-177.77488833
175.16172070,49.28814811,-64.88527435,55.09388089,-2.26990170,1.67721864
4.61653433,0.74601108,0.43263448,0.20073542

>  <Name>
lig.pdb

>  <RI>
0

>  <Rbt.Current_Directory>
/home/itssahil/PROJECTS/Mol_Feturizer/New_Systems/rnas/2n0j

>  <Rbt.Executable>
rbdock ($Id: //depot/dev/client3/rdock/2013.1/src/exe/rbdock.cxx#4 $)

>  <Rbt.Library>
libRbt.so (2013.1, Build901 2013/11/27)

>  <Rbt.Parameter_File>
/export/apps/rDock/src/rDock_2013.1_src/data/scripts/dock_solv.prm

>  <Rbt.Receptor>
prm/pocket_docking_8.prm

>  <SCORE>
-38.7125

>  <SCORE.INTER>
-31.9767

>  <SCORE.INTER.CONST>
1

>  <SCORE.INTER.POLAR>
-5.00996

>  <SCORE.INTER.ROT>
6

>  <SCORE.INTER.SOLV>
13.9022

>  <SCORE.INTER.VDW>
-16.852

>  <SCORE.INTER.norm>
-1.03151

>  <SCORE.INTRA>
-6.74126

>  <SCORE.INTRA.DIHEDRAL>
-10.6005

>  <SCORE.INTRA.DIHEDRAL.0>
28.0161

>  <SCORE.INTRA.POLAR>
-0.532696

>  <SCORE.INTRA.POLAR.0>
-1.05798

>  <SCORE.INTRA.REPUL>
0

>  <SCORE.INTRA.REPUL.0>
0

>  <SCORE.INTRA.SOLV>
0.289642

>  <SCORE.INTRA.SOLV.lig_0>
-42.5945

>  <SCORE.INTRA.VDW>
0.225325

>  <SCORE.INTRA.VDW.0>
-5.13869

>  <SCORE.INTRA.norm>
-0.21746

>  <SCORE.RESTR>
0.00543588

>  <SCORE.RESTR.CAVITY>
0.00543588

>  <SCORE.RESTR.norm>
0.000175351

>  <SCORE.SYSTEM>
0

>  <SCORE.SYSTEM.CONST>
0

>  <SCORE.SYSTEM.DIHEDRAL>
0

>  <SCORE.SYSTEM.SOLV>
0

>  <SCORE.SYSTEM.norm>
0

>  <SCORE.heavy>
31

>  <SCORE.norm>
-1.24879

>  <RMSD>
6.385

$$$$
lig.pdb
 OpenBabel11021811453D
libRbt.so/2013.1/901 2013/11/27
 31 33  0  0  0  0  0  0  0  0999 V2000
   -4.7581   -0.2750   -1.5409 O   0  0  0  0  0  0  0  0  0  0  0  0
   -4.3564    0.8333   -0.7596 C   0  0  0  0  0  0  0  0  0  0  0  0
   -2.8568    0.7789   -0.4379 C   0  0  1  0  0  0  0  0  0  0  0  0
   -2.4594    1.8471    0.4071 O   0  0  0  0  0  0  0  0  0  0  0  0
   -1.3055    1.4657    1.1500 C   0  0  1  0  0  0  0  0  0  0  0  0
   -1.4865    1.7908    2.5232 O   0  0  0  0  0  0  0  0  0  0  0  0
   -0.8057    2.9353    3.0125 C   0  0  2  0  0  0  0  0  0  0  0  0
   -1.3110    4.1531    2.2228 C   0  0  1  0  0  0  0  0  0  0  0  0
   -2.6570    4.4282    2.5778 O   0  0  0  0  0  0  0  0  0  0  0  0
   -0.5027    5.4367    2.4660 C   0  0  2  0  0  0  0  0  0  0  0  0
   -0.9800    6.5321    1.6078 N   0  0  0  0  0  0  0  0  0  0  0  0
    0.9723    5.1768    2.1835 C   0  0  0  0  0  0  0  0  0  0  0  0
    1.4617    4.0150    3.0395 C   0  0  2  0  0  0  0  0  0  0  0  0
    2.8940    3.8231    2.7879 N   0  0  0  0  0  0  0  0  0  0  0  0
    0.6492    2.7393    2.7293 C   0  0  1  0  0  0  0  0  0  0  0  0
    1.2027    1.7175    3.5725 O   0  0  0  0  0  0  0  0  0  0  0  0
    1.2271    0.3915    3.0552 C   0  0  1  0  0  0  0  0  0  0  0  0
    2.5685   -0.0647    2.9028 O   0  0  0  0  0  0  0  0  0  0  0  0
    3.2966   -0.2953    4.1071 C   0  0  2  0  0  0  0  0  0  0  0  0
    4.7080   -0.7798    3.7494 C   0  0  0  0  0  0  0  0  0  0  0  0
    5.5095   -1.0283    4.9393 N   0  0  0  0  0  0  0  0  0  0  0  0
    2.5897   -1.3473    4.9819 C   0  0  1  0  0  0  0  0  0  0  0  0
    3.2994   -1.5158    6.1961 O   0  0  0  0  0  0  0  0  0  0  0  0
    1.1625   -0.8675    5.2737 C   0  0  2  0  0  0  0  0  0  0  0  0
    0.4570   -1.8539    6.0033 O   0  0  0  0  0  0  0  0  0  0  0  0
    0.4233   -0.5403    3.9692 C   0  0  1  0  0  0  0  0  0  0  0  0
   -0.8948    0.0378    4.2670 N   0  0  0  0  0  0  0  0  0  0  0  0
   -1.1609   -0.0554    0.9972 C   0  0  2  0  0  0  0  0  0  0  0  0
   -0.0458   -0.3518    0.1773 O   0  0  0  0  0  0  0  0  0  0  0  0
   -2.4938   -0.4624    0.3709 C   0  0  2  0  0  0  0  0  0  0  0  0
   -2.4217   -1.6443   -0.4017 O   0  0  0  0  0  0  0  0  0  0  0  0
  2  1  1  0  0  0  0
  3  2  1  1  0  0  0
  3 30  1  0  0  0  0
  4  5  1  0  0  0  0
  4  3  1  0  0  0  0
  5 28  1  0  0  0  0
  5  6  1  1  0  0  0
  7  6  1  6  0  0  0
  8  7  1  0  0  0  0
  8  9  1  1  0  0  0
 10 11  1  6  0  0  0
 10  8  1  0  0  0  0
 12 10  1  0  0  0  0
 13 12  1  0  0  0  0
 13 15  1  0  0  0  0
 13 14  1  6  0  0  0
 15  7  1  0  0  0  0
 15 16  1  1  0  0  0
 17 16  1  1  0  0  0
 18 17  1  0  0  0  0
 19 20  1  6  0  0  0
 19 18  1  0  0  0  0
 20 21  1  0  0  0  0
 22 24  1  0  0  0  0
 22 19  1  0  0  0  0
 22 23  1  1  0  0  0
 24 25  1  6  0  0  0
 24 26  1  0  0  0  0
 26 17  1  0  0  0  0
 26 27  1  1  0  0  0
 28 29  1  6  0  0  0
 28 30  1  0  0  0  0
 30 31  1  6  0  0  0
M  END
>  <CHROM.1>
-173.28683683,-176.75316754,-103.67259832,60.92878555,-54.69242675,-68.76137691
-164.10195521,93.08273799,116.13947792,179.70945631,-43.85732193,-170.71603191
72.55820831,47.98949329,-175.44304059,-43.90830665,0.05619961,1.16501175
2.52419019,2.79934047,-0.64002184,-0.02118158

>  <Name>
lig.pdb

>  <RI>
1.79691e+07

>  <Rbt.Current_Directory>
/home/itssahil/PROJECTS/Mol_Feturizer/New_Systems/rnas/2n0j

>  <Rbt.Executable>
rbdock ($Id: //depot/dev/client3/rdock/2013.1/src/exe/rbdock.cxx#4 $)

>  <Rbt.Library>
libRbt.so (2013.1, Build901 2013/11/27)

>  <Rbt.Parameter_File>
/export/apps/rDock/src/rDock_2013.1_src/data/scripts/dock_solv.prm

>  <Rbt.Receptor>
prm/blind_docking_20.prm

>  <SCORE>
-33.1849

>  <SCORE.INTER>
-36.0788

>  <SCORE.INTER.CONST>
1

>  <SCORE.INTER.POLAR>
-4.27913

>  <SCORE.INTER.ROT>
6

>  <SCORE.INTER.SOLV>
22.5762

>  <SCORE.INTER.VDW>
-24.9141

>  <SCORE.INTER.norm>
-1.16383

>  <SCORE.INTRA>
-1.08546

>  <SCORE.INTRA.DIHEDRAL>
-5.87556

>  <SCORE.INTRA.DIHEDRAL.0>
28.0161

>  <SCORE.INTRA.POLAR>
-0.476907

>  <SCORE.INTRA.POLAR.0>
-1.05798

>  <SCORE.INTRA.REPUL>
0

>  <SCORE.INTRA.REPUL.0>
0

>  <SCORE.INTRA.SOLV>
2.16844

>  <SCORE.INTRA.SOLV.lig_0>
-42.5945

>  <SCORE.INTRA.VDW>
2.38958

>  <SCORE.INTRA.VDW.0>
-5.13869

>  <SCORE.INTRA.norm>
-0.0350149

>  <SCORE.RESTR>
3.9794

>  <SCORE.RESTR.CAVITY>
3.9794

>  <SCORE.RESTR.norm>
0.128368

>  <SCORE.SYSTEM>
0

>  <SCORE.SYSTEM.CONST>
0

>  <SCORE.SYSTEM.DIHEDRAL>
0

>  <SCORE.SYSTEM.SOLV>
0

>  <SCORE.SYSTEM.norm>
0

>  <SCORE.heavy>
31

>  <SCORE.norm>
-1.07048

>  <RMSD>
6.391

$$$$
lig.pdb
 OpenBabel11021811453D
libRbt.so/2013.1/901 2013/11/27
 31 33  0  0  0  0  0  0  0  0999 V2000
    4.4454    4.0225    0.5936 O   0  0  0  0  0  0  0  0  0  0  0  0
    3.8114    4.9836    1.4149 C   0  0  0  0  0  0  0  0  0  0  0  0
    2.2872    4.8047    1.4139 C   0  0  1  0  0  0  0  0  0  0  0  0
    1.9026    3.5522    1.9584 O   0  0  0  0  0  0  0  0  0  0  0  0
    0.5856    3.6467    2.4925 C   0  0  1  0  0  0  0  0  0  0  0  0
    0.5514    3.0775    3.7958 O   0  0  0  0  0  0  0  0  0  0  0  0
    0.2580    1.6926    3.8898 C   0  0  2  0  0  0  0  0  0  0  0  0
    1.0821    0.9661    2.8151 C   0  0  1  0  0  0  0  0  0  0  0  0
    2.4582    1.0068    3.1590 O   0  0  0  0  0  0  0  0  0  0  0  0
    0.7019   -0.5103    2.6258 C   0  0  2  0  0  0  0  0  0  0  0  0
    1.4608   -1.1135    1.5193 N   0  0  0  0  0  0  0  0  0  0  0  0
   -0.7906   -0.6240    2.3386 C   0  0  0  0  0  0  0  0  0  0  0  0
   -1.5810    0.0367    3.4614 C   0  0  2  0  0  0  0  0  0  0  0  0
   -3.0116   -0.1356    3.1868 N   0  0  0  0  0  0  0  0  0  0  0  0
   -1.1962    1.5268    3.5847 C   0  0  1  0  0  0  0  0  0  0  0  0
   -2.0063    2.0451    4.6509 O   0  0  0  0  0  0  0  0  0  0  0  0
   -2.4423    3.3956    4.5375 C   0  0  1  0  0  0  0  0  0  0  0  0
   -3.5269    3.4988    3.6191 O   0  0  0  0  0  0  0  0  0  0  0  0
   -4.7602    2.9136    4.0317 C   0  0  2  0  0  0  0  0  0  0  0  0
   -5.8036    3.1220    2.9261 C   0  0  0  0  0  0  0  0  0  0  0  0
   -6.0341    4.5353    2.6629 N   0  0  0  0  0  0  0  0  0  0  0  0
   -5.2562    3.5488    5.3440 C   0  0  1  0  0  0  0  0  0  0  0  0
   -6.4498    2.9117    5.7634 O   0  0  0  0  0  0  0  0  0  0  0  0
   -4.1707    3.3804    6.4145 C   0  0  2  0  0  0  0  0  0  0  0  0
   -4.5604    4.0313    7.6093 O   0  0  0  0  0  0  0  0  0  0  0  0
   -2.8293    3.9368    5.9184 C   0  0  1  0  0  0  0  0  0  0  0  0
   -1.7718    3.6551    6.8996 N   0  0  0  0  0  0  0  0  0  0  0  0
    0.2458    5.1419    2.5760 C   0  0  2  0  0  0  0  0  0  0  0  0
   -0.7266    5.4686    1.6006 O   0  0  0  0  0  0  0  0  0  0  0  0
    1.5963    5.8119    2.3278 C   0  0  2  0  0  0  0  0  0  0  0  0
    1.4945    7.1081    1.7724 O   0  0  0  0  0  0  0  0  0  0  0  0
  2  1  1  0  0  0  0
  3  2  1  1  0  0  0
  3 30  1  0  0  0  0
  4  5  1  0  0  0  0
  4  3  1  0  0  0  0
  5 28  1  0  0  0  0
  5  6  1  1  0  0  0
  7  6  1  6  0  0  0
  8  7  1  0  0  0  0
  8  9  1  1  0  0  0
 10 11  1  6  0  0  0
 10  8  1  0  0  0  0
 12 10  1  0  0  0  0
 13 12  1  0  0  0  0
 13 15  1  0  0  0  0
 13 14  1  6  0  0  0
 15  7  1  0  0  0  0
 15 16  1  1  0  0  0
 17 16  1  1  0  0  0
 18 17  1  0  0  0  0
 19 20  1  6  0  0  0
 19 18  1  0  0  0  0
 20 21  1  0  0  0  0
 22 24  1  0  0  0  0
 22 19  1  0  0  0  0
 22 23  1  1  0  0  0
 24 25  1  1  0  0  0
 24 26  1  0  0  0  0
 26 17  1  0  0  0  0
 26 27  1  1  0  0  0
 28 29  1  6  0  0  0
 28 30  1  0  0  0  0
 30 31  1  6  0  0  0
M  END
>  <CHROM.1>
-179.00405443,63.05718424,-89.76402619,44.63360999,-70.28018985,-41.58560157
-61.98967155,93.17465804,77.22520231,-60.45189006,-34.95121740,-66.93248178
61.74009752,172.57096857,-52.72770977,177.46321388,-1.10414691,2.96907873
3.44204259,0.02851046,0.43329177,-0.01055214

>  <Name>
lig.pdb

>  <RI>
0

>  <Rbt.Current_Directory>
/home/itssahil/PROJECTS/Mol_Feturizer/New_Systems/rnas/2n0j

>  <Rbt.Executable>
rbdock ($Id: //depot/dev/client3/rdock/2013.1/src/exe/rbdock.cxx#4 $)

>  <Rbt.Library>
libRbt.so (2013.1, Build901 2013/11/27)

>  <Rbt.Parameter_File>
/export/apps/rDock/src/rDock_2013.1_src/data/scripts/dock_solv.prm

>  <Rbt.Receptor>
prm/pocket_docking_5.prm

>  <SCORE>
-38.6452

>  <SCORE.INTER>
-35.891

>  <SCORE.INTER.CONST>
1

>  <SCORE.INTER.POLAR>
-5.0778

>  <SCORE.INTER.ROT>
6

>  <SCORE.INTER.SOLV>
14.2678

>  <SCORE.INTER.VDW>
-19.3572

>  <SCORE.INTER.norm>
-1.15777

>  <SCORE.INTRA>
-2.75426

>  <SCORE.INTRA.DIHEDRAL>
-14.0749

>  <SCORE.INTRA.DIHEDRAL.0>
28.0161

>  <SCORE.INTRA.POLAR>
0.458613

>  <SCORE.INTRA.POLAR.0>
-1.05798

>  <SCORE.INTRA.REPUL>
0

>  <SCORE.INTRA.REPUL.0>
0

>  <SCORE.INTRA.SOLV>
0.0633233

>  <SCORE.INTRA.SOLV.lig_0>
-42.5945

>  <SCORE.INTRA.VDW>
2.69227

>  <SCORE.INTRA.VDW.0>
-5.13869

>  <SCORE.INTRA.norm>
-0.088847

>  <SCORE.RESTR>
0

>  <SCORE.RESTR.CAVITY>
0

>  <SCORE.RESTR.norm>
0

>  <SCORE.SYSTEM>
0

>  <SCORE.SYSTEM.CONST>
0

>  <SCORE.SYSTEM.DIHEDRAL>
0

>  <SCORE.SYSTEM.SOLV>
0

>  <SCORE.SYSTEM.norm>
0

>  <SCORE.heavy>
31

>  <SCORE.norm>
-1.24662

>  <RMSD>
6.397

$$$$
lig.pdb
 OpenBabel11021811453D
libRbt.so/2013.1/901 2013/11/27
 31 33  0  0  0  0  0  0  0  0999 V2000
    5.1964    3.4909    2.0583 O   0  0  0  0  0  0  0  0  0  0  0  0
    4.2272    2.5495    1.6406 C   0  0  0  0  0  0  0  0  0  0  0  0
    2.8957    3.2303    1.2959 C   0  0  1  0  0  0  0  0  0  0  0  0
    1.9046    2.2889    0.9161 O   0  0  0  0  0  0  0  0  0  0  0  0
    0.6111    2.8197    1.1880 C   0  0  1  0  0  0  0  0  0  0  0  0
   -0.1759    1.8491    1.8679 O   0  0  0  0  0  0  0  0  0  0  0  0
   -0.3734    0.6043    1.2165 C   0  0  2  0  0  0  0  0  0  0  0  0
   -1.7469    0.6495    0.5283 C   0  0  1  0  0  0  0  0  0  0  0  0
   -1.7059    1.5571   -0.5617 O   0  0  0  0  0  0  0  0  0  0  0  0
   -2.2162   -0.7056   -0.0228 C   0  0  2  0  0  0  0  0  0  0  0  0
   -3.5747   -0.6078   -0.5788 N   0  0  0  0  0  0  0  0  0  0  0  0
   -2.1971   -1.7474    1.0895 C   0  0  0  0  0  0  0  0  0  0  0  0
   -0.8021   -1.8231    1.6978 C   0  0  2  0  0  0  0  0  0  0  0  0
   -0.7990   -2.8696    2.7256 N   0  0  0  0  0  0  0  0  0  0  0  0
   -0.3925   -0.4511    2.2753 C   0  0  1  0  0  0  0  0  0  0  0  0
    0.9175   -0.6442    2.8305 O   0  0  0  0  0  0  0  0  0  0  0  0
    1.4247    0.3864    3.6714 C   0  0  1  0  0  0  0  0  0  0  0  0
    0.6364    0.5058    4.8525 O   0  0  0  0  0  0  0  0  0  0  0  0
    0.7164   -0.5777    5.7761 C   0  0  2  0  0  0  0  0  0  0  0  0
   -0.1899   -0.2752    6.9769 C   0  0  0  0  0  0  0  0  0  0  0  0
   -0.7620   -1.4902    7.5390 N   0  0  0  0  0  0  0  0  0  0  0  0
    2.1656   -0.7837    6.2548 C   0  0  1  0  0  0  0  0  0  0  0  0
    2.2287   -1.9002    7.1243 O   0  0  0  0  0  0  0  0  0  0  0  0
    3.0596   -1.0234    5.0318 C   0  0  2  0  0  0  0  0  0  0  0  0
    4.4131   -1.1294    5.4316 O   0  0  0  0  0  0  0  0  0  0  0  0
    2.8939    0.1088    4.0092 C   0  0  1  0  0  0  0  0  0  0  0  0
    3.6563   -0.1962    2.7901 N   0  0  0  0  0  0  0  0  0  0  0  0
    0.8139    4.0428    2.0942 C   0  0  2  0  0  0  0  0  0  0  0  0
    0.5370    5.2276    1.3710 O   0  0  0  0  0  0  0  0  0  0  0  0
    2.2791    3.9192    2.5092 C   0  0  2  0  0  0  0  0  0  0  0  0
    2.8852    5.1555    2.8310 O   0  0  0  0  0  0  0  0  0  0  0  0
  2  1  1  0  0  0  0
  3  2  1  1  0  0  0
  3 30  1  0  0  0  0
  4  5  1  0  0  0  0
  4  3  1  0  0  0  0
  5 28  1  0  0  0  0
  5  6  1  1  0  0  0
  7  6  1  1  0  0  0
  8  7  1  0  0  0  0
  8  9  1  6  0  0  0
 10 11  1  1  0  0  0
 10  8  1  0  0  0  0
 12 10  1  0  0  0  0
 13 12  1  0  0  0  0
 13 15  1  0  0  0  0
 13 14  1  1  0  0  0
 15  7  1  0  0  0  0
 15 16  1  6  0  0  0
 17 16  1  6  0  0  0
 18 17  1  0  0  0  0
 19 20  1  1  0  0  0
 19 18  1  0  0  0  0
 20 21  1  0  0  0  0
 22 24  1  0  0  0  0
 22 19  1  0  0  0  0
 22 23  1  1  0  0  0
 24 25  1  1  0  0  0
 24 26  1  0  0  0  0
 26 17  1  0  0  0  0
 26 27  1  6  0  0  0
 28 29  1  6  0  0  0
 28 30  1  0  0  0  0
 30 31  1  6  0  0  0
M  END
>  <CHROM.1>
171.66438059,-178.14936841,-58.05046104,-98.24170996,-82.66097043,-54.41850363
56.08690692,71.76412551,64.63932080,147.62010140,-50.00156814,56.26639442
-72.65385539,149.53393155,50.98319868,-50.69440499,0.94006413,0.71599687
2.86812888,-1.81901990,0.60828899,2.34507227

>  <Name>
lig.pdb

>  <RI>
0

>  <Rbt.Current_Directory>
/home/itssahil/PROJECTS/Mol_Feturizer/New_Systems/rnas/2n0j

>  <Rbt.Executable>
rbdock ($Id: //depot/dev/client3/rdock/2013.1/src/exe/rbdock.cxx#4 $)

>  <Rbt.Library>
libRbt.so (2013.1, Build901 2013/11/27)

>  <Rbt.Parameter_File>
/export/apps/rDock/src/rDock_2013.1_src/data/scripts/dock_solv.prm

>  <Rbt.Receptor>
prm/blind_docking_60.prm

>  <SCORE>
-37.8997

>  <SCORE.INTER>
-35.3221

>  <SCORE.INTER.CONST>
1

>  <SCORE.INTER.POLAR>
-4.98455

>  <SCORE.INTER.ROT>
6

>  <SCORE.INTER.SOLV>
24.3534

>  <SCORE.INTER.VDW>
-22.6507

>  <SCORE.INTER.norm>
-1.13942

>  <SCORE.INTRA>
-3.40117

>  <SCORE.INTRA.DIHEDRAL>
-12.4157

>  <SCORE.INTRA.DIHEDRAL.0>
28.0161

>  <SCORE.INTRA.POLAR>
0.492345

>  <SCORE.INTRA.POLAR.0>
-1.05798

>  <SCORE.INTRA.REPUL>
0

>  <SCORE.INTRA.REPUL.0>
0

>  <SCORE.INTRA.SOLV>
0.513067

>  <SCORE.INTRA.SOLV.lig_0>
-42.5945

>  <SCORE.INTRA.VDW>
0.876151

>  <SCORE.INTRA.VDW.0>
-5.13869

>  <SCORE.INTRA.norm>
-0.109715

>  <SCORE.RESTR>
0.823641

>  <SCORE.RESTR.CAVITY>
0.823641

>  <SCORE.RESTR.norm>
0.026569

>  <SCORE.SYSTEM>
0

>  <SCORE.SYSTEM.CONST>
0

>  <SCORE.SYSTEM.DIHEDRAL>
0

>  <SCORE.SYSTEM.SOLV>
0

>  <SCORE.SYSTEM.norm>
0

>  <SCORE.heavy>
31

>  <SCORE.norm>
-1.22257

>  <RMSD>
6.405

$$$$
lig.pdb
 OpenBabel11021811453D
libRbt.so/2013.1/901 2013/11/27
 31 33  0  0  0  0  0  0  0  0999 V2000
    4.7847    2.6063    1.1647 O   0  0  0  0  0  0  0  0  0  0  0  0
    3.9424    3.1200    2.1780 C   0  0  0  0  0  0  0  0  0  0  0  0
    2.5911    3.5726    1.6085 C   0  0  1  0  0  0  0  0  0  0  0  0
    1.8117    2.4738    1.1632 O   0  0  0  0  0  0  0  0  0  0  0  0
    0.4296    2.8138    1.2184 C   0  0  1  0  0  0  0  0  0  0  0  0
   -0.2997    1.7685    1.8503 O   0  0  0  0  0  0  0  0  0  0  0  0
   -0.4896    0.5730    1.1103 C   0  0  2  0  0  0  0  0  0  0  0  0
   -1.8288    0.6917    0.3657 C   0  0  1  0  0  0  0  0  0  0  0  0
   -1.7211    1.6668   -0.6594 O   0  0  0  0  0  0  0  0  0  0  0  0
   -2.2969   -0.6146   -0.2936 C   0  0  2  0  0  0  0  0  0  0  0  0
   -3.6262   -0.4523   -0.9023 N   0  0  0  0  0  0  0  0  0  0  0  0
   -2.3482   -1.7264    0.7478 C   0  0  0  0  0  0  0  0  0  0  0  0
   -0.9843   -1.8708    1.4117 C   0  0  2  0  0  0  0  0  0  0  0  0
   -1.0478   -2.9815    2.3678 N   0  0  0  0  0  0  0  0  0  0  0  0
   -0.5768   -0.5481    2.0958 C   0  0  1  0  0  0  0  0  0  0  0  0
    0.7024   -0.8045    2.6953 O   0  0  0  0  0  0  0  0  0  0  0  0
    1.1908    0.1605    3.6210 C   0  0  1  0  0  0  0  0  0  0  0  0
    0.3892    0.1785    4.7991 O   0  0  0  0  0  0  0  0  0  0  0  0
    0.4706   -0.9742    5.6345 C   0  0  2  0  0  0  0  0  0  0  0  0
   -0.4509   -0.7763    6.8455 C   0  0  0  0  0  0  0  0  0  0  0  0
   -0.7983   -2.0446    7.4705 N   0  0  0  0  0  0  0  0  0  0  0  0
    1.9167   -1.2046    6.1113 C   0  0  1  0  0  0  0  0  0  0  0  0
    1.9820   -2.3861    6.8899 O   0  0  0  0  0  0  0  0  0  0  0  0
    2.8255   -1.3381    4.8830 C   0  0  2  0  0  0  0  0  0  0  0  0
    4.1758   -1.4634    5.2879 O   0  0  0  0  0  0  0  0  0  0  0  0
    2.6591   -0.1297    3.9517 C   0  0  1  0  0  0  0  0  0  0  0  0
    3.4369   -0.3300    2.7207 N   0  0  0  0  0  0  0  0  0  0  0  0
    0.3202    4.0957    2.0568 C   0  0  2  0  0  0  0  0  0  0  0  0
   -0.0163    5.1882    1.2221 O   0  0  0  0  0  0  0  0  0  0  0  0
    1.7120    4.2171    2.6755 C   0  0  2  0  0  0  0  0  0  0  0  0
    2.0804    5.5454    2.9904 O   0  0  0  0  0  0  0  0  0  0  0  0
  2  1  1  0  0  0  0
  3  2  1  1  0  0  0
  3 30  1  0  0  0  0
  4  5  1  0  0  0  0
  4  3  1  0  0  0  0
  5 28  1  0  0  0  0
  5  6  1  1  0  0  0
  7  6  1  1  0  0  0
  8  7  1  0  0  0  0
  8  9  1  6  0  0  0
 10 11  1  1  0  0  0
 10  8  1  0  0  0  0
 12 10  1  0  0  0  0
 13 12  1  0  0  0  0
 13 15  1  0  0  0  0
 13 14  1  1  0  0  0
 15  7  1  0  0  0  0
 15 16  1  6  0  0  0
 17 16  1  6  0  0  0
 18 17  1  0  0  0  0
 19 20  1  1  0  0  0
 19 18  1  0  0  0  0
 20 21  1  0  0  0  0
 22 24  1  0  0  0  0
 22 19  1  0  0  0  0
 22 23  1  6  0  0  0
 24 25  1  1  0  0  0
 24 26  1  0  0  0  0
 26 17  1  0  0  0  0
 26 27  1  6  0  0  0
 28 29  1  6  0  0  0
 28 30  1  0  0  0  0
 30 31  1  6  0  0  0
M  END
>  <CHROM.1>
-58.87875524,68.61791264,-72.89263898,-92.43222790,178.26728066,179.56594686
-56.51658383,71.58392923,67.45226900,159.30406459,62.06013300,-177.53944741
-66.16206830,158.19347078,54.72336606,-55.35614846,0.69282210,0.60724918
2.75901638,-1.77402847,0.64629618,2.43607184

>  <Name>
lig.pdb

>  <RI>
0

>  <Rbt.Current_Directory>
/home/itssahil/PROJECTS/Mol_Feturizer/New_Systems/rnas/2n0j

>  <Rbt.Executable>
rbdock ($Id: //depot/dev/client3/rdock/2013.1/src/exe/rbdock.cxx#4 $)

>  <Rbt.Library>
libRbt.so (2013.1, Build901 2013/11/27)

>  <Rbt.Parameter_File>
/export/apps/rDock/src/rDock_2013.1_src/data/scripts/dock_solv.prm

>  <Rbt.Receptor>
prm/blind_docking_60.prm

>  <SCORE>
-39.4306

>  <SCORE.INTER>
-33.3215

>  <SCORE.INTER.CONST>
1

>  <SCORE.INTER.POLAR>
-3.939

>  <SCORE.INTER.ROT>
6

>  <SCORE.INTER.SOLV>
25.0343

>  <SCORE.INTER.VDW>
-25.0291

>  <SCORE.INTER.norm>
-1.07489

>  <SCORE.INTRA>
-6.21285

>  <SCORE.INTRA.DIHEDRAL>
-18.641

>  <SCORE.INTRA.DIHEDRAL.0>
28.0161

>  <SCORE.INTRA.POLAR>
0.545032

>  <SCORE.INTRA.POLAR.0>
-1.05798

>  <SCORE.INTRA.REPUL>
0.00502315

>  <SCORE.INTRA.REPUL.0>
0

>  <SCORE.INTRA.SOLV>
0.148494

>  <SCORE.INTRA.SOLV.lig_0>
-42.5945

>  <SCORE.INTRA.VDW>
1.15516

>  <SCORE.INTRA.VDW.0>
-5.13869

>  <SCORE.INTRA.norm>
-0.200414

>  <SCORE.RESTR>
0.103725

>  <SCORE.RESTR.CAVITY>
0.103725

>  <SCORE.RESTR.norm>
0.00334598

>  <SCORE.SYSTEM>
0

>  <SCORE.SYSTEM.CONST>
0

>  <SCORE.SYSTEM.DIHEDRAL>
0

>  <SCORE.SYSTEM.SOLV>
0

>  <SCORE.SYSTEM.norm>
0

>  <SCORE.heavy>
31

>  <SCORE.norm>
-1.27196

>  <RMSD>
6.406

$$$$
lig.pdb
 OpenBabel11021811453D
libRbt.so/2013.1/901 2013/11/27
 31 33  0  0  0  0  0  0  0  0999 V2000
   -1.6930    6.0727    4.1466 O   0  0  0  0  0  0  0  0  0  0  0  0
   -0.9922    4.8850    4.4602 C   0  0  0  0  0  0  0  0  0  0  0  0
   -0.1849    4.3759    3.2584 C   0  0  1  0  0  0  0  0  0  0  0  0
    0.7235    3.3511    3.6292 O   0  0  0  0  0  0  0  0  0  0  0  0
    0.9896    2.5178    2.5051 C   0  0  1  0  0  0  0  0  0  0  0  0
    0.8743    1.1503    2.8799 O   0  0  0  0  0  0  0  0  0  0  0  0
    1.4658    0.7643    4.1103 C   0  0  2  0  0  0  0  0  0  0  0  0
    2.8557    0.1863    3.7999 C   0  0  1  0  0  0  0  0  0  0  0  0
    3.7186    1.2245    3.3630 O   0  0  0  0  0  0  0  0  0  0  0  0
    3.5322   -0.4961    4.9986 C   0  0  2  0  0  0  0  0  0  0  0  0
    4.8106   -1.1086    4.6053 N   0  0  0  0  0  0  0  0  0  0  0  0
    2.6100   -1.5679    5.5677 C   0  0  0  0  0  0  0  0  0  0  0  0
    1.2687   -0.9469    5.9379 C   0  0  2  0  0  0  0  0  0  0  0  0
    0.4227   -1.9875    6.5323 N   0  0  0  0  0  0  0  0  0  0  0  0
    0.6088   -0.3124    4.6947 C   0  0  1  0  0  0  0  0  0  0  0  0
   -0.6423    0.2211    5.1547 O   0  0  0  0  0  0  0  0  0  0  0  0
   -1.6037    0.5683    4.1639 C   0  0  1  0  0  0  0  0  0  0  0  0
   -1.8861   -0.5475    3.3238 O   0  0  0  0  0  0  0  0  0  0  0  0
   -2.5897   -1.6302    3.9290 C   0  0  2  0  0  0  0  0  0  0  0  0
   -2.8042   -2.7309    2.8816 C   0  0  0  0  0  0  0  0  0  0  0  0
   -1.5459   -3.1664    2.2929 N   0  0  0  0  0  0  0  0  0  0  0  0
   -3.9494   -1.1609    4.4790 C   0  0  1  0  0  0  0  0  0  0  0  0
   -4.6024   -2.2387    5.1258 O   0  0  0  0  0  0  0  0  0  0  0  0
   -3.7109   -0.0207    5.4768 C   0  0  2  0  0  0  0  0  0  0  0  0
   -4.9479    0.4920    5.9349 O   0  0  0  0  0  0  0  0  0  0  0  0
   -2.8771    1.0961    4.8343 C   0  0  1  0  0  0  0  0  0  0  0  0
   -2.5481    2.1205    5.8358 N   0  0  0  0  0  0  0  0  0  0  0  0
   -0.0696    2.8506    1.4442 C   0  0  2  0  0  0  0  0  0  0  0  0
    0.5310    3.5461    0.3676 O   0  0  0  0  0  0  0  0  0  0  0  0
   -1.0754    3.6978    2.2220 C   0  0  2  0  0  0  0  0  0  0  0  0
   -1.8005    4.6039    1.4144 O   0  0  0  0  0  0  0  0  0  0  0  0
  2  1  1  0  0  0  0
  3  2  1  1  0  0  0
  3 30  1  0  0  0  0
  4  5  1  0  0  0  0
  4  3  1  0  0  0  0
  5 28  1  0  0  0  0
  5  6  1  1  0  0  0
  7  6  1  6  0  0  0
  8  7  1  0  0  0  0
  8  9  1  1  0  0  0
 10 11  1  6  0  0  0
 10  8  1  0  0  0  0
 12 10  1  0  0  0  0
 13 12  1  0  0  0  0
 13 15  1  0  0  0  0
 13 14  1  6  0  0  0
 15  7  1  0  0  0  0
 15 16  1  1  0  0  0
 17 16  1  1  0  0  0
 18 17  1  0  0  0  0
 19 20  1  6  0  0  0
 19 18  1  0  0  0  0
 20 21  1  0  0  0  0
 22 24  1  0  0  0  0
 22 19  1  0  0  0  0
 22 23  1  1  0  0  0
 24 25  1  6  0  0  0
 24 26  1  0  0  0  0
 26 17  1  0  0  0  0
 26 27  1  1  0  0  0
 28 29  1  6  0  0  0
 28 30  1  0  0  0  0
 30 31  1  6  0  0  0
M  END
>  <CHROM.1>
-78.99289435,168.23873408,-44.00064389,-96.51555535,-168.55172080,125.85199104
58.03585470,74.39977086,55.78383364,56.06902772,161.82544152,-59.21833462
-52.19336087,-45.87726133,-61.86789852,-171.02837066,-0.50016387,0.84296699
3.97107093,1.01464180,0.07153168,-0.32557276

>  <Name>
lig.pdb

>  <RI>
3.32461e+07

>  <Rbt.Current_Directory>
/home/itssahil/PROJECTS/Mol_Feturizer/New_Systems/rnas/2n0j

>  <Rbt.Executable>
rbdock ($Id: //depot/dev/client3/rdock/2013.1/src/exe/rbdock.cxx#4 $)

>  <Rbt.Library>
libRbt.so (2013.1, Build901 2013/11/27)

>  <Rbt.Parameter_File>
/export/apps/rDock/src/rDock_2013.1_src/data/scripts/dock_solv.prm

>  <Rbt.Receptor>
prm/pocket_docking_7.prm

>  <SCORE>
-26.9945

>  <SCORE.INTER>
-26.9331

>  <SCORE.INTER.CONST>
1

>  <SCORE.INTER.POLAR>
-6.91645

>  <SCORE.INTER.ROT>
6

>  <SCORE.INTER.SOLV>
21.147

>  <SCORE.INTER.VDW>
-9.54961

>  <SCORE.INTER.norm>
-0.868811

>  <SCORE.INTRA>
-0.0930927

>  <SCORE.INTRA.DIHEDRAL>
-12.3568

>  <SCORE.INTRA.DIHEDRAL.0>
28.0161

>  <SCORE.INTRA.POLAR>
0.982976

>  <SCORE.INTRA.POLAR.0>
-1.05798

>  <SCORE.INTRA.REPUL>
0

>  <SCORE.INTRA.REPUL.0>
0

>  <SCORE.INTRA.SOLV>
-0.278347

>  <SCORE.INTRA.SOLV.lig_0>
-42.5945

>  <SCORE.INTRA.VDW>
2.88236

>  <SCORE.INTRA.VDW.0>
-5.13869

>  <SCORE.INTRA.norm>
-0.00300299

>  <SCORE.RESTR>
0.0316843

>  <SCORE.RESTR.CAVITY>
0.0316843

>  <SCORE.RESTR.norm>
0.00102207

>  <SCORE.SYSTEM>
0

>  <SCORE.SYSTEM.CONST>
0

>  <SCORE.SYSTEM.DIHEDRAL>
0

>  <SCORE.SYSTEM.SOLV>
0

>  <SCORE.SYSTEM.norm>
0

>  <SCORE.heavy>
31

>  <SCORE.norm>
-0.870792

>  <RMSD>
6.408

$$$$
lig.pdb
 OpenBabel11021811453D
libRbt.so/2013.1/901 2013/11/27
 31 33  0  0  0  0  0  0  0  0999 V2000
    5.0152    3.5908    1.3418 O   0  0  0  0  0  0  0  0  0  0  0  0
    3.9581    2.8329    1.8970 C   0  0  0  0  0  0  0  0  0  0  0  0
    2.5908    3.3544    1.4349 C   0  0  1  0  0  0  0  0  0  0  0  0
    1.7370    2.3002    1.0193 O   0  0  0  0  0  0  0  0  0  0  0  0
    0.3776    2.6939    1.1797 C   0  0  1  0  0  0  0  0  0  0  0  0
   -0.3494    1.6621    1.8360 O   0  0  0  0  0  0  0  0  0  0  0  0
   -0.5085    0.4375    1.1375 C   0  0  2  0  0  0  0  0  0  0  0  0
   -1.7878    0.5439    0.2924 C   0  0  1  0  0  0  0  0  0  0  0  0
   -1.5873    1.4698   -0.7640 O   0  0  0  0  0  0  0  0  0  0  0  0
   -2.2322   -0.7832   -0.3412 C   0  0  2  0  0  0  0  0  0  0  0  0
   -3.5106   -0.6271   -1.0520 N   0  0  0  0  0  0  0  0  0  0  0  0
   -2.3802   -1.8456    0.7415 C   0  0  0  0  0  0  0  0  0  0  0  0
   -1.0709   -1.9818    1.5091 C   0  0  2  0  0  0  0  0  0  0  0  0
   -1.2248   -3.0469    2.5059 N   0  0  0  0  0  0  0  0  0  0  0  0
   -0.6884   -0.6362    2.1623 C   0  0  1  0  0  0  0  0  0  0  0  0
    0.5389   -0.8858    2.8644 O   0  0  0  0  0  0  0  0  0  0  0  0
    0.9362    0.0733    3.8386 C   0  0  1  0  0  0  0  0  0  0  0  0
    0.1984   -0.0999    5.0454 O   0  0  0  0  0  0  0  0  0  0  0  0
    0.4768   -1.2837    5.7901 C   0  0  2  0  0  0  0  0  0  0  0  0
   -0.4025   -1.2982    7.0476 C   0  0  0  0  0  0  0  0  0  0  0  0
   -0.0943   -0.1841    7.9328 N   0  0  0  0  0  0  0  0  0  0  0  0
    1.9624   -1.3421    6.1914 C   0  0  1  0  0  0  0  0  0  0  0  0
    2.2260   -2.5528    6.8780 O   0  0  0  0  0  0  0  0  0  0  0  0
    2.8196   -1.2648    4.9218 C   0  0  2  0  0  0  0  0  0  0  0  0
    4.1926   -1.2278    5.2631 O   0  0  0  0  0  0  0  0  0  0  0  0
    2.4448   -0.0313    4.0892 C   0  0  1  0  0  0  0  0  0  0  0  0
    3.1813   -0.0379    2.8172 N   0  0  0  0  0  0  0  0  0  0  0  0
    0.3804    3.9562    2.0543 C   0  0  2  0  0  0  0  0  0  0  0  0
    0.0329    5.0833    1.2717 O   0  0  0  0  0  0  0  0  0  0  0  0
    1.8155    4.0049    2.5763 C   0  0  2  0  0  0  0  0  0  0  0  0
    2.2602    5.3083    2.8963 O   0  0  0  0  0  0  0  0  0  0  0  0
  2  1  1  0  0  0  0
  3  2  1  1  0  0  0
  3 30  1  0  0  0  0
  4  5  1  0  0  0  0
  4  3  1  0  0  0  0
  5 28  1  0  0  0  0
  5  6  1  1  0  0  0
  7  6  1  1  0  0  0
  8  7  1  0  0  0  0
  8  9  1  6  0  0  0
 10 11  1  1  0  0  0
 10  8  1  0  0  0  0
 12 10  1  0  0  0  0
 13 12  1  0  0  0  0
 13 15  1  0  0  0  0
 13 14  1  1  0  0  0
 15  7  1  0  0  0  0
 15 16  1  6  0  0  0
 17 16  1  6  0  0  0
 18 17  1  0  0  0  0
 19 20  1  1  0  0  0
 19 18  1  0  0  0  0
 20 21  1  0  0  0  0
 22 24  1  0  0  0  0
 22 19  1  0  0  0  0
 22 23  1  6  0  0  0
 24 25  1  1  0  0  0
 24 26  1  0  0  0  0
 26 17  1  0  0  0  0
 26 27  1  6  0  0  0
 28 29  1  6  0  0  0
 28 30  1  0  0  0  0
 30 31  1  6  0  0  0
M  END
>  <CHROM.1>
-58.12654558,133.70765935,-65.90330583,-88.83046105,-178.10547592,-171.00176006
-176.87939457,75.27841822,78.33461999,-63.21474040,-74.65647922,-178.15092916
99.57022851,160.79339444,57.69531931,70.74324910,0.71041708,0.60178282,2.79216000
-1.84802754,0.68881896,2.37762364

>  <Name>
lig.pdb

>  <RI>
0

>  <Rbt.Current_Directory>
/home/itssahil/PROJECTS/Mol_Feturizer/New_Systems/rnas/2n0j

>  <Rbt.Executable>
rbdock ($Id: //depot/dev/client3/rdock/2013.1/src/exe/rbdock.cxx#4 $)

>  <Rbt.Library>
libRbt.so (2013.1, Build901 2013/11/27)

>  <Rbt.Parameter_File>
/export/apps/rDock/src/rDock_2013.1_src/data/scripts/dock_solv.prm

>  <Rbt.Receptor>
prm/blind_docking_60.prm

>  <SCORE>
-38.2186

>  <SCORE.INTER>
-36.0959

>  <SCORE.INTER.CONST>
1

>  <SCORE.INTER.POLAR>
-4.13408

>  <SCORE.INTER.ROT>
6

>  <SCORE.INTER.SOLV>
22.7892

>  <SCORE.INTER.VDW>
-25.48

>  <SCORE.INTER.norm>
-1.16438

>  <SCORE.INTRA>
-2.4419

>  <SCORE.INTRA.DIHEDRAL>
-9.41559

>  <SCORE.INTRA.DIHEDRAL.0>
28.0161

>  <SCORE.INTRA.POLAR>
0.353944

>  <SCORE.INTRA.POLAR.0>
-1.05798

>  <SCORE.INTRA.REPUL>
0

>  <SCORE.INTRA.REPUL.0>
0

>  <SCORE.INTRA.SOLV>
0.191966

>  <SCORE.INTRA.SOLV.lig_0>
-42.5945

>  <SCORE.INTRA.VDW>
0.9665

>  <SCORE.INTRA.VDW.0>
-5.13869

>  <SCORE.INTRA.norm>
-0.0787711

>  <SCORE.RESTR>
0.319123

>  <SCORE.RESTR.CAVITY>
0.319123

>  <SCORE.RESTR.norm>
0.0102943

>  <SCORE.SYSTEM>
0

>  <SCORE.SYSTEM.CONST>
0

>  <SCORE.SYSTEM.DIHEDRAL>
0

>  <SCORE.SYSTEM.SOLV>
0

>  <SCORE.SYSTEM.norm>
0

>  <SCORE.heavy>
31

>  <SCORE.norm>
-1.23286

>  <RMSD>
6.410

$$$$
lig.pdb
 OpenBabel11021811453D
libRbt.so/2013.1/901 2013/11/27
 31 33  0  0  0  0  0  0  0  0999 V2000
   -4.9404   -0.1981   -2.2368 O   0  0  0  0  0  0  0  0  0  0  0  0
   -4.3514    0.7228   -1.3395 C   0  0  0  0  0  0  0  0  0  0  0  0
   -3.3263    0.0382   -0.4254 C   0  0  1  0  0  0  0  0  0  0  0  0
   -2.7439    0.9513    0.4911 O   0  0  0  0  0  0  0  0  0  0  0  0
   -2.3048    0.2507    1.6509 C   0  0  1  0  0  0  0  0  0  0  0  0
   -2.7455    0.9298    2.8208 O   0  0  0  0  0  0  0  0  0  0  0  0
   -2.0435    2.1062    3.1894 C   0  0  2  0  0  0  0  0  0  0  0  0
   -2.4134    3.2065    2.1821 C   0  0  1  0  0  0  0  0  0  0  0  0
   -3.7662    3.5913    2.3697 O   0  0  0  0  0  0  0  0  0  0  0  0
   -1.5567    4.4764    2.2987 C   0  0  2  0  0  0  0  0  0  0  0  0
   -1.9000    5.4439    1.2451 N   0  0  0  0  0  0  0  0  0  0  0  0
   -0.0805    4.1122    2.1915 C   0  0  0  0  0  0  0  0  0  0  0  0
    0.2713    3.0783    3.2542 C   0  0  2  0  0  0  0  0  0  0  0  0
    1.7063    2.7880    3.1634 N   0  0  0  0  0  0  0  0  0  0  0  0
   -0.5837    1.8060    3.0700 C   0  0  1  0  0  0  0  0  0  0  0  0
   -0.1591    0.9055    4.1046 O   0  0  0  0  0  0  0  0  0  0  0  0
    0.1542   -0.4279    3.7165 C   0  0  1  0  0  0  0  0  0  0  0  0
    1.5649   -0.6064    3.6229 O   0  0  0  0  0  0  0  0  0  0  0  0
    2.2879   -0.5697    4.8515 C   0  0  2  0  0  0  0  0  0  0  0  0
    3.7791   -0.7799    4.5570 C   0  0  0  0  0  0  0  0  0  0  0  0
    4.1708   -0.1654    3.2966 N   0  0  0  0  0  0  0  0  0  0  0  0
    1.7871   -1.6617    5.8149 C   0  0  1  0  0  0  0  0  0  0  0  0
    2.4789   -1.5672    7.0474 O   0  0  0  0  0  0  0  0  0  0  0  0
    0.2833   -1.4652    6.0442 C   0  0  2  0  0  0  0  0  0  0  0  0
   -0.2252   -2.5063    6.8569 O   0  0  0  0  0  0  0  0  0  0  0  0
   -0.4674   -1.4194    4.7065 C   0  0  1  0  0  0  0  0  0  0  0  0
   -1.8850   -1.1039    4.9335 N   0  0  0  0  0  0  0  0  0  0  0  0
   -2.9434   -1.1447    1.5959 C   0  0  2  0  0  0  0  0  0  0  0  0
   -1.9524   -2.1157    1.3157 O   0  0  0  0  0  0  0  0  0  0  0  0
   -3.9781   -1.0014    0.4809 C   0  0  2  0  0  0  0  0  0  0  0  0
   -4.2809   -2.2175   -0.1737 O   0  0  0  0  0  0  0  0  0  0  0  0
  2  1  1  0  0  0  0
  3  2  1  1  0  0  0
  3 30  1  0  0  0  0
  4  5  1  0  0  0  0
  4  3  1  0  0  0  0
  5 28  1  0  0  0  0
  5  6  1  1  0  0  0
  7  6  1  6  0  0  0
  8  7  1  0  0  0  0
  8  9  1  1  0  0  0
 10 11  1  6  0  0  0
 10  8  1  0  0  0  0
 12 10  1  0  0  0  0
 13 12  1  0  0  0  0
 13 15  1  0  0  0  0
 13 14  1  6  0  0  0
 15  7  1  0  0  0  0
 15 16  1  1  0  0  0
 17 16  1  1  0  0  0
 18 17  1  0  0  0  0
 19 20  1  6  0  0  0
 19 18  1  0  0  0  0
 20 21  1  0  0  0  0
 22 24  1  0  0  0  0
 22 19  1  0  0  0  0
 22 23  1  1  0  0  0
 24 25  1  1  0  0  0
 24 26  1  0  0  0  0
 26 17  1  0  0  0  0
 26 27  1  1  0  0  0
 28 29  1  6  0  0  0
 28 30  1  0  0  0  0
 30 31  1  6  0  0  0
M  END
>  <CHROM.1>
-60.58265101,-179.16659251,-76.28161668,72.03525664,-55.92321773,-154.27525626
-59.90064248,108.35945640,101.28508026,35.19916759,156.29321147,-163.20433031
68.96820559,153.07401850,165.09536967,59.58875782,-0.97457494,0.47485031
2.78591393,2.75170056,-0.70149792,-0.21404603

>  <Name>
lig.pdb

>  <RI>
3.32461e+07

>  <Rbt.Current_Directory>
/home/itssahil/PROJECTS/Mol_Feturizer/New_Systems/rnas/2n0j

>  <Rbt.Executable>
rbdock ($Id: //depot/dev/client3/rdock/2013.1/src/exe/rbdock.cxx#4 $)

>  <Rbt.Library>
libRbt.so (2013.1, Build901 2013/11/27)

>  <Rbt.Parameter_File>
/export/apps/rDock/src/rDock_2013.1_src/data/scripts/dock_solv.prm

>  <Rbt.Receptor>
prm/pocket_docking_7.prm

>  <SCORE>
-41.4481

>  <SCORE.INTER>
-42.3957

>  <SCORE.INTER.CONST>
1

>  <SCORE.INTER.POLAR>
-5.88344

>  <SCORE.INTER.ROT>
6

>  <SCORE.INTER.SOLV>
21.7183

>  <SCORE.INTER.VDW>
-23.4918

>  <SCORE.INTER.norm>
-1.3676

>  <SCORE.INTRA>
0.947591

>  <SCORE.INTRA.DIHEDRAL>
-4.74267

>  <SCORE.INTRA.DIHEDRAL.0>
28.0161

>  <SCORE.INTRA.POLAR>
0.193569

>  <SCORE.INTRA.POLAR.0>
-1.05798

>  <SCORE.INTRA.REPUL>
0

>  <SCORE.INTRA.REPUL.0>
0

>  <SCORE.INTRA.SOLV>
1.39037

>  <SCORE.INTRA.SOLV.lig_0>
-42.5945

>  <SCORE.INTRA.VDW>
1.96561

>  <SCORE.INTRA.VDW.0>
-5.13869

>  <SCORE.INTRA.norm>
0.0305674

>  <SCORE.RESTR>
0

>  <SCORE.RESTR.CAVITY>
0

>  <SCORE.RESTR.norm>
0

>  <SCORE.SYSTEM>
0

>  <SCORE.SYSTEM.CONST>
0

>  <SCORE.SYSTEM.DIHEDRAL>
0

>  <SCORE.SYSTEM.SOLV>
0

>  <SCORE.SYSTEM.norm>
0

>  <SCORE.heavy>
31

>  <SCORE.norm>
-1.33704

>  <RMSD>
6.427

$$$$
lig.pdb
 OpenBabel11021811453D
libRbt.so/2013.1/901 2013/11/27
 31 33  0  0  0  0  0  0  0  0999 V2000
    5.0160    2.2153    1.1702 O   0  0  0  0  0  0  0  0  0  0  0  0
    4.1876    2.8295    2.1380 C   0  0  0  0  0  0  0  0  0  0  0  0
    2.8925    3.3630    1.5108 C   0  0  1  0  0  0  0  0  0  0  0  0
    2.0477    2.3118    1.0702 O   0  0  0  0  0  0  0  0  0  0  0  0
    0.6939    2.7543    1.0693 C   0  0  1  0  0  0  0  0  0  0  0  0
   -0.1311    1.7851    1.7050 O   0  0  0  0  0  0  0  0  0  0  0  0
   -0.3155    0.5502    1.0313 C   0  0  2  0  0  0  0  0  0  0  0  0
   -1.6044    0.6584    0.2011 C   0  0  1  0  0  0  0  0  0  0  0  0
   -1.4057    1.5621   -0.8747 O   0  0  0  0  0  0  0  0  0  0  0  0
   -2.0747   -0.6739   -0.4021 C   0  0  2  0  0  0  0  0  0  0  0  0
   -3.3602   -0.5137   -1.0990 N   0  0  0  0  0  0  0  0  0  0  0  0
   -2.2223   -1.7144    0.7019 C   0  0  0  0  0  0  0  0  0  0  0  0
   -0.9049   -1.8541    1.4548 C   0  0  2  0  0  0  0  0  0  0  0  0
   -1.0597   -2.8986    2.4730 N   0  0  0  0  0  0  0  0  0  0  0  0
   -0.4961   -0.5020    2.0780 C   0  0  1  0  0  0  0  0  0  0  0  0
    0.7370   -0.7552    2.7686 O   0  0  0  0  0  0  0  0  0  0  0  0
    1.2527    0.2931    3.5821 C   0  0  1  0  0  0  0  0  0  0  0  0
    0.5590    0.3528    4.8255 O   0  0  0  0  0  0  0  0  0  0  0  0
    0.7764   -0.7350    5.7215 C   0  0  2  0  0  0  0  0  0  0  0  0
   -0.0434   -0.4995    6.9971 C   0  0  0  0  0  0  0  0  0  0  0  0
   -0.7536   -1.7015    7.4102 N   0  0  0  0  0  0  0  0  0  0  0  0
    2.2694   -0.8625    6.0767 C   0  0  1  0  0  0  0  0  0  0  0  0
    2.4673   -1.9836    6.9196 O   0  0  0  0  0  0  0  0  0  0  0  0
    3.0715   -1.0356    4.7809 C   0  0  2  0  0  0  0  0  0  0  0  0
    4.4573   -1.0679    5.0669 O   0  0  0  0  0  0  0  0  0  0  0  0
    2.7581    0.0970    3.7940 C   0  0  1  0  0  0  0  0  0  0  0  0
    3.4333   -0.1491    2.5118 N   0  0  0  0  0  0  0  0  0  0  0  0
    0.6541    4.0655    1.8676 C   0  0  2  0  0  0  0  0  0  0  0  0
    0.4266    5.1541    0.9919 O   0  0  0  0  0  0  0  0  0  0  0  0
    2.0308    4.1026    2.5292 C   0  0  2  0  0  0  0  0  0  0  0  0
    2.4872    5.4089    2.8194 O   0  0  0  0  0  0  0  0  0  0  0  0
  2  1  1  0  0  0  0
  3  2  1  1  0  0  0
  3 30  1  0  0  0  0
  4  5  1  0  0  0  0
  4  3  1  0  0  0  0
  5 28  1  0  0  0  0
  5  6  1  1  0  0  0
  7  6  1  1  0  0  0
  8  7  1  0  0  0  0
  8  9  1  6  0  0  0
 10 11  1  1  0  0  0
 10  8  1  0  0  0  0
 12 10  1  0  0  0  0
 13 12  1  0  0  0  0
 13 15  1  0  0  0  0
 13 14  1  1  0  0  0
 15  7  1  0  0  0  0
 15 16  1  6  0  0  0
 17 16  1  6  0  0  0
 18 17  1  0  0  0  0
 19 20  1  1  0  0  0
 19 18  1  0  0  0  0
 20 21  1  0  0  0  0
 22 24  1  0  0  0  0
 22 19  1  0  0  0  0
 22 23  1  1  0  0  0
 24 25  1  1  0  0  0
 24 26  1  0  0  0  0
 26 17  1  0  0  0  0
 26 27  1  6  0  0  0
 28 29  1  6  0  0  0
 28 30  1  0  0  0  0
 30 31  1  6  0  0  0
M  END
>  <CHROM.1>
55.96924001,68.15743142,-68.90288579,-93.93594156,61.38362007,172.46544208
-63.38788244,66.99582987,78.44136512,134.30082999,-37.29967991,-61.14515637
-57.45131830,160.00834970,-60.10138494,175.66667518,0.91682619,0.66138643
2.68053574,-1.91126466,0.65067314,2.34874925

>  <Name>
lig.pdb

>  <RI>
1.79691e+07

>  <Rbt.Current_Directory>
/home/itssahil/PROJECTS/Mol_Feturizer/New_Systems/rnas/2n0j

>  <Rbt.Executable>
rbdock ($Id: //depot/dev/client3/rdock/2013.1/src/exe/rbdock.cxx#4 $)

>  <Rbt.Library>
libRbt.so (2013.1, Build901 2013/11/27)

>  <Rbt.Parameter_File>
/export/apps/rDock/src/rDock_2013.1_src/data/scripts/dock_solv.prm

>  <Rbt.Receptor>
prm/blind_docking_20.prm

>  <SCORE>
-45.6037

>  <SCORE.INTER>
-41.1995

>  <SCORE.INTER.CONST>
1

>  <SCORE.INTER.POLAR>
-4.4887

>  <SCORE.INTER.ROT>
6

>  <SCORE.INTER.SOLV>
25.4995

>  <SCORE.INTER.VDW>
-28.6038

>  <SCORE.INTER.norm>
-1.32902

>  <SCORE.INTRA>
-4.59016

>  <SCORE.INTRA.DIHEDRAL>
-13.9247

>  <SCORE.INTRA.DIHEDRAL.0>
28.0161

>  <SCORE.INTRA.POLAR>
0.295244

>  <SCORE.INTRA.POLAR.0>
-1.05798

>  <SCORE.INTRA.REPUL>
0

>  <SCORE.INTRA.REPUL.0>
0

>  <SCORE.INTRA.SOLV>
0.587063

>  <SCORE.INTRA.SOLV.lig_0>
-42.5945

>  <SCORE.INTRA.VDW>
1.07484

>  <SCORE.INTRA.VDW.0>
-5.13869

>  <SCORE.INTRA.norm>
-0.14807

>  <SCORE.RESTR>
0.185984

>  <SCORE.RESTR.CAVITY>
0.185984

>  <SCORE.RESTR.norm>
0.00599948

>  <SCORE.SYSTEM>
0

>  <SCORE.SYSTEM.CONST>
0

>  <SCORE.SYSTEM.DIHEDRAL>
0

>  <SCORE.SYSTEM.SOLV>
0

>  <SCORE.SYSTEM.norm>
0

>  <SCORE.heavy>
31

>  <SCORE.norm>
-1.47109

>  <RMSD>
6.428

$$$$
lig.pdb
 OpenBabel11021811453D
libRbt.so/2013.1/901 2013/11/27
 31 33  0  0  0  0  0  0  0  0999 V2000
    5.2893    2.9357    1.2897 O   0  0  0  0  0  0  0  0  0  0  0  0
    4.1791    2.7526    2.1464 C   0  0  0  0  0  0  0  0  0  0  0  0
    2.8958    3.3287    1.5329 C   0  0  1  0  0  0  0  0  0  0  0  0
    2.0245    2.3064    1.0759 O   0  0  0  0  0  0  0  0  0  0  0  0
    0.6818    2.7817    1.0871 C   0  0  1  0  0  0  0  0  0  0  0  0
   -0.1649    1.8216    1.7077 O   0  0  0  0  0  0  0  0  0  0  0  0
   -0.3549    0.5909    1.0280 C   0  0  2  0  0  0  0  0  0  0  0  0
   -1.6852    0.6795    0.2634 C   0  0  1  0  0  0  0  0  0  0  0  0
   -1.5598    1.6001   -0.8091 O   0  0  0  0  0  0  0  0  0  0  0  0
   -2.1550   -0.6560   -0.3331 C   0  0  2  0  0  0  0  0  0  0  0  0
   -3.4766   -0.5168   -0.9641 N   0  0  0  0  0  0  0  0  0  0  0  0
   -2.2251   -1.7124    0.7632 C   0  0  0  0  0  0  0  0  0  0  0  0
   -0.8694   -1.8311    1.4488 C   0  0  2  0  0  0  0  0  0  0  0  0
   -0.9507   -2.8908    2.4598 N   0  0  0  0  0  0  0  0  0  0  0  0
   -0.4603   -0.4775    2.0686 C   0  0  1  0  0  0  0  0  0  0  0  0
    0.8106   -0.7107    2.6947 O   0  0  0  0  0  0  0  0  0  0  0  0
    1.2953    0.2974    3.5752 C   0  0  1  0  0  0  0  0  0  0  0  0
    0.5618    0.2936    4.7969 O   0  0  0  0  0  0  0  0  0  0  0  0
    0.7548   -0.8366    5.6447 C   0  0  2  0  0  0  0  0  0  0  0  0
   -0.1065   -0.6668    6.9032 C   0  0  0  0  0  0  0  0  0  0  0  0
   -0.7892   -1.9025    7.2591 N   0  0  0  0  0  0  0  0  0  0  0  0
    2.2362   -0.9776    6.0413 C   0  0  1  0  0  0  0  0  0  0  0  0
    2.4117   -2.1385    6.8337 O   0  0  0  0  0  0  0  0  0  0  0  0
    3.0803   -1.0842    4.7651 C   0  0  2  0  0  0  0  0  0  0  0  0
    4.4563   -1.1270    5.0938 O   0  0  0  0  0  0  0  0  0  0  0  0
    2.7940    0.0950    3.8258 C   0  0  1  0  0  0  0  0  0  0  0  0
    3.5112   -0.0855    2.5555 N   0  0  0  0  0  0  0  0  0  0  0  0
    0.6761    4.0789    1.9090 C   0  0  2  0  0  0  0  0  0  0  0  0
    0.4729    5.1883    1.0538 O   0  0  0  0  0  0  0  0  0  0  0  0
    2.0550    4.0705    2.5670 C   0  0  2  0  0  0  0  0  0  0  0  0
    2.5439    5.3599    2.8793 O   0  0  0  0  0  0  0  0  0  0  0  0
  2  1  1  0  0  0  0
  3  2  1  1  0  0  0
  3 30  1  0  0  0  0
  4  5  1  0  0  0  0
  4  3  1  0  0  0  0
  5 28  1  0  0  0  0
  5  6  1  1  0  0  0
  7  6  1  1  0  0  0
  8  7  1  0  0  0  0
  8  9  1  6  0  0  0
 10 11  1  1  0  0  0
 10  8  1  0  0  0  0
 12 10  1  0  0  0  0
 13 12  1  0  0  0  0
 13 15  1  0  0  0  0
 13 14  1  1  0  0  0
 15  7  1  0  0  0  0
 15 16  1  6  0  0  0
 17 16  1  6  0  0  0
 18 17  1  0  0  0  0
 19 20  1  1  0  0  0
 19 18  1  0  0  0  0
 20 21  1  0  0  0  0
 22 24  1  0  0  0  0
 22 19  1  0  0  0  0
 22 23  1  1  0  0  0
 24 25  1  1  0  0  0
 24 26  1  0  0  0  0
 26 17  1  0  0  0  0
 26 27  1  6  0  0  0
 28 29  1  6  0  0  0
 28 30  1  0  0  0  0
 30 31  1  6  0  0  0
M  END
>  <CHROM.1>
-172.84473231,106.42818624,-67.39912881,-98.16593193,60.41654978,-54.43819316
-61.71273377,71.59755800,73.06894765,136.23347581,-149.43000326,-61.97193720
-178.22211023,37.60264138,-168.91500228,-57.00018406,0.92512393,0.66094245
2.69126778,-1.80543348,0.62264421,2.37727989

>  <Name>
lig.pdb

>  <RI>
1.55206e+07

>  <Rbt.Current_Directory>
/home/itssahil/PROJECTS/Mol_Feturizer/New_Systems/rnas/2n0j

>  <Rbt.Executable>
rbdock ($Id: //depot/dev/client3/rdock/2013.1/src/exe/rbdock.cxx#4 $)

>  <Rbt.Library>
libRbt.so (2013.1, Build901 2013/11/27)

>  <Rbt.Parameter_File>
/export/apps/rDock/src/rDock_2013.1_src/data/scripts/dock_solv.prm

>  <Rbt.Receptor>
prm/blind_docking_80.prm

>  <SCORE>
-46.307

>  <SCORE.INTER>
-44.7521

>  <SCORE.INTER.CONST>
1

>  <SCORE.INTER.POLAR>
-5.27448

>  <SCORE.INTER.ROT>
6

>  <SCORE.INTER.SOLV>
25.9568

>  <SCORE.INTER.VDW>
-28.5054

>  <SCORE.INTER.norm>
-1.44362

>  <SCORE.INTRA>
-1.90333

>  <SCORE.INTRA.DIHEDRAL>
-7.95539

>  <SCORE.INTRA.DIHEDRAL.0>
28.0161

>  <SCORE.INTRA.POLAR>
0.282119

>  <SCORE.INTRA.POLAR.0>
-1.05798

>  <SCORE.INTRA.REPUL>
0

>  <SCORE.INTRA.REPUL.0>
0

>  <SCORE.INTRA.SOLV>
0.0431032

>  <SCORE.INTRA.SOLV.lig_0>
-42.5945

>  <SCORE.INTRA.VDW>
1.09361

>  <SCORE.INTRA.VDW.0>
-5.13869

>  <SCORE.INTRA.norm>
-0.0613978

>  <SCORE.RESTR>
0.348432

>  <SCORE.RESTR.CAVITY>
0.348432

>  <SCORE.RESTR.norm>
0.0112397

>  <SCORE.SYSTEM>
0

>  <SCORE.SYSTEM.CONST>
0

>  <SCORE.SYSTEM.DIHEDRAL>
0

>  <SCORE.SYSTEM.SOLV>
0

>  <SCORE.SYSTEM.norm>
0

>  <SCORE.heavy>
31

>  <SCORE.norm>
-1.49377

>  <RMSD>
6.431

$$$$
lig.pdb
 OpenBabel11021811453D
libRbt.so/2013.1/901 2013/11/27
 31 33  0  0  0  0  0  0  0  0999 V2000
    4.9535    2.5054    1.1219 O   0  0  0  0  0  0  0  0  0  0  0  0
    4.1175    3.0516    2.1234 C   0  0  0  0  0  0  0  0  0  0  0  0
    2.7957    3.5621    1.5339 C   0  0  1  0  0  0  0  0  0  0  0  0
    1.9674    2.4970    1.0954 O   0  0  0  0  0  0  0  0  0  0  0  0
    0.6033    2.9053    1.1318 C   0  0  1  0  0  0  0  0  0  0  0  0
   -0.1828    1.9060    1.7701 O   0  0  0  0  0  0  0  0  0  0  0  0
   -0.3851    0.6925    1.0635 C   0  0  2  0  0  0  0  0  0  0  0  0
   -1.7680    0.7646    0.3968 C   0  0  1  0  0  0  0  0  0  0  0  0
   -1.7449    1.7226   -0.6497 O   0  0  0  0  0  0  0  0  0  0  0  0
   -2.2404   -0.5649   -0.2111 C   0  0  2  0  0  0  0  0  0  0  0  0
   -3.6066   -0.4464   -0.7434 N   0  0  0  0  0  0  0  0  0  0  0  0
   -2.2027   -1.6578    0.8507 C   0  0  0  0  0  0  0  0  0  0  0  0
   -0.7992   -1.7565    1.4358 C   0  0  2  0  0  0  0  0  0  0  0  0
   -0.7786   -2.8501    2.4131 N   0  0  0  0  0  0  0  0  0  0  0  0
   -0.3862   -0.4115    2.0717 C   0  0  1  0  0  0  0  0  0  0  0  0
    0.9318   -0.6254    2.5994 O   0  0  0  0  0  0  0  0  0  0  0  0
    1.4013    0.3042    3.5700 C   0  0  1  0  0  0  0  0  0  0  0  0
    0.5497    0.3123    4.7125 O   0  0  0  0  0  0  0  0  0  0  0  0
    0.5678   -0.8625    5.5206 C   0  0  2  0  0  0  0  0  0  0  0  0
   -0.4010   -0.6727    6.6953 C   0  0  0  0  0  0  0  0  0  0  0  0
   -0.7783   -1.9455    7.2930 N   0  0  0  0  0  0  0  0  0  0  0  0
    1.9860   -1.1395    6.0531 C   0  0  1  0  0  0  0  0  0  0  0  0
    1.9899   -2.3413    6.8030 O   0  0  0  0  0  0  0  0  0  0  0  0
    2.9443   -1.2644    4.8621 C   0  0  2  0  0  0  0  0  0  0  0  0
    4.2724   -1.4323    5.3215 O   0  0  0  0  0  0  0  0  0  0  0  0
    2.8467   -0.0296    3.9561 C   0  0  1  0  0  0  0  0  0  0  0  0
    3.6728   -0.2179    2.7550 N   0  0  0  0  0  0  0  0  0  0  0  0
    0.5493    4.2026    1.9518 C   0  0  2  0  0  0  0  0  0  0  0  0
    0.2750    5.2986    1.0991 O   0  0  0  0  0  0  0  0  0  0  0  0
    1.9393    4.2639    2.5831 C   0  0  2  0  0  0  0  0  0  0  0  0
    2.3697    5.5766    2.8840 O   0  0  0  0  0  0  0  0  0  0  0  0
  2  1  1  0  0  0  0
  3  2  1  1  0  0  0
  3 30  1  0  0  0  0
  4  5  1  0  0  0  0
  4  3  1  0  0  0  0
  5 28  1  0  0  0  0
  5  6  1  1  0  0  0
  7  6  1  1  0  0  0
  8  7  1  0  0  0  0
  8  9  1  6  0  0  0
 10 11  1  1  0  0  0
 10  8  1  0  0  0  0
 12 10  1  0  0  0  0
 13 12  1  0  0  0  0
 13 15  1  0  0  0  0
 13 14  1  1  0  0  0
 15  7  1  0  0  0  0
 15 16  1  6  0  0  0
 17 16  1  6  0  0  0
 18 17  1  0  0  0  0
 19 20  1  1  0  0  0
 19 18  1  0  0  0  0
 20 21  1  0  0  0  0
 22 24  1  0  0  0  0
 22 19  1  0  0  0  0
 22 23  1  6  0  0  0
 24 25  1  1  0  0  0
 24 26  1  0  0  0  0
 26 17  1  0  0  0  0
 26 27  1  6  0  0  0
 28 29  1  6  0  0  0
 28 30  1  0  0  0  0
 30 31  1  6  0  0  0
M  END
>  <CHROM.1>
-167.36510676,69.70829764,-70.73607172,-98.87925096,66.57605996,-53.07717623
59.28665519,77.09543748,60.03460053,160.73339971,65.28773532,-172.19127181
-174.31619505,28.93566401,59.16700990,178.49329773,0.84129868,0.67992056
2.71997056,-1.71800572,0.60946243,2.43299631

>  <Name>
lig.pdb

>  <RI>
1.79691e+07

>  <Rbt.Current_Directory>
/home/itssahil/PROJECTS/Mol_Feturizer/New_Systems/rnas/2n0j

>  <Rbt.Executable>
rbdock ($Id: //depot/dev/client3/rdock/2013.1/src/exe/rbdock.cxx#4 $)

>  <Rbt.Library>
libRbt.so (2013.1, Build901 2013/11/27)

>  <Rbt.Parameter_File>
/export/apps/rDock/src/rDock_2013.1_src/data/scripts/dock_solv.prm

>  <Rbt.Receptor>
prm/blind_docking_20.prm

>  <SCORE>
-45.325

>  <SCORE.INTER>
-40.0612

>  <SCORE.INTER.CONST>
1

>  <SCORE.INTER.POLAR>
-4.94851

>  <SCORE.INTER.ROT>
6

>  <SCORE.INTER.SOLV>
25.4708

>  <SCORE.INTER.VDW>
-26.3027

>  <SCORE.INTER.norm>
-1.2923

>  <SCORE.INTRA>
-5.45304

>  <SCORE.INTRA.DIHEDRAL>
-15.4468

>  <SCORE.INTRA.DIHEDRAL.0>
28.0161

>  <SCORE.INTRA.POLAR>
0.602816

>  <SCORE.INTRA.POLAR.0>
-1.05798

>  <SCORE.INTRA.REPUL>
0

>  <SCORE.INTRA.REPUL.0>
0

>  <SCORE.INTRA.SOLV>
0.407218

>  <SCORE.INTRA.SOLV.lig_0>
-42.5945

>  <SCORE.INTRA.VDW>
0.0171932

>  <SCORE.INTRA.VDW.0>
-5.13869

>  <SCORE.INTRA.norm>
-0.175905

>  <SCORE.RESTR>
0.189296

>  <SCORE.RESTR.CAVITY>
0.189296

>  <SCORE.RESTR.norm>
0.00610632

>  <SCORE.SYSTEM>
0

>  <SCORE.SYSTEM.CONST>
0

>  <SCORE.SYSTEM.DIHEDRAL>
0

>  <SCORE.SYSTEM.SOLV>
0

>  <SCORE.SYSTEM.norm>
0

>  <SCORE.heavy>
31

>  <SCORE.norm>
-1.4621

>  <RMSD>
6.439

$$$$
lig.pdb
 OpenBabel11021811453D
libRbt.so/2013.1/901 2013/11/27
 31 33  0  0  0  0  0  0  0  0999 V2000
    5.1696    3.3892    1.7406 O   0  0  0  0  0  0  0  0  0  0  0  0
    4.0970    2.4753    1.8609 C   0  0  0  0  0  0  0  0  0  0  0  0
    2.7772    3.0924    1.3789 C   0  0  1  0  0  0  0  0  0  0  0  0
    1.8523    2.1006    0.9619 O   0  0  0  0  0  0  0  0  0  0  0  0
    0.5240    2.5951    1.1036 C   0  0  1  0  0  0  0  0  0  0  0  0
   -0.2845    1.6258    1.7597 O   0  0  0  0  0  0  0  0  0  0  0  0
   -0.4835    0.3900    1.0919 C   0  0  2  0  0  0  0  0  0  0  0  0
   -1.7600    0.5162    0.2453 C   0  0  1  0  0  0  0  0  0  0  0  0
   -1.5316    1.4087   -0.8339 O   0  0  0  0  0  0  0  0  0  0  0  0
   -2.2474   -0.8114   -0.3549 C   0  0  2  0  0  0  0  0  0  0  0  0
   -3.5212   -0.6323   -1.0685 N   0  0  0  0  0  0  0  0  0  0  0  0
   -2.4276   -1.8414    0.7540 C   0  0  0  0  0  0  0  0  0  0  0  0
   -1.1222   -2.0003    1.5238 C   0  0  2  0  0  0  0  0  0  0  0  0
   -1.3086   -3.0348    2.5469 N   0  0  0  0  0  0  0  0  0  0  0  0
   -0.6960   -0.6517    2.1431 C   0  0  1  0  0  0  0  0  0  0  0  0
    0.5237   -0.9228    2.8504 O   0  0  0  0  0  0  0  0  0  0  0  0
    1.0382    0.1144    3.6788 C   0  0  1  0  0  0  0  0  0  0  0  0
    0.3730    0.1287    4.9389 O   0  0  0  0  0  0  0  0  0  0  0  0
    0.6322   -0.9770    5.8012 C   0  0  2  0  0  0  0  0  0  0  0  0
   -0.1617   -0.7904    7.1010 C   0  0  0  0  0  0  0  0  0  0  0  0
   -0.8762   -2.0028    7.4743 N   0  0  0  0  0  0  0  0  0  0  0  0
    2.1354   -1.0841    6.1185 C   0  0  1  0  0  0  0  0  0  0  0  0
    2.3745   -2.2222    6.9272 O   0  0  0  0  0  0  0  0  0  0  0  0
    2.9099   -1.2083    4.8005 C   0  0  2  0  0  0  0  0  0  0  0  0
    4.3023   -1.2205    5.0535 O   0  0  0  0  0  0  0  0  0  0  0  0
    2.5517   -0.0573    3.8507 C   0  0  1  0  0  0  0  0  0  0  0  0
    3.2011   -0.2573    2.5474 N   0  0  0  0  0  0  0  0  0  0  0  0
    0.6108    3.8614    1.9679 C   0  0  2  0  0  0  0  0  0  0  0  0
    0.3563    5.0042    1.1724 O   0  0  0  0  0  0  0  0  0  0  0  0
    2.0398    3.8085    2.5060 C   0  0  2  0  0  0  0  0  0  0  0  0
    2.5763    5.0783    2.8207 O   0  0  0  0  0  0  0  0  0  0  0  0
  2  1  1  0  0  0  0
  3  2  1  1  0  0  0
  3 30  1  0  0  0  0
  4  5  1  0  0  0  0
  4  3  1  0  0  0  0
  5 28  1  0  0  0  0
  5  6  1  1  0  0  0
  7  6  1  1  0  0  0
  8  7  1  0  0  0  0
  8  9  1  6  0  0  0
 10 11  1  1  0  0  0
 10  8  1  0  0  0  0
 12 10  1  0  0  0  0
 13 12  1  0  0  0  0
 13 15  1  0  0  0  0
 13 14  1  1  0  0  0
 15  7  1  0  0  0  0
 15 16  1  6  0  0  0
 17 16  1  6  0  0  0
 18 17  1  0  0  0  0
 19 20  1  1  0  0  0
 19 18  1  0  0  0  0
 20 21  1  0  0  0  0
 22 24  1  0  0  0  0
 22 19  1  0  0  0  0
 22 23  1  1  0  0  0
 24 25  1  1  0  0  0
 24 26  1  0  0  0  0
 26 17  1  0  0  0  0
 26 27  1  6  0  0  0
 28 29  1  6  0  0  0
 28 30  1  0  0  0  0
 30 31  1  6  0  0  0
M  END
>  <CHROM.1>
178.19673674,155.33156170,-63.52631889,-91.57051732,-176.66294169,68.92004840
-175.78633729,67.89567931,81.44138794,132.31528854,-146.07751954,164.17946904
75.19649080,41.89355375,54.58595299,174.12584231,0.78052956,0.51129276,2.73531921
-1.81691404,0.63400440,2.34491150

>  <Name>
lig.pdb

>  <RI>
0

>  <Rbt.Current_Directory>
/home/itssahil/PROJECTS/Mol_Feturizer/New_Systems/rnas/2n0j

>  <Rbt.Executable>
rbdock ($Id: //depot/dev/client3/rdock/2013.1/src/exe/rbdock.cxx#4 $)

>  <Rbt.Library>
libRbt.so (2013.1, Build901 2013/11/27)

>  <Rbt.Parameter_File>
/export/apps/rDock/src/rDock_2013.1_src/data/scripts/dock_solv.prm

>  <Rbt.Receptor>
prm/blind_docking_60.prm

>  <SCORE>
-46.9439

>  <SCORE.INTER>
-45.4199

>  <SCORE.INTER.CONST>
1

>  <SCORE.INTER.POLAR>
-5.30591

>  <SCORE.INTER.ROT>
6

>  <SCORE.INTER.SOLV>
24.8303

>  <SCORE.INTER.VDW>
-28.4703

>  <SCORE.INTER.norm>
-1.46516

>  <SCORE.INTRA>
-2.11597

>  <SCORE.INTRA.DIHEDRAL>
-8.98337

>  <SCORE.INTRA.DIHEDRAL.0>
28.0161

>  <SCORE.INTRA.POLAR>
0.103472

>  <SCORE.INTRA.POLAR.0>
-1.05798

>  <SCORE.INTRA.REPUL>
0

>  <SCORE.INTRA.REPUL.0>
0

>  <SCORE.INTRA.SOLV>
0.326145

>  <SCORE.INTRA.SOLV.lig_0>
-42.5945

>  <SCORE.INTRA.VDW>
1.86083

>  <SCORE.INTRA.VDW.0>
-5.13869

>  <SCORE.INTRA.norm>
-0.0682572

>  <SCORE.RESTR>
0.591982

>  <SCORE.RESTR.CAVITY>
0.591982

>  <SCORE.RESTR.norm>
0.0190962

>  <SCORE.SYSTEM>
0

>  <SCORE.SYSTEM.CONST>
0

>  <SCORE.SYSTEM.DIHEDRAL>
0

>  <SCORE.SYSTEM.SOLV>
0

>  <SCORE.SYSTEM.norm>
0

>  <SCORE.heavy>
31

>  <SCORE.norm>
-1.51432

>  <RMSD>
6.453

$$$$
lig.pdb
 OpenBabel11021811453D
libRbt.so/2013.1/901 2013/11/27
 31 33  0  0  0  0  0  0  0  0999 V2000
    4.3380    3.1864    0.4070 O   0  0  0  0  0  0  0  0  0  0  0  0
    3.7142    3.4292    1.6528 C   0  0  0  0  0  0  0  0  0  0  0  0
    2.2233    3.7496    1.4807 C   0  0  1  0  0  0  0  0  0  0  0  0
    1.4743    2.5990    1.1227 O   0  0  0  0  0  0  0  0  0  0  0  0
    0.1241    2.7553    1.5483 C   0  0  1  0  0  0  0  0  0  0  0  0
   -0.3087    1.5795    2.2223 O   0  0  0  0  0  0  0  0  0  0  0  0
   -0.4695    0.4071    1.4398 C   0  0  2  0  0  0  0  0  0  0  0  0
   -1.7273    0.5904    0.5758 C   0  0  1  0  0  0  0  0  0  0  0  0
   -1.4889    1.5814   -0.4114 O   0  0  0  0  0  0  0  0  0  0  0  0
   -2.1763   -0.6841   -0.1551 C   0  0  2  0  0  0  0  0  0  0  0  0
   -3.4356   -0.4602   -0.8819 N   0  0  0  0  0  0  0  0  0  0  0  0
   -2.3648   -1.8140    0.8503 C   0  0  0  0  0  0  0  0  0  0  0  0
   -1.0757   -2.0223    1.6356 C   0  0  2  0  0  0  0  0  0  0  0  0
   -1.2682   -3.1489    2.5551 N   0  0  0  0  0  0  0  0  0  0  0  0
   -0.6887   -0.7296    2.3860 C   0  0  1  0  0  0  0  0  0  0  0  0
    0.5182   -1.0454    3.0967 O   0  0  0  0  0  0  0  0  0  0  0  0
    1.0288   -0.0541    3.9817 C   0  0  1  0  0  0  0  0  0  0  0  0
   -0.0020    0.4397    4.8327 O   0  0  0  0  0  0  0  0  0  0  0  0
   -0.5064   -0.4719    5.8064 C   0  0  2  0  0  0  0  0  0  0  0  0
   -1.5987    0.2293    6.6249 C   0  0  0  0  0  0  0  0  0  0  0  0
   -2.2186   -0.6757    7.5822 N   0  0  0  0  0  0  0  0  0  0  0  0
    0.6187   -0.9529    6.7415 C   0  0  1  0  0  0  0  0  0  0  0  0
    0.1054   -1.9003    7.6609 O   0  0  0  0  0  0  0  0  0  0  0  0
    1.7241   -1.5944    5.8935 C   0  0  2  0  0  0  0  0  0  0  0  0
    2.8134   -1.9684    6.7161 O   0  0  0  0  0  0  0  0  0  0  0  0
    2.1931   -0.6305    4.7953 C   0  0  1  0  0  0  0  0  0  0  0  0
    3.1586   -1.3013    3.9131 N   0  0  0  0  0  0  0  0  0  0  0  0
    0.0992    3.9433    2.5210 C   0  0  2  0  0  0  0  0  0  0  0  0
   -0.5495    5.0461    1.9155 O   0  0  0  0  0  0  0  0  0  0  0  0
    1.5821    4.1918    2.7923 C   0  0  2  0  0  0  0  0  0  0  0  0
    1.8789    5.5273    3.1492 O   0  0  0  0  0  0  0  0  0  0  0  0
  2  1  1  0  0  0  0
  3  2  1  1  0  0  0
  3 30  1  0  0  0  0
  4  5  1  0  0  0  0
  4  3  1  0  0  0  0
  5 28  1  0  0  0  0
  5  6  1  1  0  0  0
  7  6  1  1  0  0  0
  8  7  1  0  0  0  0
  8  9  1  6  0  0  0
 10 11  1  1  0  0  0
 10  8  1  0  0  0  0
 12 10  1  0  0  0  0
 13 12  1  0  0  0  0
 13 15  1  0  0  0  0
 13 14  1  1  0  0  0
 15  7  1  0  0  0  0
 15 16  1  6  0  0  0
 17 16  1  6  0  0  0
 18 17  1  0  0  0  0
 19 20  1  1  0  0  0
 19 18  1  0  0  0  0
 20 21  1  0  0  0  0
 22 24  1  0  0  0  0
 22 19  1  0  0  0  0
 22 23  1  1  0  0  0
 24 25  1  1  0  0  0
 24 26  1  0  0  0  0
 26 17  1  0  0  0  0
 26 27  1  6  0  0  0
 28 29  1  6  0  0  0
 28 30  1  0  0  0  0
 30 31  1  6  0  0  0
M  END
>  <CHROM.1>
-178.46813233,72.16126601,-68.79300294,-72.51165558,-106.75783235,-61.84788649
64.02449269,64.99060565,48.67497196,176.25273215,41.04688901,68.48850200
65.78672014,81.96933911,178.25532108,63.24614607,0.25552676,0.63750794,3.06096895
-1.41202927,0.77114688,2.24189660

>  <Name>
lig.pdb

>  <RI>
0

>  <Rbt.Current_Directory>
/home/itssahil/PROJECTS/Mol_Feturizer/New_Systems/rnas/2n0j

>  <Rbt.Executable>
rbdock ($Id: //depot/dev/client3/rdock/2013.1/src/exe/rbdock.cxx#4 $)

>  <Rbt.Library>
libRbt.so (2013.1, Build901 2013/11/27)

>  <Rbt.Parameter_File>
/export/apps/rDock/src/rDock_2013.1_src/data/scripts/dock_solv.prm

>  <Rbt.Receptor>
prm/blind_docking_40.prm

>  <SCORE>
-27.7006

>  <SCORE.INTER>
-25.3821

>  <SCORE.INTER.CONST>
1

>  <SCORE.INTER.POLAR>
-5.35097

>  <SCORE.INTER.ROT>
6

>  <SCORE.INTER.SOLV>
23.2331

>  <SCORE.INTER.VDW>
-14.4292

>  <SCORE.INTER.norm>
-0.818779

>  <SCORE.INTRA>
-4.32337

>  <SCORE.INTRA.DIHEDRAL>
-16.4003

>  <SCORE.INTRA.DIHEDRAL.0>
28.0161

>  <SCORE.INTRA.POLAR>
0.320443

>  <SCORE.INTRA.POLAR.0>
-1.05798

>  <SCORE.INTRA.REPUL>
0

>  <SCORE.INTRA.REPUL.0>
0

>  <SCORE.INTRA.SOLV>
-0.0333013

>  <SCORE.INTRA.SOLV.lig_0>
-42.5945

>  <SCORE.INTRA.VDW>
2.80393

>  <SCORE.INTRA.VDW.0>
-5.13869

>  <SCORE.INTRA.norm>
-0.139463

>  <SCORE.RESTR>
2.00493

>  <SCORE.RESTR.CAVITY>
2.00493

>  <SCORE.RESTR.norm>
0.064675

>  <SCORE.SYSTEM>
0

>  <SCORE.SYSTEM.CONST>
0

>  <SCORE.SYSTEM.DIHEDRAL>
0

>  <SCORE.SYSTEM.SOLV>
0

>  <SCORE.SYSTEM.norm>
0

>  <SCORE.heavy>
31

>  <SCORE.norm>
-0.893567

>  <RMSD>
6.456

$$$$
lig.pdb
 OpenBabel11021811453D
libRbt.so/2013.1/901 2013/11/27
 31 33  0  0  0  0  0  0  0  0999 V2000
    5.1118    2.1692    1.2152 O   0  0  0  0  0  0  0  0  0  0  0  0
    4.2906    2.8343    2.1551 C   0  0  0  0  0  0  0  0  0  0  0  0
    3.0180    3.3854    1.4977 C   0  0  1  0  0  0  0  0  0  0  0  0
    2.1584    2.3456    1.0585 O   0  0  0  0  0  0  0  0  0  0  0  0
    0.8146    2.8166    1.0276 C   0  0  1  0  0  0  0  0  0  0  0  0
   -0.0416    1.8752    1.6636 O   0  0  0  0  0  0  0  0  0  0  0  0
   -0.2341    0.6307    1.0100 C   0  0  2  0  0  0  0  0  0  0  0  0
   -1.5775    0.6960    0.2662 C   0  0  1  0  0  0  0  0  0  0  0  0
   -1.4765    1.5972   -0.8250 O   0  0  0  0  0  0  0  0  0  0  0  0
   -2.0474   -0.6536   -0.2976 C   0  0  2  0  0  0  0  0  0  0  0  0
   -3.3803   -0.5353   -0.9089 N   0  0  0  0  0  0  0  0  0  0  0  0
   -2.0917   -1.6899    0.8191 C   0  0  0  0  0  0  0  0  0  0  0  0
   -0.7240   -1.7865    1.4840 C   0  0  2  0  0  0  0  0  0  0  0  0
   -0.7809   -2.8277    2.5157 N   0  0  0  0  0  0  0  0  0  0  0  0
   -0.3145   -0.4188    2.0718 C   0  0  1  0  0  0  0  0  0  0  0  0
    0.9683   -0.6316    2.6807 O   0  0  0  0  0  0  0  0  0  0  0  0
    1.4398    0.3750    3.5700 C   0  0  1  0  0  0  0  0  0  0  0  0
    0.6725    0.3855    4.7708 O   0  0  0  0  0  0  0  0  0  0  0  0
    0.8288   -0.7429    5.6286 C   0  0  2  0  0  0  0  0  0  0  0  0
   -0.0653   -0.5573    6.8618 C   0  0  0  0  0  0  0  0  0  0  0  0
   -0.7258   -1.7986    7.2395 N   0  0  0  0  0  0  0  0  0  0  0  0
    2.2968   -0.8988    6.0670 C   0  0  1  0  0  0  0  0  0  0  0  0
    2.4367   -2.0579    6.8691 O   0  0  0  0  0  0  0  0  0  0  0  0
    3.1749   -1.0211    4.8154 C   0  0  2  0  0  0  0  0  0  0  0  0
    4.5406   -1.0780    5.1826 O   0  0  0  0  0  0  0  0  0  0  0  0
    2.9285    0.1569    3.8632 C   0  0  1  0  0  0  0  0  0  0  0  0
    3.6787   -0.0378    2.6143 N   0  0  0  0  0  0  0  0  0  0  0  0
    0.7895    4.1406    1.8051 C   0  0  2  0  0  0  0  0  0  0  0  0
    0.6002    5.2201    0.9093 O   0  0  0  0  0  0  0  0  0  0  0  0
    2.1552    4.1588    2.4898 C   0  0  2  0  0  0  0  0  0  0  0  0
    2.6346    5.4595    2.7680 O   0  0  0  0  0  0  0  0  0  0  0  0
  2  1  1  0  0  0  0
  3  2  1  1  0  0  0
  3 30  1  0  0  0  0
  4  5  1  0  0  0  0
  4  3  1  0  0  0  0
  5 28  1  0  0  0  0
  5  6  1  1  0  0  0
  7  6  1  1  0  0  0
  8  7  1  0  0  0  0
  8  9  1  6  0  0  0
 10 11  1  1  0  0  0
 10  8  1  0  0  0  0
 12 10  1  0  0  0  0
 13 12  1  0  0  0  0
 13 15  1  0  0  0  0
 13 14  1  1  0  0  0
 15  7  1  0  0  0  0
 15 16  1  6  0  0  0
 17 16  1  6  0  0  0
 18 17  1  0  0  0  0
 19 20  1  1  0  0  0
 19 18  1  0  0  0  0
 20 21  1  0  0  0  0
 22 24  1  0  0  0  0
 22 19  1  0  0  0  0
 22 23  1  1  0  0  0
 24 25  1  1  0  0  0
 24 26  1  0  0  0  0
 26 17  1  0  0  0  0
 26 27  1  6  0  0  0
 28 29  1  6  0  0  0
 28 30  1  0  0  0  0
 30 31  1  6  0  0  0
M  END
>  <CHROM.1>
-171.61330914,67.22168487,-68.49520833,-99.70092322,177.13768176,-50.04821882
-67.39679907,73.68795421,69.91907832,138.78260677,-36.72973825,-64.24003383
-62.92053172,-85.73073593,61.25544925,-179.46040791,1.01544805,0.68895652
2.68424622,-1.87386019,0.62106710,2.37232792

>  <Name>
lig.pdb

>  <RI>
9.20816e+06

>  <Rbt.Current_Directory>
/home/itssahil/PROJECTS/Mol_Feturizer/New_Systems/rnas/2n0j

>  <Rbt.Executable>
rbdock ($Id: //depot/dev/client3/rdock/2013.1/src/exe/rbdock.cxx#4 $)

>  <Rbt.Library>
libRbt.so (2013.1, Build901 2013/11/27)

>  <Rbt.Parameter_File>
/export/apps/rDock/src/rDock_2013.1_src/data/scripts/dock_solv.prm

>  <Rbt.Receptor>
prm/blind_docking_100.prm

>  <SCORE>
-48.9505

>  <SCORE.INTER>
-45.6129

>  <SCORE.INTER.CONST>
1

>  <SCORE.INTER.POLAR>
-5.76647

>  <SCORE.INTER.ROT>
6

>  <SCORE.INTER.SOLV>
26.4116

>  <SCORE.INTER.VDW>
-27.5909

>  <SCORE.INTER.norm>
-1.47138

>  <SCORE.INTRA>
-3.37818

>  <SCORE.INTRA.DIHEDRAL>
-12.8307

>  <SCORE.INTRA.DIHEDRAL.0>
28.0161

>  <SCORE.INTRA.POLAR>
0.450921

>  <SCORE.INTRA.POLAR.0>
-1.05798

>  <SCORE.INTRA.REPUL>
0

>  <SCORE.INTRA.REPUL.0>
0

>  <SCORE.INTRA.SOLV>
0.659537

>  <SCORE.INTRA.SOLV.lig_0>
-42.5945

>  <SCORE.INTRA.VDW>
1.17425

>  <SCORE.INTRA.VDW.0>
-5.13869

>  <SCORE.INTRA.norm>
-0.108974

>  <SCORE.RESTR>
0.0405578

>  <SCORE.RESTR.CAVITY>
0.0405578

>  <SCORE.RESTR.norm>
0.00130832

>  <SCORE.SYSTEM>
0

>  <SCORE.SYSTEM.CONST>
0

>  <SCORE.SYSTEM.DIHEDRAL>
0

>  <SCORE.SYSTEM.SOLV>
0

>  <SCORE.SYSTEM.norm>
0

>  <SCORE.heavy>
31

>  <SCORE.norm>
-1.57905

>  <RMSD>
6.462

$$$$
lig.pdb
 OpenBabel11021811453D
libRbt.so/2013.1/901 2013/11/27
 31 33  0  0  0  0  0  0  0  0999 V2000
    5.0932    3.4277    1.7934 O   0  0  0  0  0  0  0  0  0  0  0  0
    4.1076    2.5036    1.3752 C   0  0  0  0  0  0  0  0  0  0  0  0
    2.7407    3.1802    1.2042 C   0  0  1  0  0  0  0  0  0  0  0  0
    1.7351    2.2512    0.8321 O   0  0  0  0  0  0  0  0  0  0  0  0
    0.4620    2.7281    1.2572 C   0  0  1  0  0  0  0  0  0  0  0  0
   -0.2477    1.6867    1.9173 O   0  0  0  0  0  0  0  0  0  0  0  0
   -0.4593    0.4865    1.1910 C   0  0  2  0  0  0  0  0  0  0  0  0
   -1.7982    0.6193    0.4482 C   0  0  1  0  0  0  0  0  0  0  0  0
   -1.6768    1.5812   -0.5879 O   0  0  0  0  0  0  0  0  0  0  0  0
   -2.2896   -0.6862   -0.1956 C   0  0  2  0  0  0  0  0  0  0  0  0
   -3.6176   -0.5084   -0.8030 N   0  0  0  0  0  0  0  0  0  0  0  0
   -2.3568   -1.7855    0.8581 C   0  0  0  0  0  0  0  0  0  0  0  0
   -0.9938   -1.9453    1.5204 C   0  0  2  0  0  0  0  0  0  0  0  0
   -1.0733   -3.0442    2.4889 N   0  0  0  0  0  0  0  0  0  0  0  0
   -0.5627   -0.6221    2.1890 C   0  0  1  0  0  0  0  0  0  0  0  0
    0.7136   -0.8931    2.7883 O   0  0  0  0  0  0  0  0  0  0  0  0
    1.2502    0.1034    3.6517 C   0  0  1  0  0  0  0  0  0  0  0  0
    0.5372    0.1377    4.8851 O   0  0  0  0  0  0  0  0  0  0  0  0
    0.7016   -0.9918    5.7399 C   0  0  2  0  0  0  0  0  0  0  0  0
   -0.1321   -0.7789    7.0105 C   0  0  0  0  0  0  0  0  0  0  0  0
   -0.8108   -2.0002    7.4198 N   0  0  0  0  0  0  0  0  0  0  0  0
    2.1829   -1.1850    6.1138 C   0  0  1  0  0  0  0  0  0  0  0  0
    2.3277   -2.3450    6.9139 O   0  0  0  0  0  0  0  0  0  0  0  0
    3.0014   -1.3343    4.8253 C   0  0  2  0  0  0  0  0  0  0  0  0
    4.3800   -1.4260    5.1322 O   0  0  0  0  0  0  0  0  0  0  0  0
    2.7441   -0.1531    3.8800 C   0  0  1  0  0  0  0  0  0  0  0  0
    3.4331   -0.3713    2.6000 N   0  0  0  0  0  0  0  0  0  0  0  0
    0.7238    3.8760    2.2430 C   0  0  2  0  0  0  0  0  0  0  0  0
    0.3667    5.1101    1.6488 O   0  0  0  0  0  0  0  0  0  0  0  0
    2.2213    3.7519    2.5196 C   0  0  2  0  0  0  0  0  0  0  0  0
    2.8337    4.9707    2.8918 O   0  0  0  0  0  0  0  0  0  0  0  0
  2  1  1  0  0  0  0
  3  2  1  1  0  0  0
  3 30  1  0  0  0  0
  4  5  1  0  0  0  0
  4  3  1  0  0  0  0
  5 28  1  0  0  0  0
  5  6  1  1  0  0  0
  7  6  1  1  0  0  0
  8  7  1  0  0  0  0
  8  9  1  6  0  0  0
 10 11  1  1  0  0  0
 10  8  1  0  0  0  0
 12 10  1  0  0  0  0
 13 12  1  0  0  0  0
 13 15  1  0  0  0  0
 13 14  1  1  0  0  0
 15  7  1  0  0  0  0
 15 16  1  6  0  0  0
 17 16  1  6  0  0  0
 18 17  1  0  0  0  0
 19 20  1  1  0  0  0
 19 18  1  0  0  0  0
 20 21  1  0  0  0  0
 22 24  1  0  0  0  0
 22 19  1  0  0  0  0
 22 23  1  1  0  0  0
 24 25  1  1  0  0  0
 24 26  1  0  0  0  0
 26 17  1  0  0  0  0
 26 27  1  6  0  0  0
 28 29  1  6  0  0  0
 28 30  1  0  0  0  0
 30 31  1  6  0  0  0
M  END
>  <CHROM.1>
162.73971019,-177.85177093,-56.87181301,-90.56195141,-75.58647144,61.94158703
-59.82235698,68.61039494,72.59232853,138.60505225,-24.84475503,-50.91409164
-174.28384022,-84.12227349,-175.45719731,-46.05281623,0.84607322,0.52997258
2.78185808,-1.71059781,0.60249030,2.38230818

>  <Name>
lig.pdb

>  <RI>
9.20816e+06

>  <Rbt.Current_Directory>
/home/itssahil/PROJECTS/Mol_Feturizer/New_Systems/rnas/2n0j

>  <Rbt.Executable>
rbdock ($Id: //depot/dev/client3/rdock/2013.1/src/exe/rbdock.cxx#4 $)

>  <Rbt.Library>
libRbt.so (2013.1, Build901 2013/11/27)

>  <Rbt.Parameter_File>
/export/apps/rDock/src/rDock_2013.1_src/data/scripts/dock_solv.prm

>  <Rbt.Receptor>
prm/blind_docking_100.prm

>  <SCORE>
-39.6949

>  <SCORE.INTER>
-38.0391

>  <SCORE.INTER.CONST>
1

>  <SCORE.INTER.POLAR>
-5.16261

>  <SCORE.INTER.ROT>
6

>  <SCORE.INTER.SOLV>
25.1278

>  <SCORE.INTER.VDW>
-24.1266

>  <SCORE.INTER.norm>
-1.22707

>  <SCORE.INTRA>
-2.05696

>  <SCORE.INTRA.DIHEDRAL>
-11.0454

>  <SCORE.INTRA.DIHEDRAL.0>
28.0161

>  <SCORE.INTRA.POLAR>
0.455334

>  <SCORE.INTRA.POLAR.0>
-1.05798

>  <SCORE.INTRA.REPUL>
0

>  <SCORE.INTRA.REPUL.0>
0

>  <SCORE.INTRA.SOLV>
0.334946

>  <SCORE.INTRA.SOLV.lig_0>
-42.5945

>  <SCORE.INTRA.VDW>
1.75011

>  <SCORE.INTRA.VDW.0>
-5.13869

>  <SCORE.INTRA.norm>
-0.0663535

>  <SCORE.RESTR>
0.401143

>  <SCORE.RESTR.CAVITY>
0.401143

>  <SCORE.RESTR.norm>
0.0129401

>  <SCORE.SYSTEM>
0

>  <SCORE.SYSTEM.CONST>
0

>  <SCORE.SYSTEM.DIHEDRAL>
0

>  <SCORE.SYSTEM.SOLV>
0

>  <SCORE.SYSTEM.norm>
0

>  <SCORE.heavy>
31

>  <SCORE.norm>
-1.28048

>  <RMSD>
6.465

$$$$
lig.pdb
 OpenBabel11021811453D
libRbt.so/2013.1/901 2013/11/27
 31 33  0  0  0  0  0  0  0  0999 V2000
   -0.5380   -2.3886    6.1699 O   0  0  0  0  0  0  0  0  0  0  0  0
    0.6432   -1.6138    6.1022 C   0  0  0  0  0  0  0  0  0  0  0  0
    0.9096   -1.1206    4.6736 C   0  0  1  0  0  0  0  0  0  0  0  0
    0.1559    0.0419    4.3676 O   0  0  0  0  0  0  0  0  0  0  0  0
    0.8237    0.7934    3.3587 C   0  0  1  0  0  0  0  0  0  0  0  0
    0.8800    2.1640    3.7355 O   0  0  0  0  0  0  0  0  0  0  0  0
    1.0105    3.1171    2.6927 C   0  0  2  0  0  0  0  0  0  0  0  0
    2.4081    3.7464    2.8066 C   0  0  1  0  0  0  0  0  0  0  0  0
    3.3943    2.7860    2.4625 O   0  0  0  0  0  0  0  0  0  0  0  0
    2.6216    4.9665    1.8977 C   0  0  2  0  0  0  0  0  0  0  0  0
    3.9414    5.5733    2.1297 N   0  0  0  0  0  0  0  0  0  0  0  0
    1.5340    6.0011    2.1621 C   0  0  0  0  0  0  0  0  0  0  0  0
    0.1630    5.3662    1.9642 C   0  0  2  0  0  0  0  0  0  0  0  0
   -0.8607    6.3963    2.1710 N   0  0  0  0  0  0  0  0  0  0  0  0
   -0.0211    4.1736    2.9272 C   0  0  1  0  0  0  0  0  0  0  0  0
   -1.3399    3.6696    2.6659 O   0  0  0  0  0  0  0  0  0  0  0  0
   -1.7895    2.5815    3.4662 C   0  0  1  0  0  0  0  0  0  0  0  0
   -1.6892    2.9005    4.8515 O   0  0  0  0  0  0  0  0  0  0  0  0
   -2.5838    3.9004    5.3345 C   0  0  2  0  0  0  0  0  0  0  0  0
   -2.3340    4.1082    6.8342 C   0  0  0  0  0  0  0  0  0  0  0  0
   -3.0649    5.2581    7.3474 N   0  0  0  0  0  0  0  0  0  0  0  0
   -4.0482    3.4842    5.1020 C   0  0  1  0  0  0  0  0  0  0  0  0
   -4.9146    4.5175    5.5359 O   0  0  0  0  0  0  0  0  0  0  0  0
   -4.2551    3.2240    3.6047 C   0  0  2  0  0  0  0  0  0  0  0  0
   -5.5693    2.7545    3.3693 O   0  0  0  0  0  0  0  0  0  0  0  0
   -3.2268    2.2109    3.0835 C   0  0  1  0  0  0  0  0  0  0  0  0
   -3.3535    2.0671    1.6262 N   0  0  0  0  0  0  0  0  0  0  0  0
    2.2487    0.2305    3.2548 C   0  0  2  0  0  0  0  0  0  0  0  0
    2.3968   -0.4804    2.0398 O   0  0  0  0  0  0  0  0  0  0  0  0
    2.3528   -0.6615    4.4909 C   0  0  2  0  0  0  0  0  0  0  0  0
    3.2746   -1.7242    4.3492 O   0  0  0  0  0  0  0  0  0  0  0  0
  2  1  1  0  0  0  0
  3  2  1  1  0  0  0
  3 30  1  0  0  0  0
  4  5  1  0  0  0  0
  4  3  1  0  0  0  0
  5 28  1  0  0  0  0
  5  6  1  1  0  0  0
  7  6  1  1  0  0  0
  8  7  1  0  0  0  0
  8  9  1  6  0  0  0
 10 11  1  1  0  0  0
 10  8  1  0  0  0  0
 12 10  1  0  0  0  0
 13 12  1  0  0  0  0
 13 15  1  0  0  0  0
 13 14  1  1  0  0  0
 15  7  1  0  0  0  0
 15 16  1  6  0  0  0
 17 16  1  6  0  0  0
 18 17  1  0  0  0  0
 19 20  1  1  0  0  0
 19 18  1  0  0  0  0
 20 21  1  0  0  0  0
 22 24  1  0  0  0  0
 22 19  1  0  0  0  0
 22 23  1  6  0  0  0
 24 25  1  1  0  0  0
 24 26  1  0  0  0  0
 26 17  1  0  0  0  0
 26 27  1  6  0  0  0
 28 29  1  6  0  0  0
 28 30  1  0  0  0  0
 30 31  1  6  0  0  0
M  END
>  <CHROM.1>
61.55519125,81.98820931,-155.78997847,-111.54410367,-174.59014706,-46.91060406
-40.15258650,61.47974241,54.69414090,171.06339533,-175.89748952,74.44051450
-178.71972747,53.93639840,-168.25864536,73.78732604,-0.36430434,2.51049921
3.76211261,0.48342658,-0.33715905,2.80318814

>  <Name>
lig.pdb

>  <RI>
2.74555e+07

>  <Rbt.Current_Directory>
/home/itssahil/PROJECTS/Mol_Feturizer/New_Systems/rnas/2n0j

>  <Rbt.Executable>
rbdock ($Id: //depot/dev/client3/rdock/2013.1/src/exe/rbdock.cxx#4 $)

>  <Rbt.Library>
libRbt.so (2013.1, Build901 2013/11/27)

>  <Rbt.Parameter_File>
/export/apps/rDock/src/rDock_2013.1_src/data/scripts/dock_solv.prm

>  <Rbt.Receptor>
prm/pocket_docking_6.prm

>  <SCORE>
-42.4147

>  <SCORE.INTER>
-43.2347

>  <SCORE.INTER.CONST>
1

>  <SCORE.INTER.POLAR>
-5.92033

>  <SCORE.INTER.ROT>
6

>  <SCORE.INTER.SOLV>
16.6674

>  <SCORE.INTER.VDW>
-22.2445

>  <SCORE.INTER.norm>
-1.39467

>  <SCORE.INTRA>
0.820003

>  <SCORE.INTRA.DIHEDRAL>
-12.1763

>  <SCORE.INTRA.DIHEDRAL.0>
28.0161

>  <SCORE.INTRA.POLAR>
0.594272

>  <SCORE.INTRA.POLAR.0>
-1.05798

>  <SCORE.INTRA.REPUL>
0.197655

>  <SCORE.INTRA.REPUL.0>
0

>  <SCORE.INTRA.SOLV>
0.300514

>  <SCORE.INTRA.SOLV.lig_0>
-42.5945

>  <SCORE.INTRA.VDW>
3.74908

>  <SCORE.INTRA.VDW.0>
-5.13869

>  <SCORE.INTRA.norm>
0.0264517

>  <SCORE.RESTR>
0

>  <SCORE.RESTR.CAVITY>
0

>  <SCORE.RESTR.norm>
0

>  <SCORE.SYSTEM>
0

>  <SCORE.SYSTEM.CONST>
0

>  <SCORE.SYSTEM.DIHEDRAL>
0

>  <SCORE.SYSTEM.SOLV>
0

>  <SCORE.SYSTEM.norm>
0

>  <SCORE.heavy>
31

>  <SCORE.norm>
-1.36822

>  <RMSD>
6.469

$$$$
lig.pdb
 OpenBabel11021811453D
libRbt.so/2013.1/901 2013/11/27
 31 33  0  0  0  0  0  0  0  0999 V2000
    5.1414    2.3905    0.9142 O   0  0  0  0  0  0  0  0  0  0  0  0
    4.2597    2.6722    1.9835 C   0  0  0  0  0  0  0  0  0  0  0  0
    2.9252    3.2357    1.4768 C   0  0  1  0  0  0  0  0  0  0  0  0
    2.0397    2.2060    1.0661 O   0  0  0  0  0  0  0  0  0  0  0  0
    0.6938    2.6568    1.1848 C   0  0  1  0  0  0  0  0  0  0  0  0
   -0.0887    1.6710    1.8480 O   0  0  0  0  0  0  0  0  0  0  0  0
   -0.2763    0.4348    1.1774 C   0  0  2  0  0  0  0  0  0  0  0  0
   -1.5603    0.5471    0.3403 C   0  0  1  0  0  0  0  0  0  0  0  0
   -1.3513    1.4460   -0.7375 O   0  0  0  0  0  0  0  0  0  0  0  0
   -2.0345   -0.7848   -0.2609 C   0  0  2  0  0  0  0  0  0  0  0  0
   -3.3156   -0.6201   -0.9649 N   0  0  0  0  0  0  0  0  0  0  0  0
   -2.1933   -1.8207    0.8457 C   0  0  0  0  0  0  0  0  0  0  0  0
   -0.8805   -1.9650    1.6058 C   0  0  2  0  0  0  0  0  0  0  0  0
   -1.0461   -3.0052    2.6267 N   0  0  0  0  0  0  0  0  0  0  0  0
   -0.4677   -0.6130    2.2266 C   0  0  1  0  0  0  0  0  0  0  0  0
    0.7605   -0.8704    2.9244 O   0  0  0  0  0  0  0  0  0  0  0  0
    1.2447    0.1540    3.7862 C   0  0  1  0  0  0  0  0  0  0  0  0
    0.5332    0.1510    5.0209 O   0  0  0  0  0  0  0  0  0  0  0  0
    0.7594   -0.9674    5.8760 C   0  0  2  0  0  0  0  0  0  0  0  0
   -0.0821   -0.7986    7.1481 C   0  0  0  0  0  0  0  0  0  0  0  0
    0.5267    0.1449    8.0750 N   0  0  0  0  0  0  0  0  0  0  0  0
    2.2496   -1.0809    6.2473 C   0  0  1  0  0  0  0  0  0  0  0  0
    2.4578   -2.2309    7.0477 O   0  0  0  0  0  0  0  0  0  0  0  0
    3.0725   -1.1871    4.9572 C   0  0  2  0  0  0  0  0  0  0  0  0
    4.4545   -1.2047    5.2616 O   0  0  0  0  0  0  0  0  0  0  0  0
    2.7506   -0.0220    4.0117 C   0  0  1  0  0  0  0  0  0  0  0  0
    3.4478   -0.2039    2.7305 N   0  0  0  0  0  0  0  0  0  0  0  0
    0.7271    3.9392    2.0289 C   0  0  2  0  0  0  0  0  0  0  0  0
    0.4429    5.0595    1.2117 O   0  0  0  0  0  0  0  0  0  0  0  0
    2.1507    3.9442    2.5836 C   0  0  2  0  0  0  0  0  0  0  0  0
    2.6398    5.2366    2.8830 O   0  0  0  0  0  0  0  0  0  0  0  0
  2  1  1  0  0  0  0
  3  2  1  1  0  0  0
  3 30  1  0  0  0  0
  4  5  1  0  0  0  0
  4  3  1  0  0  0  0
  5 28  1  0  0  0  0
  5  6  1  1  0  0  0
  7  6  1  1  0  0  0
  8  7  1  0  0  0  0
  8  9  1  6  0  0  0
 10 11  1  1  0  0  0
 10  8  1  0  0  0  0
 12 10  1  0  0  0  0
 13 12  1  0  0  0  0
 13 15  1  0  0  0  0
 13 14  1  1  0  0  0
 15  7  1  0  0  0  0
 15 16  1  6  0  0  0
 17 16  1  6  0  0  0
 18 17  1  0  0  0  0
 19 20  1  1  0  0  0
 19 18  1  0  0  0  0
 20 21  1  0  0  0  0
 22 24  1  0  0  0  0
 22 19  1  0  0  0  0
 22 23  1  1  0  0  0
 24 25  1  1  0  0  0
 24 26  1  0  0  0  0
 26 17  1  0  0  0  0
 26 27  1  6  0  0  0
 28 29  1  6  0  0  0
 28 30  1  0  0  0  0
 30 31  1  6  0  0  0
M  END
>  <CHROM.1>
64.93443110,82.66874162,-65.66554386,-91.09543433,-46.79508318,-57.87009464
54.33818024,69.87753197,78.44891360,-78.19050273,127.19199445,24.97328360
121.96748891,158.25457440,50.36603078,72.03313924,0.99151944,0.60827175,2.81559644
-2.03397858,0.67859955,2.33171822

>  <Name>
lig.pdb

>  <RI>
0

>  <Rbt.Current_Directory>
/home/itssahil/PROJECTS/Mol_Feturizer/New_Systems/rnas/2n0j

>  <Rbt.Executable>
rbdock ($Id: //depot/dev/client3/rdock/2013.1/src/exe/rbdock.cxx#4 $)

>  <Rbt.Library>
libRbt.so (2013.1, Build901 2013/11/27)

>  <Rbt.Parameter_File>
/export/apps/rDock/src/rDock_2013.1_src/data/scripts/dock_solv.prm

>  <Rbt.Receptor>
prm/blind_docking_40.prm

>  <SCORE>
-32.9111

>  <SCORE.INTER>
-37.6477

>  <SCORE.INTER.CONST>
1

>  <SCORE.INTER.POLAR>
-4.71942

>  <SCORE.INTER.ROT>
6

>  <SCORE.INTER.SOLV>
25.304

>  <SCORE.INTER.VDW>
-25.4018

>  <SCORE.INTER.norm>
-1.21444

>  <SCORE.INTRA>
4.58011

>  <SCORE.INTRA.DIHEDRAL>
-0.565595

>  <SCORE.INTRA.DIHEDRAL.0>
28.0161

>  <SCORE.INTRA.POLAR>
0.352676

>  <SCORE.INTRA.POLAR.0>
-1.05798

>  <SCORE.INTRA.REPUL>
0

>  <SCORE.INTRA.REPUL.0>
0

>  <SCORE.INTRA.SOLV>
0.446212

>  <SCORE.INTRA.SOLV.lig_0>
-42.5945

>  <SCORE.INTRA.VDW>
3.4407

>  <SCORE.INTRA.VDW.0>
-5.13869

>  <SCORE.INTRA.norm>
0.147746

>  <SCORE.RESTR>
0.156568

>  <SCORE.RESTR.CAVITY>
0.156568

>  <SCORE.RESTR.norm>
0.00505059

>  <SCORE.SYSTEM>
0

>  <SCORE.SYSTEM.CONST>
0

>  <SCORE.SYSTEM.DIHEDRAL>
0

>  <SCORE.SYSTEM.SOLV>
0

>  <SCORE.SYSTEM.norm>
0

>  <SCORE.heavy>
31

>  <SCORE.norm>
-1.06165

>  <RMSD>
6.472

$$$$
lig.pdb
 OpenBabel11021811453D
libRbt.so/2013.1/901 2013/11/27
 31 33  0  0  0  0  0  0  0  0999 V2000
    2.5507    6.5029    2.3150 O   0  0  0  0  0  0  0  0  0  0  0  0
    1.4478    5.7597    2.7963 C   0  0  0  0  0  0  0  0  0  0  0  0
    1.7424    4.2536    2.7943 C   0  0  1  0  0  0  0  0  0  0  0  0
    0.5808    3.4885    3.0741 O   0  0  0  0  0  0  0  0  0  0  0  0
    0.7101    2.1933    2.4958 C   0  0  1  0  0  0  0  0  0  0  0  0
   -0.4775    1.8606    1.7866 O   0  0  0  0  0  0  0  0  0  0  0  0
   -0.5221    0.5887    1.1597 C   0  0  2  0  0  0  0  0  0  0  0  0
   -1.6945    0.5980    0.1660 C   0  0  1  0  0  0  0  0  0  0  0  0
   -1.3934    1.4594   -0.9206 O   0  0  0  0  0  0  0  0  0  0  0  0
   -2.0275   -0.7813   -0.4229 C   0  0  2  0  0  0  0  0  0  0  0  0
   -3.2162   -0.7137   -1.2869 N   0  0  0  0  0  0  0  0  0  0  0  0
   -2.2762   -1.7755    0.7052 C   0  0  0  0  0  0  0  0  0  0  0  0
   -1.0641   -1.8186    1.6276 C   0  0  2  0  0  0  0  0  0  0  0  0
   -1.3085   -2.8211    2.6701 N   0  0  0  0  0  0  0  0  0  0  0  0
   -0.7953   -0.4215    2.2274 C   0  0  1  0  0  0  0  0  0  0  0  0
    0.3460   -0.5846    3.0832 O   0  0  0  0  0  0  0  0  0  0  0  0
    0.3242    0.0988    4.3318 C   0  0  1  0  0  0  0  0  0  0  0  0
   -0.8790   -0.1855    5.0403 O   0  0  0  0  0  0  0  0  0  0  0  0
   -1.0240   -1.5179    5.5274 C   0  0  2  0  0  0  0  0  0  0  0  0
   -2.3676   -1.6363    6.2590 C   0  0  0  0  0  0  0  0  0  0  0  0
   -2.3799   -0.8606    7.4911 N   0  0  0  0  0  0  0  0  0  0  0  0
    0.1259   -1.8790    6.4861 C   0  0  1  0  0  0  0  0  0  0  0  0
   -0.0080   -3.2241    6.9097 O   0  0  0  0  0  0  0  0  0  0  0  0
    1.4585   -1.6940    5.7496 C   0  0  2  0  0  0  0  0  0  0  0  0
    2.5393   -1.9339    6.6313 O   0  0  0  0  0  0  0  0  0  0  0  0
    1.5587   -0.2819    5.1570 C   0  0  1  0  0  0  0  0  0  0  0  0
    2.7797   -0.1593    4.3479 N   0  0  0  0  0  0  0  0  0  0  0  0
    1.8913    2.2593    1.5167 C   0  0  2  0  0  0  0  0  0  0  0  0
    2.9861    1.5269    2.0350 O   0  0  0  0  0  0  0  0  0  0  0  0
    2.1647    3.7591    1.4145 C   0  0  2  0  0  0  0  0  0  0  0  0
    3.5030    4.0718    1.0826 O   0  0  0  0  0  0  0  0  0  0  0  0
  2  1  1  0  0  0  0
  3  2  1  6  0  0  0
  3 30  1  0  0  0  0
  4  5  1  0  0  0  0
  4  3  1  0  0  0  0
  5 28  1  0  0  0  0
  5  6  1  6  0  0  0
  7  6  1  1  0  0  0
  8  7  1  0  0  0  0
  8  9  1  6  0  0  0
 10 11  1  6  0  0  0
 10  8  1  0  0  0  0
 12 10  1  0  0  0  0
 13 12  1  0  0  0  0
 13 15  1  0  0  0  0
 13 14  1  1  0  0  0
 15  7  1  0  0  0  0
 15 16  1  1  0  0  0
 17 16  1  6  0  0  0
 18 17  1  0  0  0  0
 19 20  1  1  0  0  0
 19 18  1  0  0  0  0
 20 21  1  0  0  0  0
 22 24  1  0  0  0  0
 22 19  1  0  0  0  0
 22 23  1  6  0  0  0
 24 25  1  1  0  0  0
 24 26  1  0  0  0  0
 26 17  1  0  0  0  0
 26 27  1  6  0  0  0
 28 29  1  1  0  0  0
 28 30  1  0  0  0  0
 30 31  1  1  0  0  0
M  END
>  <CHROM.1>
-175.90253441,-170.82166664,-179.25711938,-165.01557699,62.04569428,41.95080263
169.09627263,99.82901444,51.94094588,-68.11897950,-68.05693675,47.44312886
-39.40145164,-139.12020553,-64.83151816,59.12617366,0.19438379,0.52718341
3.05825368,-1.12208200,0.83634542,2.19207033

>  <Name>
lig.pdb

>  <RI>
0

>  <Rbt.Current_Directory>
/home/itssahil/PROJECTS/Mol_Feturizer/New_Systems/rnas/2n0j

>  <Rbt.Executable>
rbdock ($Id: //depot/dev/client3/rdock/2013.1/src/exe/rbdock.cxx#4 $)

>  <Rbt.Library>
libRbt.so (2013.1, Build901 2013/11/27)

>  <Rbt.Parameter_File>
/export/apps/rDock/src/rDock_2013.1_src/data/scripts/dock_solv.prm

>  <Rbt.Receptor>
prm/blind_docking_60.prm

>  <SCORE>
-31.1216

>  <SCORE.INTER>
-31.9632

>  <SCORE.INTER.CONST>
1

>  <SCORE.INTER.POLAR>
-4.2108

>  <SCORE.INTER.ROT>
6

>  <SCORE.INTER.SOLV>
22.5716

>  <SCORE.INTER.VDW>
-22.3967

>  <SCORE.INTER.norm>
-1.03107

>  <SCORE.INTRA>
-1.03261

>  <SCORE.INTRA.DIHEDRAL>
-13.5621

>  <SCORE.INTRA.DIHEDRAL.0>
28.0161

>  <SCORE.INTRA.POLAR>
0.570463

>  <SCORE.INTRA.POLAR.0>
-1.05798

>  <SCORE.INTRA.REPUL>
0

>  <SCORE.INTRA.REPUL.0>
0

>  <SCORE.INTRA.SOLV>
1.8277

>  <SCORE.INTRA.SOLV.lig_0>
-42.5945

>  <SCORE.INTRA.VDW>
2.89503

>  <SCORE.INTRA.VDW.0>
-5.13869

>  <SCORE.INTRA.norm>
-0.0333099

>  <SCORE.RESTR>
1.87424

>  <SCORE.RESTR.CAVITY>
1.87424

>  <SCORE.RESTR.norm>
0.0604594

>  <SCORE.SYSTEM>
0

>  <SCORE.SYSTEM.CONST>
0

>  <SCORE.SYSTEM.DIHEDRAL>
0

>  <SCORE.SYSTEM.SOLV>
0

>  <SCORE.SYSTEM.norm>
0

>  <SCORE.heavy>
31

>  <SCORE.norm>
-1.00392

>  <RMSD>
6.478

$$$$
lig.pdb
 OpenBabel11021811453D
libRbt.so/2013.1/901 2013/11/27
 31 33  0  0  0  0  0  0  0  0999 V2000
    3.6799    7.1486    2.1326 O   0  0  0  0  0  0  0  0  0  0  0  0
    4.9680    6.6542    2.4430 C   0  0  0  0  0  0  0  0  0  0  0  0
    5.0620    5.1417    2.2004 C   0  0  1  0  0  0  0  0  0  0  0  0
    4.0696    4.4290    2.9216 O   0  0  0  0  0  0  0  0  0  0  0  0
    3.7836    3.2021    2.2571 C   0  0  1  0  0  0  0  0  0  0  0  0
    2.3758    3.0321    2.1425 O   0  0  0  0  0  0  0  0  0  0  0  0
    1.7420    2.2122    3.1115 C   0  0  2  0  0  0  0  0  0  0  0  0
    2.2376    0.7725    2.9023 C   0  0  1  0  0  0  0  0  0  0  0  0
    3.6036    0.6784    3.2747 O   0  0  0  0  0  0  0  0  0  0  0  0
    1.4685   -0.2792    3.7163 C   0  0  2  0  0  0  0  0  0  0  0  0
    1.9306   -1.6381    3.3939 N   0  0  0  0  0  0  0  0  0  0  0  0
   -0.0227   -0.1673    3.4220 C   0  0  0  0  0  0  0  0  0  0  0  0
   -0.4984    1.2505    3.7143 C   0  0  2  0  0  0  0  0  0  0  0  0
   -1.9443    1.3145    3.4753 N   0  0  0  0  0  0  0  0  0  0  0  0
    0.2721    2.2662    2.8433 C   0  0  1  0  0  0  0  0  0  0  0  0
   -0.2652    3.5523    3.1878 O   0  0  0  0  0  0  0  0  0  0  0  0
   -1.5095    3.9151    2.5990 C   0  0  1  0  0  0  0  0  0  0  0  0
   -2.5616    3.8363    3.5569 O   0  0  0  0  0  0  0  0  0  0  0  0
   -2.5345    4.8039    4.6040 C   0  0  2  0  0  0  0  0  0  0  0  0
   -3.7346    4.5673    5.5305 C   0  0  0  0  0  0  0  0  0  0  0  0
   -3.7102    5.4588    6.6813 N   0  0  0  0  0  0  0  0  0  0  0  0
   -2.5906    6.2325    4.0316 C   0  0  1  0  0  0  0  0  0  0  0  0
   -2.5034    7.1747    5.0858 O   0  0  0  0  0  0  0  0  0  0  0  0
   -1.4164    6.4224    3.0634 C   0  0  2  0  0  0  0  0  0  0  0  0
   -1.4900    7.6972    2.4532 O   0  0  0  0  0  0  0  0  0  0  0  0
   -1.4112    5.3206    1.9952 C   0  0  1  0  0  0  0  0  0  0  0  0
   -0.2123    5.4393    1.1531 N   0  0  0  0  0  0  0  0  0  0  0  0
    4.4047    3.2999    0.8560 C   0  0  2  0  0  0  0  0  0  0  0  0
    5.5270    2.4420    0.7673 O   0  0  0  0  0  0  0  0  0  0  0  0
    4.7682    4.7800    0.7479 C   0  0  2  0  0  0  0  0  0  0  0  0
    5.8444    5.0384   -0.1320 O   0  0  0  0  0  0  0  0  0  0  0  0
  2  1  1  0  0  0  0
  3  2  1  6  0  0  0
  3 30  1  0  0  0  0
  4  5  1  0  0  0  0
  4  3  1  0  0  0  0
  5 28  1  0  0  0  0
  5  6  1  6  0  0  0
  7  6  1  6  0  0  0
  8  7  1  0  0  0  0
  8  9  1  1  0  0  0
 10 11  1  6  0  0  0
 10  8  1  0  0  0  0
 12 10  1  0  0  0  0
 13 12  1  0  0  0  0
 13 15  1  0  0  0  0
 13 14  1  6  0  0  0
 15  7  1  0  0  0  0
 15 16  1  1  0  0  0
 17 16  1  1  0  0  0
 18 17  1  0  0  0  0
 19 20  1  1  0  0  0
 19 18  1  0  0  0  0
 20 21  1  0  0  0  0
 22 24  1  0  0  0  0
 22 19  1  0  0  0  0
 22 23  1  1  0  0  0
 24 25  1  6  0  0  0
 24 26  1  0  0  0  0
 26 17  1  0  0  0  0
 26 27  1  1  0  0  0
 28 29  1  1  0  0  0
 28 30  1  0  0  0  0
 30 31  1  6  0  0  0
M  END
>  <CHROM.1>
61.93596320,-55.78925899,-97.82870242,-66.72195063,85.10462752,-25.93088047
50.42561550,159.73341623,105.81989926,175.61646976,-77.06369425,-174.20963324
-58.68990658,42.76167401,-30.14439642,-179.46575334,0.94935176,3.76920410
2.90888921,-0.18847820,0.38538195,-0.12251244

>  <Name>
lig.pdb

>  <RI>
3.32461e+07

>  <Rbt.Current_Directory>
/home/itssahil/PROJECTS/Mol_Feturizer/New_Systems/rnas/2n0j

>  <Rbt.Executable>
rbdock ($Id: //depot/dev/client3/rdock/2013.1/src/exe/rbdock.cxx#4 $)

>  <Rbt.Library>
libRbt.so (2013.1, Build901 2013/11/27)

>  <Rbt.Parameter_File>
/export/apps/rDock/src/rDock_2013.1_src/data/scripts/dock_solv.prm

>  <Rbt.Receptor>
prm/pocket_docking_7.prm

>  <SCORE>
-38.7247

>  <SCORE.INTER>
-40.6624

>  <SCORE.INTER.CONST>
1

>  <SCORE.INTER.POLAR>
-4.96793

>  <SCORE.INTER.ROT>
6

>  <SCORE.INTER.SOLV>
19.2064

>  <SCORE.INTER.VDW>
-24.5507

>  <SCORE.INTER.norm>
-1.31169

>  <SCORE.INTRA>
1.93779

>  <SCORE.INTRA.DIHEDRAL>
-4.1398

>  <SCORE.INTRA.DIHEDRAL.0>
28.0161

>  <SCORE.INTRA.POLAR>
-0.705226

>  <SCORE.INTRA.POLAR.0>
-1.05798

>  <SCORE.INTRA.REPUL>
0

>  <SCORE.INTRA.REPUL.0>
0

>  <SCORE.INTRA.SOLV>
1.31341

>  <SCORE.INTRA.SOLV.lig_0>
-42.5945

>  <SCORE.INTRA.VDW>
5.74876

>  <SCORE.INTRA.VDW.0>
-5.13869

>  <SCORE.INTRA.norm>
0.0625095

>  <SCORE.RESTR>
0

>  <SCORE.RESTR.CAVITY>
0

>  <SCORE.RESTR.norm>
0

>  <SCORE.SYSTEM>
0

>  <SCORE.SYSTEM.CONST>
0

>  <SCORE.SYSTEM.DIHEDRAL>
0

>  <SCORE.SYSTEM.SOLV>
0

>  <SCORE.SYSTEM.norm>
0

>  <SCORE.heavy>
31

>  <SCORE.norm>
-1.24918

>  <RMSD>
6.486

$$$$
lig.pdb
 OpenBabel11021811453D
libRbt.so/2013.1/901 2013/11/27
 31 33  0  0  0  0  0  0  0  0999 V2000
    2.4548    8.4323    1.2506 O   0  0  0  0  0  0  0  0  0  0  0  0
    3.5525    8.1089    2.0817 C   0  0  0  0  0  0  0  0  0  0  0  0
    3.5972    6.6068    2.3930 C   0  0  1  0  0  0  0  0  0  0  0  0
    2.3344    6.1181    2.8170 O   0  0  0  0  0  0  0  0  0  0  0  0
    2.2346    4.7287    2.5197 C   0  0  1  0  0  0  0  0  0  0  0  0
    0.9895    4.4588    1.8866 O   0  0  0  0  0  0  0  0  0  0  0  0
    0.4265    3.1723    2.0880 C   0  0  2  0  0  0  0  0  0  0  0  0
    0.8986    2.2698    0.9369 C   0  0  1  0  0  0  0  0  0  0  0  0
    2.2882    2.0148    1.0684 O   0  0  0  0  0  0  0  0  0  0  0  0
    0.1880    0.9092    0.8759 C   0  0  2  0  0  0  0  0  0  0  0  0
    0.6184    0.1409   -0.3025 N   0  0  0  0  0  0  0  0  0  0  0  0
   -1.3206    1.1191    0.8213 C   0  0  0  0  0  0  0  0  0  0  0  0
   -1.7666    1.9505    2.0179 C   0  0  2  0  0  0  0  0  0  0  0  0
   -3.2260    2.0900    1.9692 N   0  0  0  0  0  0  0  0  0  0  0  0
   -1.0591    3.3227    2.0124 C   0  0  1  0  0  0  0  0  0  0  0  0
   -1.5632    4.0187    3.1627 O   0  0  0  0  0  0  0  0  0  0  0  0
   -2.7557    4.7772    2.9916 C   0  0  1  0  0  0  0  0  0  0  0  0
   -3.8391    4.1773    3.6965 O   0  0  0  0  0  0  0  0  0  0  0  0
   -3.7655    4.2196    5.1200 C   0  0  2  0  0  0  0  0  0  0  0  0
   -5.0083    3.5333    5.7025 C   0  0  0  0  0  0  0  0  0  0  0  0
   -6.2317    4.0135    5.0761 N   0  0  0  0  0  0  0  0  0  0  0  0
   -3.6887    5.6735    5.6218 C   0  0  1  0  0  0  0  0  0  0  0  0
   -3.5574    5.6871    7.0322 O   0  0  0  0  0  0  0  0  0  0  0  0
   -2.4742    6.3539    4.9780 C   0  0  2  0  0  0  0  0  0  0  0  0
   -2.4259    7.7182    5.3513 O   0  0  0  0  0  0  0  0  0  0  0  0
   -2.5258    6.2218    3.4499 C   0  0  1  0  0  0  0  0  0  0  0  0
   -1.2964    6.7642    2.8543 N   0  0  0  0  0  0  0  0  0  0  0  0
    3.3833    4.3965    1.5562 C   0  0  2  0  0  0  0  0  0  0  0  0
    4.3577    3.6150    2.2221 O   0  0  0  0  0  0  0  0  0  0  0  0
    3.8948    5.7771    1.1481 C   0  0  2  0  0  0  0  0  0  0  0  0
    5.2566    5.7895    0.7679 O   0  0  0  0  0  0  0  0  0  0  0  0
  2  1  1  0  0  0  0
  3  2  1  6  0  0  0
  3 30  1  0  0  0  0
  4  5  1  0  0  0  0
  4  3  1  0  0  0  0
  5 28  1  0  0  0  0
  5  6  1  6  0  0  0
  7  6  1  6  0  0  0
  8  7  1  0  0  0  0
  8  9  1  1  0  0  0
 10 11  1  6  0  0  0
 10  8  1  0  0  0  0
 12 10  1  0  0  0  0
 13 12  1  0  0  0  0
 13 15  1  0  0  0  0
 13 14  1  6  0  0  0
 15  7  1  0  0  0  0
 15 16  1  1  0  0  0
 17 16  1  1  0  0  0
 18 17  1  0  0  0  0
 19 20  1  1  0  0  0
 19 18  1  0  0  0  0
 20 21  1  0  0  0  0
 22 24  1  0  0  0  0
 22 19  1  0  0  0  0
 22 23  1  1  0  0  0
 24 25  1  6  0  0  0
 24 26  1  0  0  0  0
 26 17  1  0  0  0  0
 26 27  1  6  0  0  0
 28 29  1  1  0  0  0
 28 30  1  0  0  0  0
 30 31  1  1  0  0  0
M  END
>  <CHROM.1>
-61.27504536,-48.51440811,-150.42111653,-92.50735550,62.51930993,-56.16929216
56.28968599,151.30328448,110.97771988,-48.46796569,-39.83462500,63.29282408
69.28296714,-26.47684740,-179.33700770,-176.21042812,-0.31719652,4.47285251
2.74583779,-0.16275377,0.41020010,0.46276074

>  <Name>
lig.pdb

>  <RI>
3.32461e+07

>  <Rbt.Current_Directory>
/home/itssahil/PROJECTS/Mol_Feturizer/New_Systems/rnas/2n0j

>  <Rbt.Executable>
rbdock ($Id: //depot/dev/client3/rdock/2013.1/src/exe/rbdock.cxx#4 $)

>  <Rbt.Library>
libRbt.so (2013.1, Build901 2013/11/27)

>  <Rbt.Parameter_File>
/export/apps/rDock/src/rDock_2013.1_src/data/scripts/dock_solv.prm

>  <Rbt.Receptor>
prm/pocket_docking_7.prm

>  <SCORE>
-39.4745

>  <SCORE.INTER>
-39.2289

>  <SCORE.INTER.CONST>
1

>  <SCORE.INTER.POLAR>
-4.86181

>  <SCORE.INTER.ROT>
6

>  <SCORE.INTER.SOLV>
17.3329

>  <SCORE.INTER.VDW>
-23.3242

>  <SCORE.INTER.norm>
-1.26545

>  <SCORE.INTRA>
-0.245648

>  <SCORE.INTRA.DIHEDRAL>
-5.37468

>  <SCORE.INTRA.DIHEDRAL.0>
28.0161

>  <SCORE.INTRA.POLAR>
-0.261798

>  <SCORE.INTRA.POLAR.0>
-1.05798

>  <SCORE.INTRA.REPUL>
0

>  <SCORE.INTRA.REPUL.0>
0

>  <SCORE.INTRA.SOLV>
1.58798

>  <SCORE.INTRA.SOLV.lig_0>
-42.5945

>  <SCORE.INTRA.VDW>
2.53782

>  <SCORE.INTRA.VDW.0>
-5.13869

>  <SCORE.INTRA.norm>
-0.00792413

>  <SCORE.RESTR>
0

>  <SCORE.RESTR.CAVITY>
0

>  <SCORE.RESTR.norm>
0

>  <SCORE.SYSTEM>
0

>  <SCORE.SYSTEM.CONST>
0

>  <SCORE.SYSTEM.DIHEDRAL>
0

>  <SCORE.SYSTEM.SOLV>
0

>  <SCORE.SYSTEM.norm>
0

>  <SCORE.heavy>
31

>  <SCORE.norm>
-1.27337

>  <RMSD>
6.487

$$$$
lig.pdb
 OpenBabel11021811453D
libRbt.so/2013.1/901 2013/11/27
 31 33  0  0  0  0  0  0  0  0999 V2000
    5.2216    3.5117    1.4833 O   0  0  0  0  0  0  0  0  0  0  0  0
    4.2021    2.5463    1.6533 C   0  0  0  0  0  0  0  0  0  0  0  0
    2.8168    3.1344    1.3531 C   0  0  1  0  0  0  0  0  0  0  0  0
    1.8859    2.1295    0.9835 O   0  0  0  0  0  0  0  0  0  0  0  0
    0.5653    2.5621    1.2962 C   0  0  1  0  0  0  0  0  0  0  0  0
   -0.1321    1.5279    1.9803 O   0  0  0  0  0  0  0  0  0  0  0  0
   -0.3596    0.3211    1.2699 C   0  0  2  0  0  0  0  0  0  0  0  0
   -1.6158    0.5166    0.4062 C   0  0  1  0  0  0  0  0  0  0  0  0
   -1.3388    1.4346   -0.6397 O   0  0  0  0  0  0  0  0  0  0  0  0
   -2.1357   -0.7743   -0.2444 C   0  0  2  0  0  0  0  0  0  0  0  0
   -3.3899   -0.5303   -0.9735 N   0  0  0  0  0  0  0  0  0  0  0  0
   -2.3696   -1.8322    0.8276 C   0  0  0  0  0  0  0  0  0  0  0  0
   -1.0842   -2.0588    1.6139 C   0  0  2  0  0  0  0  0  0  0  0  0
   -1.3229   -3.1183    2.5999 N   0  0  0  0  0  0  0  0  0  0  0  0
   -0.6252   -0.7455    2.2834 C   0  0  1  0  0  0  0  0  0  0  0  0
    0.5720   -1.0794    3.0022 O   0  0  0  0  0  0  0  0  0  0  0  0
    1.1711   -0.0487    3.7802 C   0  0  1  0  0  0  0  0  0  0  0  0
    0.1748    0.7244    4.4439 O   0  0  0  0  0  0  0  0  0  0  0  0
   -0.5443    0.0663    5.4847 C   0  0  2  0  0  0  0  0  0  0  0  0
   -1.5644    1.0458    6.0802 C   0  0  0  0  0  0  0  0  0  0  0  0
   -2.3861    0.4124    7.1016 N   0  0  0  0  0  0  0  0  0  0  0  0
    0.4131   -0.4243    6.5867 C   0  0  1  0  0  0  0  0  0  0  0  0
   -0.3167   -1.1247    7.5784 O   0  0  0  0  0  0  0  0  0  0  0  0
    1.4581   -1.3523    5.9549 C   0  0  2  0  0  0  0  0  0  0  0  0
    2.4062   -1.7510    6.9271 O   0  0  0  0  0  0  0  0  0  0  0  0
    2.1603   -0.6576    4.7804 C   0  0  1  0  0  0  0  0  0  0  0  0
    3.0655   -1.5985    4.1052 N   0  0  0  0  0  0  0  0  0  0  0  0
    0.7038    3.7837    2.2163 C   0  0  2  0  0  0  0  0  0  0  0  0
    0.3240    4.9555    1.5191 O   0  0  0  0  0  0  0  0  0  0  0  0
    2.1845    3.7601    2.5922 C   0  0  2  0  0  0  0  0  0  0  0  0
    2.7088    5.0321    2.9182 O   0  0  0  0  0  0  0  0  0  0  0  0
  2  1  1  0  0  0  0
  3  2  1  1  0  0  0
  3 30  1  0  0  0  0
  4  5  1  0  0  0  0
  4  3  1  0  0  0  0
  5 28  1  0  0  0  0
  5  6  1  1  0  0  0
  7  6  1  1  0  0  0
  8  7  1  0  0  0  0
  8  9  1  6  0  0  0
 10 11  1  1  0  0  0
 10  8  1  0  0  0  0
 12 10  1  0  0  0  0
 13 12  1  0  0  0  0
 13 15  1  0  0  0  0
 13 14  1  1  0  0  0
 15  7  1  0  0  0  0
 15 16  1  6  0  0  0
 17 16  1  1  0  0  0
 18 17  1  0  0  0  0
 19 20  1  1  0  0  0
 19 18  1  0  0  0  0
 20 21  1  0  0  0  0
 22 24  1  0  0  0  0
 22 19  1  0  0  0  0
 22 23  1  1  0  0  0
 24 25  1  1  0  0  0
 24 26  1  0  0  0  0
 26 17  1  0  0  0  0
 26 27  1  6  0  0  0
 28 29  1  6  0  0  0
 28 30  1  0  0  0  0
 30 31  1  6  0  0  0
M  END
>  <CHROM.1>
-60.90407345,155.97538520,-63.43378943,-83.17281978,57.40961272,173.11907852
-53.09741173,62.50997875,40.08077318,176.81182912,47.43414770,-176.08334132
174.63693256,-174.76082855,40.37646347,70.55615116,0.42445998,0.66153281
2.94956073,-1.15243425,0.70941351,2.09115699

>  <Name>
lig.pdb

>  <RI>
1.79691e+07

>  <Rbt.Current_Directory>
/home/itssahil/PROJECTS/Mol_Feturizer/New_Systems/rnas/2n0j

>  <Rbt.Executable>
rbdock ($Id: //depot/dev/client3/rdock/2013.1/src/exe/rbdock.cxx#4 $)

>  <Rbt.Library>
libRbt.so (2013.1, Build901 2013/11/27)

>  <Rbt.Parameter_File>
/export/apps/rDock/src/rDock_2013.1_src/data/scripts/dock_solv.prm

>  <Rbt.Receptor>
prm/blind_docking_20.prm

>  <SCORE>
-34.6769

>  <SCORE.INTER>
-32.4554

>  <SCORE.INTER.CONST>
1

>  <SCORE.INTER.POLAR>
-2.93613

>  <SCORE.INTER.ROT>
6

>  <SCORE.INTER.SOLV>
20.1186

>  <SCORE.INTER.VDW>
-26.156

>  <SCORE.INTER.norm>
-1.04695

>  <SCORE.INTRA>
-4.61388

>  <SCORE.INTRA.DIHEDRAL>
-18.4537

>  <SCORE.INTRA.DIHEDRAL.0>
28.0161

>  <SCORE.INTRA.POLAR>
0.247874

>  <SCORE.INTRA.POLAR.0>
-1.05798

>  <SCORE.INTRA.REPUL>
0.093599

>  <SCORE.INTRA.REPUL.0>
0

>  <SCORE.INTRA.SOLV>
0.344335

>  <SCORE.INTRA.SOLV.lig_0>
-42.5945

>  <SCORE.INTRA.VDW>
3.13003

>  <SCORE.INTRA.VDW.0>
-5.13869

>  <SCORE.INTRA.norm>
-0.148835

>  <SCORE.RESTR>
2.39239

>  <SCORE.RESTR.CAVITY>
2.39239

>  <SCORE.RESTR.norm>
0.077174

>  <SCORE.SYSTEM>
0

>  <SCORE.SYSTEM.CONST>
0

>  <SCORE.SYSTEM.DIHEDRAL>
0

>  <SCORE.SYSTEM.SOLV>
0

>  <SCORE.SYSTEM.norm>
0

>  <SCORE.heavy>
31

>  <SCORE.norm>
-1.11861

>  <RMSD>
6.496

$$$$
lig.pdb
 OpenBabel11021811453D
libRbt.so/2013.1/901 2013/11/27
 31 33  0  0  0  0  0  0  0  0999 V2000
   -0.9087    0.4579    4.6796 O   0  0  0  0  0  0  0  0  0  0  0  0
   -0.5834   -0.4342    3.6314 C   0  0  0  0  0  0  0  0  0  0  0  0
    0.8024   -0.1306    3.0461 C   0  0  1  0  0  0  0  0  0  0  0  0
    0.8375    1.1329    2.4015 O   0  0  0  0  0  0  0  0  0  0  0  0
    2.1683    1.6404    2.4156 C   0  0  1  0  0  0  0  0  0  0  0  0
    2.1632    2.9964    2.8460 O   0  0  0  0  0  0  0  0  0  0  0  0
    2.2787    3.9939    1.8437 C   0  0  2  0  0  0  0  0  0  0  0  0
    3.7389    4.4733    1.8272 C   0  0  1  0  0  0  0  0  0  0  0  0
    4.5747    3.4427    1.3246 O   0  0  0  0  0  0  0  0  0  0  0  0
    3.9792    5.7195    0.9616 C   0  0  2  0  0  0  0  0  0  0  0  0
    5.3731    6.1771    1.0700 N   0  0  0  0  0  0  0  0  0  0  0  0
    3.0423    6.8387    1.4005 C   0  0  0  0  0  0  0  0  0  0  0  0
    1.5986    6.3564    1.3304 C   0  0  2  0  0  0  0  0  0  0  0  0
    0.7181    7.4684    1.7047 N   0  0  0  0  0  0  0  0  0  0  0  0
    1.3962    5.1312    2.2477 C   0  0  1  0  0  0  0  0  0  0  0  0
    0.0110    4.7775    2.1152 O   0  0  0  0  0  0  0  0  0  0  0  0
   -0.5550    3.9727    3.1441 C   0  0  1  0  0  0  0  0  0  0  0  0
   -0.9793    4.7803    4.2388 O   0  0  0  0  0  0  0  0  0  0  0  0
   -2.0980    5.6311    3.9981 C   0  0  2  0  0  0  0  0  0  0  0  0
   -2.4096    6.4168    5.2788 C   0  0  0  0  0  0  0  0  0  0  0  0
   -2.9503    7.7359    4.9831 N   0  0  0  0  0  0  0  0  0  0  0  0
   -3.3306    4.8096    3.5768 C   0  0  1  0  0  0  0  0  0  0  0  0
   -4.4102    5.6798    3.2871 O   0  0  0  0  0  0  0  0  0  0  0  0
   -2.9737    3.9882    2.3317 C   0  0  2  0  0  0  0  0  0  0  0  0
   -4.0593    3.1551    1.9706 O   0  0  0  0  0  0  0  0  0  0  0  0
   -1.7158    3.1452    2.5807 C   0  0  1  0  0  0  0  0  0  0  0  0
   -1.3119    2.4629    1.3431 N   0  0  0  0  0  0  0  0  0  0  0  0
    2.9592    0.7867    3.4175 C   0  0  2  0  0  0  0  0  0  0  0  0
    3.8760   -0.0402    2.7252 O   0  0  0  0  0  0  0  0  0  0  0  0
    1.8626    0.0010    4.1348 C   0  0  2  0  0  0  0  0  0  0  0  0
    2.2996   -1.2383    4.6567 O   0  0  0  0  0  0  0  0  0  0  0  0
  2  1  1  0  0  0  0
  3  2  1  1  0  0  0
  3 30  1  0  0  0  0
  4  5  1  0  0  0  0
  4  3  1  0  0  0  0
  5 28  1  0  0  0  0
  5  6  1  1  0  0  0
  7  6  1  1  0  0  0
  8  7  1  0  0  0  0
  8  9  1  6  0  0  0
 10 11  1  1  0  0  0
 10  8  1  0  0  0  0
 12 10  1  0  0  0  0
 13 12  1  0  0  0  0
 13 15  1  0  0  0  0
 13 14  1  1  0  0  0
 15  7  1  0  0  0  0
 15 16  1  6  0  0  0
 17 16  1  6  0  0  0
 18 17  1  0  0  0  0
 19 20  1  1  0  0  0
 19 18  1  0  0  0  0
 20 21  1  0  0  0  0
 22 24  1  0  0  0  0
 22 19  1  0  0  0  0
 22 23  1  6  0  0  0
 24 25  1  1  0  0  0
 24 26  1  0  0  0  0
 26 17  1  0  0  0  0
 26 27  1  6  0  0  0
 28 29  1  6  0  0  0
 28 30  1  0  0  0  0
 30 31  1  6  0  0  0
M  END
>  <CHROM.1>
-178.58879795,-65.72576131,-101.35611048,-100.31653125,60.23846833,-59.94782303
-97.50543715,78.69243496,84.18841578,148.11852555,-156.44489764,-68.82787051
156.26501903,-170.03303575,121.57673464,-176.01576401,0.47922816,3.59011818
2.79555443,0.51651197,-0.26560806,2.94626630

>  <Name>
lig.pdb

>  <RI>
0

>  <Rbt.Current_Directory>
/home/itssahil/PROJECTS/Mol_Feturizer/New_Systems/rnas/2n0j

>  <Rbt.Executable>
rbdock ($Id: //depot/dev/client3/rdock/2013.1/src/exe/rbdock.cxx#4 $)

>  <Rbt.Library>
libRbt.so (2013.1, Build901 2013/11/27)

>  <Rbt.Parameter_File>
/export/apps/rDock/src/rDock_2013.1_src/data/scripts/dock_solv.prm

>  <Rbt.Receptor>
prm/pocket_docking_8.prm

>  <SCORE>
-46.2312

>  <SCORE.INTER>
-49.7294

>  <SCORE.INTER.CONST>
1

>  <SCORE.INTER.POLAR>
-5.77195

>  <SCORE.INTER.ROT>
6

>  <SCORE.INTER.SOLV>
19.0671

>  <SCORE.INTER.VDW>
-27.8688

>  <SCORE.INTER.norm>
-1.60417

>  <SCORE.INTRA>
3.49811

>  <SCORE.INTRA.DIHEDRAL>
4.28791

>  <SCORE.INTRA.DIHEDRAL.0>
28.0161

>  <SCORE.INTRA.POLAR>
0.0191915

>  <SCORE.INTRA.POLAR.0>
-1.05798

>  <SCORE.INTRA.REPUL>
0.00348258

>  <SCORE.INTRA.REPUL.0>
0

>  <SCORE.INTRA.SOLV>
1.38013

>  <SCORE.INTRA.SOLV.lig_0>
-42.5945

>  <SCORE.INTRA.VDW>
0.581425

>  <SCORE.INTRA.VDW.0>
-5.13869

>  <SCORE.INTRA.norm>
0.112842

>  <SCORE.RESTR>
0

>  <SCORE.RESTR.CAVITY>
0

>  <SCORE.RESTR.norm>
0

>  <SCORE.SYSTEM>
0

>  <SCORE.SYSTEM.CONST>
0

>  <SCORE.SYSTEM.DIHEDRAL>
0

>  <SCORE.SYSTEM.SOLV>
0

>  <SCORE.SYSTEM.norm>
0

>  <SCORE.heavy>
31

>  <SCORE.norm>
-1.49133

>  <RMSD>
6.503

$$$$
lig.pdb
 OpenBabel11021811453D
libRbt.so/2013.1/901 2013/11/27
 31 33  0  0  0  0  0  0  0  0999 V2000
    4.0409    1.2005    2.5447 O   0  0  0  0  0  0  0  0  0  0  0  0
    4.2575    2.4533    1.9252 C   0  0  0  0  0  0  0  0  0  0  0  0
    2.9411    3.0729    1.4370 C   0  0  1  0  0  0  0  0  0  0  0  0
    2.0127    2.0823    1.0247 O   0  0  0  0  0  0  0  0  0  0  0  0
    0.6863    2.5832    1.1608 C   0  0  1  0  0  0  0  0  0  0  0  0
   -0.1274    1.6215    1.8217 O   0  0  0  0  0  0  0  0  0  0  0  0
   -0.3620    0.3972    1.1444 C   0  0  2  0  0  0  0  0  0  0  0  0
   -1.6613    0.5504    0.3379 C   0  0  1  0  0  0  0  0  0  0  0  0
   -1.4536    1.4542   -0.7361 O   0  0  0  0  0  0  0  0  0  0  0  0
   -2.1833   -0.7629   -0.2644 C   0  0  2  0  0  0  0  0  0  0  0  0
   -3.4754   -0.5585   -0.9374 N   0  0  0  0  0  0  0  0  0  0  0  0
   -2.3438   -1.8051    0.8360 C   0  0  0  0  0  0  0  0  0  0  0  0
   -1.0183   -1.9904    1.5645 C   0  0  2  0  0  0  0  0  0  0  0  0
   -1.1875   -3.0359    2.5793 N   0  0  0  0  0  0  0  0  0  0  0  0
   -0.5566   -0.6556    2.1881 C   0  0  1  0  0  0  0  0  0  0  0  0
    0.6799   -0.9512    2.8551 O   0  0  0  0  0  0  0  0  0  0  0  0
    1.1680    0.0175    3.7771 C   0  0  1  0  0  0  0  0  0  0  0  0
    0.0968    0.5815    4.5287 O   0  0  0  0  0  0  0  0  0  0  0  0
   -0.5474   -0.2874    5.4580 C   0  0  2  0  0  0  0  0  0  0  0  0
   -1.6643    0.4869    6.1705 C   0  0  0  0  0  0  0  0  0  0  0  0
   -2.8461    0.6216    5.3309 N   0  0  0  0  0  0  0  0  0  0  0  0
    0.4580   -0.8245    6.4936 C   0  0  1  0  0  0  0  0  0  0  0  0
   -0.1924   -1.7293    7.3681 O   0  0  0  0  0  0  0  0  0  0  0  0
    1.5942   -1.5404    5.7526 C   0  0  2  0  0  0  0  0  0  0  0  0
    2.5804   -1.9699    6.6723 O   0  0  0  0  0  0  0  0  0  0  0  0
    2.2174   -0.6185    4.6958 C   0  0  1  0  0  0  0  0  0  0  0  0
    3.2159   -1.3557    3.9082 N   0  0  0  0  0  0  0  0  0  0  0  0
    0.7769    3.8547    2.0172 C   0  0  2  0  0  0  0  0  0  0  0  0
    0.5286    4.9934    1.2139 O   0  0  0  0  0  0  0  0  0  0  0  0
    2.2047    3.7993    2.5581 C   0  0  2  0  0  0  0  0  0  0  0  0
    2.7460    5.0688    2.8656 O   0  0  0  0  0  0  0  0  0  0  0  0
  2  1  1  0  0  0  0
  3  2  1  1  0  0  0
  3 30  1  0  0  0  0
  4  5  1  0  0  0  0
  4  3  1  0  0  0  0
  5 28  1  0  0  0  0
  5  6  1  1  0  0  0
  7  6  1  1  0  0  0
  8  7  1  0  0  0  0
  8  9  1  6  0  0  0
 10 11  1  1  0  0  0
 10  8  1  0  0  0  0
 12 10  1  0  0  0  0
 13 12  1  0  0  0  0
 13 15  1  0  0  0  0
 13 14  1  1  0  0  0
 15  7  1  0  0  0  0
 15 16  1  6  0  0  0
 17 16  1  6  0  0  0
 18 17  1  0  0  0  0
 19 20  1  1  0  0  0
 19 18  1  0  0  0  0
 20 21  1  0  0  0  0
 22 24  1  0  0  0  0
 22 19  1  0  0  0  0
 22 23  1  1  0  0  0
 24 25  1  1  0  0  0
 24 26  1  0  0  0  0
 26 17  1  0  0  0  0
 26 27  1  6  0  0  0
 28 29  1  6  0  0  0
 28 30  1  0  0  0  0
 30 31  1  6  0  0  0
M  END
>  <CHROM.1>
67.73840032,-32.66899028,-65.29313288,-92.26952139,179.95877487,178.40531649
-58.77947215,73.61132795,39.22281175,77.83595397,-57.73208939,61.91214782
68.21193905,-47.85336424,-53.94647136,168.32773510,0.40290172,0.53484754
2.85681966,-1.44383296,0.65493138,2.24737134

>  <Name>
lig.pdb

>  <RI>
9.20816e+06

>  <Rbt.Current_Directory>
/home/itssahil/PROJECTS/Mol_Feturizer/New_Systems/rnas/2n0j

>  <Rbt.Executable>
rbdock ($Id: //depot/dev/client3/rdock/2013.1/src/exe/rbdock.cxx#4 $)

>  <Rbt.Library>
libRbt.so (2013.1, Build901 2013/11/27)

>  <Rbt.Parameter_File>
/export/apps/rDock/src/rDock_2013.1_src/data/scripts/dock_solv.prm

>  <Rbt.Receptor>
prm/blind_docking_100.prm

>  <SCORE>
-35.4433

>  <SCORE.INTER>
-32.8982

>  <SCORE.INTER.CONST>
1

>  <SCORE.INTER.POLAR>
-3.76852

>  <SCORE.INTER.ROT>
6

>  <SCORE.INTER.SOLV>
21.7722

>  <SCORE.INTER.VDW>
-24.2278

>  <SCORE.INTER.norm>
-1.06123

>  <SCORE.INTRA>
-6.08255

>  <SCORE.INTRA.DIHEDRAL>
-15.5227

>  <SCORE.INTRA.DIHEDRAL.0>
28.0161

>  <SCORE.INTRA.POLAR>
0.0323264

>  <SCORE.INTRA.POLAR.0>
-1.05798

>  <SCORE.INTRA.REPUL>
0

>  <SCORE.INTRA.REPUL.0>
0

>  <SCORE.INTRA.SOLV>
0.912988

>  <SCORE.INTRA.SOLV.lig_0>
-42.5945

>  <SCORE.INTRA.VDW>
1.11239

>  <SCORE.INTRA.VDW.0>
-5.13869

>  <SCORE.INTRA.norm>
-0.196211

>  <SCORE.RESTR>
3.53739

>  <SCORE.RESTR.CAVITY>
3.53739

>  <SCORE.RESTR.norm>
0.114109

>  <SCORE.SYSTEM>
0

>  <SCORE.SYSTEM.CONST>
0

>  <SCORE.SYSTEM.DIHEDRAL>
0

>  <SCORE.SYSTEM.SOLV>
0

>  <SCORE.SYSTEM.norm>
0

>  <SCORE.heavy>
31

>  <SCORE.norm>
-1.14333

>  <RMSD>
6.514

$$$$
lig.pdb
 OpenBabel11021811453D
libRbt.so/2013.1/901 2013/11/27
 31 33  0  0  0  0  0  0  0  0999 V2000
   -3.3255    6.8009    4.7487 O   0  0  0  0  0  0  0  0  0  0  0  0
   -2.0894    6.7530    4.0634 C   0  0  0  0  0  0  0  0  0  0  0  0
   -1.6185    5.3071    3.8561 C   0  0  1  0  0  0  0  0  0  0  0  0
   -1.7141    4.5450    5.0490 O   0  0  0  0  0  0  0  0  0  0  0  0
   -1.8644    3.1661    4.7253 C   0  0  1  0  0  0  0  0  0  0  0  0
   -2.9283    2.6051    5.4850 O   0  0  0  0  0  0  0  0  0  0  0  0
   -2.5838    1.9494    6.6951 C   0  0  2  0  0  0  0  0  0  0  0  0
   -1.6838    2.8989    7.5017 C   0  0  1  0  0  0  0  0  0  0  0  0
   -2.4462    4.0030    7.9635 O   0  0  0  0  0  0  0  0  0  0  0  0
   -1.0299    2.2491    8.7306 C   0  0  2  0  0  0  0  0  0  0  0  0
   -0.1102    3.1846    9.3962 N   0  0  0  0  0  0  0  0  0  0  0  0
   -0.2648    1.0011    8.3062 C   0  0  0  0  0  0  0  0  0  0  0  0
   -1.2034    0.0464    7.5787 C   0  0  2  0  0  0  0  0  0  0  0  0
   -0.4552   -1.1665    7.2310 N   0  0  0  0  0  0  0  0  0  0  0  0
   -1.8017    0.7287    6.3296 C   0  0  1  0  0  0  0  0  0  0  0  0
   -2.6475   -0.2591    5.7210 O   0  0  0  0  0  0  0  0  0  0  0  0
   -3.0476   -0.0305    4.3741 C   0  0  1  0  0  0  0  0  0  0  0  0
   -1.9329   -0.1376    3.4929 O   0  0  0  0  0  0  0  0  0  0  0  0
   -1.3814   -1.4425    3.3298 C   0  0  2  0  0  0  0  0  0  0  0  0
   -0.2009   -1.3645    2.3525 C   0  0  0  0  0  0  0  0  0  0  0  0
   -0.6126   -0.8608    1.0500 N   0  0  0  0  0  0  0  0  0  0  0  0
   -2.4408   -2.4219    2.7913 C   0  0  1  0  0  0  0  0  0  0  0  0
   -1.8861   -3.7216    2.6936 O   0  0  0  0  0  0  0  0  0  0  0  0
   -3.6348   -2.4350    3.7540 C   0  0  2  0  0  0  0  0  0  0  0  0
   -4.6641   -3.2601    3.2416 O   0  0  0  0  0  0  0  0  0  0  0  0
   -4.1596   -1.0117    3.9861 C   0  0  1  0  0  0  0  0  0  0  0  0
   -5.2180   -1.0237    5.0059 N   0  0  0  0  0  0  0  0  0  0  0  0
   -2.2081    3.0953    3.2303 C   0  0  2  0  0  0  0  0  0  0  0  0
   -1.1085    2.5715    2.5090 O   0  0  0  0  0  0  0  0  0  0  0  0
   -2.5174    4.5507    2.8832 C   0  0  2  0  0  0  0  0  0  0  0  0
   -2.2861    4.8732    1.5262 O   0  0  0  0  0  0  0  0  0  0  0  0
  2  1  1  0  0  0  0
  3  2  1  1  0  0  0
  3 30  1  0  0  0  0
  4  5  1  0  0  0  0
  4  3  1  0  0  0  0
  5 28  1  0  0  0  0
  5  6  1  1  0  0  0
  7  6  1  6  0  0  0
  8  7  1  0  0  0  0
  8  9  1  1  0  0  0
 10 11  1  6  0  0  0
 10  8  1  0  0  0  0
 12 10  1  0  0  0  0
 13 12  1  0  0  0  0
 13 15  1  0  0  0  0
 13 14  1  6  0  0  0
 15  7  1  0  0  0  0
 15 16  1  1  0  0  0
 17 16  1  1  0  0  0
 18 17  1  0  0  0  0
 19 20  1  6  0  0  0
 19 18  1  0  0  0  0
 20 21  1  0  0  0  0
 22 24  1  0  0  0  0
 22 19  1  0  0  0  0
 22 23  1  1  0  0  0
 24 25  1  6  0  0  0
 24 26  1  0  0  0  0
 26 17  1  0  0  0  0
 26 27  1  1  0  0  0
 28 29  1  6  0  0  0
 28 30  1  0  0  0  0
 30 31  1  6  0  0  0
M  END
>  <CHROM.1>
67.32788603,-47.46955497,-95.01549738,50.43017487,61.45196520,70.65307785
50.97885397,75.38456657,68.27991981,-59.71250074,45.06999274,37.31624385
56.95516736,-65.30166393,68.49340918,-176.75202789,-2.10569484,1.32037487
4.80820212,1.03248227,-1.40100565,-0.21777178

>  <Name>
lig.pdb

>  <RI>
0

>  <Rbt.Current_Directory>
/home/itssahil/PROJECTS/Mol_Feturizer/New_Systems/rnas/2n0j

>  <Rbt.Executable>
rbdock ($Id: //depot/dev/client3/rdock/2013.1/src/exe/rbdock.cxx#4 $)

>  <Rbt.Library>
libRbt.so (2013.1, Build901 2013/11/27)

>  <Rbt.Parameter_File>
/export/apps/rDock/src/rDock_2013.1_src/data/scripts/dock_solv.prm

>  <Rbt.Receptor>
prm/pocket_docking_5.prm

>  <SCORE>
-34.2028

>  <SCORE.INTER>
-28.6034

>  <SCORE.INTER.CONST>
1

>  <SCORE.INTER.POLAR>
-4.18093

>  <SCORE.INTER.ROT>
6

>  <SCORE.INTER.SOLV>
13.2386

>  <SCORE.INTER.VDW>
-17.1454

>  <SCORE.INTER.norm>
-0.92269

>  <SCORE.INTRA>
-5.59942

>  <SCORE.INTRA.DIHEDRAL>
-16.6209

>  <SCORE.INTRA.DIHEDRAL.0>
28.0161

>  <SCORE.INTRA.POLAR>
0.091594

>  <SCORE.INTRA.POLAR.0>
-1.05798

>  <SCORE.INTRA.REPUL>
0.00680784

>  <SCORE.INTRA.REPUL.0>
0

>  <SCORE.INTRA.SOLV>
1.09882

>  <SCORE.INTRA.SOLV.lig_0>
-42.5945

>  <SCORE.INTRA.VDW>
1.81616

>  <SCORE.INTRA.VDW.0>
-5.13869

>  <SCORE.INTRA.norm>
-0.180627

>  <SCORE.RESTR>
0

>  <SCORE.RESTR.CAVITY>
0

>  <SCORE.RESTR.norm>
0

>  <SCORE.SYSTEM>
0

>  <SCORE.SYSTEM.CONST>
0

>  <SCORE.SYSTEM.DIHEDRAL>
0

>  <SCORE.SYSTEM.SOLV>
0

>  <SCORE.SYSTEM.norm>
0

>  <SCORE.heavy>
31

>  <SCORE.norm>
-1.10332

>  <RMSD>
6.518

$$$$
lig.pdb
 OpenBabel11021811453D
libRbt.so/2013.1/901 2013/11/27
 31 33  0  0  0  0  0  0  0  0999 V2000
   -1.7407   -1.4873    0.2377 O   0  0  0  0  0  0  0  0  0  0  0  0
   -1.0796   -0.2467    0.3928 C   0  0  0  0  0  0  0  0  0  0  0  0
    0.2256   -0.4016    1.1850 C   0  0  1  0  0  0  0  0  0  0  0  0
    0.9909    0.7931    1.1798 O   0  0  0  0  0  0  0  0  0  0  0  0
    1.8171    0.8373    2.3392 C   0  0  1  0  0  0  0  0  0  0  0  0
    1.7075    2.1118    2.9617 O   0  0  0  0  0  0  0  0  0  0  0  0
    1.9417    3.2511    2.1493 C   0  0  2  0  0  0  0  0  0  0  0  0
    3.4609    3.3865    1.9605 C   0  0  1  0  0  0  0  0  0  0  0  0
    3.9371    2.3296    1.1421 O   0  0  0  0  0  0  0  0  0  0  0  0
    3.8953    4.7051    1.3027 C   0  0  2  0  0  0  0  0  0  0  0  0
    5.3616    4.8075    1.2427 N   0  0  0  0  0  0  0  0  0  0  0  0
    3.3366    5.8824    2.0931 C   0  0  0  0  0  0  0  0  0  0  0  0
    1.8212    5.7593    2.1946 C   0  0  2  0  0  0  0  0  0  0  0  0
    1.3063    6.9312    2.9111 N   0  0  0  0  0  0  0  0  0  0  0  0
    1.4351    4.4411    2.8995 C   0  0  1  0  0  0  0  0  0  0  0  0
    0.0003    4.4408    2.9532 O   0  0  0  0  0  0  0  0  0  0  0  0
   -0.6017    4.6180    4.2310 C   0  0  1  0  0  0  0  0  0  0  0  0
   -1.1803    5.9158    4.3391 O   0  0  0  0  0  0  0  0  0  0  0  0
   -2.3280    6.1636    3.5298 C   0  0  2  0  0  0  0  0  0  0  0  0
   -2.8104    7.5990    3.7779 C   0  0  0  0  0  0  0  0  0  0  0  0
   -3.1801    7.8096    5.1702 N   0  0  0  0  0  0  0  0  0  0  0  0
   -3.4566    5.1692    3.8601 C   0  0  1  0  0  0  0  0  0  0  0  0
   -4.5621    5.3977    3.0044 O   0  0  0  0  0  0  0  0  0  0  0  0
   -2.9300    3.7423    3.6628 C   0  0  2  0  0  0  0  0  0  0  0  0
   -3.9173    2.8022    4.0429 O   0  0  0  0  0  0  0  0  0  0  0  0
   -1.6454    3.5218    4.4730 C   0  0  1  0  0  0  0  0  0  0  0  0
   -1.0824    2.1968    4.1763 N   0  0  0  0  0  0  0  0  0  0  0  0
    1.2999   -0.2473    3.2953 C   0  0  2  0  0  0  0  0  0  0  0  0
    2.2271   -1.3150    3.3571 O   0  0  0  0  0  0  0  0  0  0  0  0
   -0.0353   -0.6450    2.6680 C   0  0  2  0  0  0  0  0  0  0  0  0
   -0.4319   -1.9689    2.9665 O   0  0  0  0  0  0  0  0  0  0  0  0
  2  1  1  0  0  0  0
  3  2  1  6  0  0  0
  3 30  1  0  0  0  0
  4  5  1  0  0  0  0
  4  3  1  0  0  0  0
  5 28  1  0  0  0  0
  5  6  1  1  0  0  0
  7  6  1  1  0  0  0
  8  7  1  0  0  0  0
  8  9  1  6  0  0  0
 10 11  1  1  0  0  0
 10  8  1  0  0  0  0
 12 10  1  0  0  0  0
 13 12  1  0  0  0  0
 13 15  1  0  0  0  0
 13 14  1  1  0  0  0
 15  7  1  0  0  0  0
 15 16  1  6  0  0  0
 17 16  1  6  0  0  0
 18 17  1  0  0  0  0
 19 20  1  1  0  0  0
 19 18  1  0  0  0  0
 20 21  1  0  0  0  0
 22 24  1  0  0  0  0
 22 19  1  0  0  0  0
 22 23  1  6  0  0  0
 24 25  1  1  0  0  0
 24 26  1  0  0  0  0
 26 17  1  0  0  0  0
 26 27  1  6  0  0  0
 28 29  1  6  0  0  0
 28 30  1  0  0  0  0
 30 31  1  6  0  0  0
M  END
>  <CHROM.1>
179.91875027,171.45084862,-53.30669192,-77.06385486,58.45230024,63.27334588
111.12910788,129.60072792,107.28256362,-60.49214559,-76.47836237,-81.73464761
-61.53765188,97.83325422,175.80731508,76.45009923,0.09648665,3.14672302,2.77184735
1.00776611,-0.26220222,-2.96941662

>  <Name>
lig.pdb

>  <RI>
3.33129e+07

>  <Rbt.Current_Directory>
/home/itssahil/PROJECTS/Mol_Feturizer/New_Systems/rnas/2n0j

>  <Rbt.Executable>
rbdock ($Id: //depot/dev/client3/rdock/2013.1/src/exe/rbdock.cxx#4 $)

>  <Rbt.Library>
libRbt.so (2013.1, Build901 2013/11/27)

>  <Rbt.Parameter_File>
/export/apps/rDock/src/rDock_2013.1_src/data/scripts/dock_solv.prm

>  <Rbt.Receptor>
prm/pocket_docking_4.prm

>  <SCORE>
-44.6029

>  <SCORE.INTER>
-43.3051

>  <SCORE.INTER.CONST>
1

>  <SCORE.INTER.POLAR>
-3.69384

>  <SCORE.INTER.ROT>
6

>  <SCORE.INTER.SOLV>
20.037

>  <SCORE.INTER.VDW>
-30.8363

>  <SCORE.INTER.norm>
-1.39694

>  <SCORE.INTRA>
-1.55483

>  <SCORE.INTRA.DIHEDRAL>
-2.70547

>  <SCORE.INTRA.DIHEDRAL.0>
28.0161

>  <SCORE.INTRA.POLAR>
-0.798995

>  <SCORE.INTRA.POLAR.0>
-1.05798

>  <SCORE.INTRA.REPUL>
0

>  <SCORE.INTRA.REPUL.0>
0

>  <SCORE.INTRA.SOLV>
0.872045

>  <SCORE.INTRA.SOLV.lig_0>
-42.5945

>  <SCORE.INTRA.VDW>
2.07847

>  <SCORE.INTRA.VDW.0>
-5.13869

>  <SCORE.INTRA.norm>
-0.0501558

>  <SCORE.RESTR>
0.257073

>  <SCORE.RESTR.CAVITY>
0.257073

>  <SCORE.RESTR.norm>
0.00829268

>  <SCORE.SYSTEM>
0

>  <SCORE.SYSTEM.CONST>
0

>  <SCORE.SYSTEM.DIHEDRAL>
0

>  <SCORE.SYSTEM.SOLV>
0

>  <SCORE.SYSTEM.norm>
0

>  <SCORE.heavy>
31

>  <SCORE.norm>
-1.4388

>  <RMSD>
6.524

$$$$
lig.pdb
 OpenBabel11021811453D
libRbt.so/2013.1/901 2013/11/27
 31 33  0  0  0  0  0  0  0  0999 V2000
   -0.5331   -2.3838    1.3919 O   0  0  0  0  0  0  0  0  0  0  0  0
   -0.4781   -0.9787    1.2406 C   0  0  0  0  0  0  0  0  0  0  0  0
    0.6012   -0.3595    2.1388 C   0  0  1  0  0  0  0  0  0  0  0  0
    0.7452    1.0329    1.9073 O   0  0  0  0  0  0  0  0  0  0  0  0
    1.2514    1.6632    3.0800 C   0  0  1  0  0  0  0  0  0  0  0  0
    0.4820    2.8229    3.3750 O   0  0  0  0  0  0  0  0  0  0  0  0
    0.4108    3.8245    2.3727 C   0  0  2  0  0  0  0  0  0  0  0  0
    1.8366    4.3437    2.1284 C   0  0  1  0  0  0  0  0  0  0  0  0
    2.6099    3.3371    1.4943 O   0  0  0  0  0  0  0  0  0  0  0  0
    1.9036    5.5973    1.2428 C   0  0  2  0  0  0  0  0  0  0  0  0
    3.2844    6.0927    1.1323 N   0  0  0  0  0  0  0  0  0  0  0  0
    1.0182    6.6898    1.8305 C   0  0  0  0  0  0  0  0  0  0  0  0
   -0.4050    6.1682    1.9866 C   0  0  2  0  0  0  0  0  0  0  0  0
   -1.2448    7.2552    2.5015 N   0  0  0  0  0  0  0  0  0  0  0  0
   -0.4269    4.9367    2.9174 C   0  0  1  0  0  0  0  0  0  0  0  0
   -1.8057    4.5453    3.0034 O   0  0  0  0  0  0  0  0  0  0  0  0
   -2.1286    3.5010    3.9154 C   0  0  1  0  0  0  0  0  0  0  0  0
   -1.6775    3.8221    5.2284 O   0  0  0  0  0  0  0  0  0  0  0  0
   -2.3561    4.8912    5.8842 C   0  0  2  0  0  0  0  0  0  0  0  0
   -1.7409    5.0910    7.2757 C   0  0  0  0  0  0  0  0  0  0  0  0
   -2.3038    6.2512    7.9517 N   0  0  0  0  0  0  0  0  0  0  0  0
   -3.8597    4.5863    6.0171 C   0  0  1  0  0  0  0  0  0  0  0  0
   -4.5203    5.6860    6.6177 O   0  0  0  0  0  0  0  0  0  0  0  0
   -4.4366    4.3309    4.6191 C   0  0  2  0  0  0  0  0  0  0  0  0
   -5.7994    3.9614    4.7150 O   0  0  0  0  0  0  0  0  0  0  0  0
   -3.6386    3.2383    3.8948 C   0  0  1  0  0  0  0  0  0  0  0  0
   -4.1198    3.0933    2.5135 N   0  0  0  0  0  0  0  0  0  0  0  0
    1.1120    0.6496    4.2251 C   0  0  2  0  0  0  0  0  0  0  0  0
    2.3902    0.1736    4.6033 O   0  0  0  0  0  0  0  0  0  0  0  0
    0.2229   -0.4327    3.6147 C   0  0  2  0  0  0  0  0  0  0  0  0
    0.4096   -1.7119    4.1875 O   0  0  0  0  0  0  0  0  0  0  0  0
  2  1  1  0  0  0  0
  3  2  1  6  0  0  0
  3 30  1  0  0  0  0
  4  5  1  0  0  0  0
  4  3  1  0  0  0  0
  5 28  1  0  0  0  0
  5  6  1  1  0  0  0
  7  6  1  1  0  0  0
  8  7  1  0  0  0  0
  8  9  1  6  0  0  0
 10 11  1  1  0  0  0
 10  8  1  0  0  0  0
 12 10  1  0  0  0  0
 13 12  1  0  0  0  0
 13 15  1  0  0  0  0
 13 14  1  1  0  0  0
 15  7  1  0  0  0  0
 15 16  1  6  0  0  0
 17 16  1  6  0  0  0
 18 17  1  0  0  0  0
 19 20  1  1  0  0  0
 19 18  1  0  0  0  0
 20 21  1  0  0  0  0
 22 24  1  0  0  0  0
 22 19  1  0  0  0  0
 22 23  1  6  0  0  0
 24 25  1  1  0  0  0
 24 26  1  0  0  0  0
 26 17  1  0  0  0  0
 26 27  1  6  0  0  0
 28 29  1  6  0  0  0
 28 30  1  0  0  0  0
 30 31  1  1  0  0  0
M  END
>  <CHROM.1>
-62.48133719,174.77347118,-58.14822158,-61.99024520,52.55142569,-57.28770495
-80.95120565,65.24332085,55.52413703,174.59376830,-69.17897960,-178.60739692
69.89651383,-67.78986694,71.32559121,-52.49824607,-0.76475595,3.27260632
3.52708389,0.75677666,-0.58044021,-3.12266747

>  <Name>
lig.pdb

>  <RI>
0

>  <Rbt.Current_Directory>
/home/itssahil/PROJECTS/Mol_Feturizer/New_Systems/rnas/2n0j

>  <Rbt.Executable>
rbdock ($Id: //depot/dev/client3/rdock/2013.1/src/exe/rbdock.cxx#4 $)

>  <Rbt.Library>
libRbt.so (2013.1, Build901 2013/11/27)

>  <Rbt.Parameter_File>
/export/apps/rDock/src/rDock_2013.1_src/data/scripts/dock_solv.prm

>  <Rbt.Receptor>
prm/pocket_docking_8.prm

>  <SCORE>
-46.4475

>  <SCORE.INTER>
-39.1641

>  <SCORE.INTER.CONST>
1

>  <SCORE.INTER.POLAR>
-4.65252

>  <SCORE.INTER.ROT>
6

>  <SCORE.INTER.SOLV>
18.49

>  <SCORE.INTER.VDW>
-24.3644

>  <SCORE.INTER.norm>
-1.26336

>  <SCORE.INTRA>
-7.2834

>  <SCORE.INTRA.DIHEDRAL>
-24.1305

>  <SCORE.INTRA.DIHEDRAL.0>
28.0161

>  <SCORE.INTRA.POLAR>
0.232997

>  <SCORE.INTRA.POLAR.0>
-1.05798

>  <SCORE.INTRA.REPUL>
0

>  <SCORE.INTRA.REPUL.0>
0

>  <SCORE.INTRA.SOLV>
0.564441

>  <SCORE.INTRA.SOLV.lig_0>
-42.5945

>  <SCORE.INTRA.VDW>
3.70743

>  <SCORE.INTRA.VDW.0>
-5.13869

>  <SCORE.INTRA.norm>
-0.234949

>  <SCORE.RESTR>
0

>  <SCORE.RESTR.CAVITY>
0

>  <SCORE.RESTR.norm>
0

>  <SCORE.SYSTEM>
0

>  <SCORE.SYSTEM.CONST>
0

>  <SCORE.SYSTEM.DIHEDRAL>
0

>  <SCORE.SYSTEM.SOLV>
0

>  <SCORE.SYSTEM.norm>
0

>  <SCORE.heavy>
31

>  <SCORE.norm>
-1.49831

>  <RMSD>
6.534

$$$$
lig.pdb
 OpenBabel11021811453D
libRbt.so/2013.1/901 2013/11/27
 31 33  0  0  0  0  0  0  0  0999 V2000
    2.8332    5.4781    0.9432 O   0  0  0  0  0  0  0  0  0  0  0  0
    1.9578    4.4019    1.2183 C   0  0  0  0  0  0  0  0  0  0  0  0
    0.6550    4.8900    1.8662 C   0  0  1  0  0  0  0  0  0  0  0  0
   -0.2406    3.8195    2.1214 O   0  0  0  0  0  0  0  0  0  0  0  0
   -1.1015    4.1633    3.2027 C   0  0  1  0  0  0  0  0  0  0  0  0
   -1.1566    3.0906    4.1356 O   0  0  0  0  0  0  0  0  0  0  0  0
   -2.2568    2.2006    4.0342 C   0  0  2  0  0  0  0  0  0  0  0  0
   -2.5231    1.9546    2.5407 C   0  0  1  0  0  0  0  0  0  0  0  0
   -1.4645    1.1898    1.9859 O   0  0  0  0  0  0  0  0  0  0  0  0
   -3.8306    1.2009    2.2534 C   0  0  2  0  0  0  0  0  0  0  0  0
   -4.0677    1.0871    0.8060 N   0  0  0  0  0  0  0  0  0  0  0  0
   -4.9992    1.9328    2.9028 C   0  0  0  0  0  0  0  0  0  0  0  0
   -4.7397    2.0909    4.3960 C   0  0  2  0  0  0  0  0  0  0  0  0
   -5.9021    2.7480    5.0031 N   0  0  0  0  0  0  0  0  0  0  0  0
   -3.4402    2.8899    4.6339 C   0  0  1  0  0  0  0  0  0  0  0  0
   -3.3071    2.9899    6.0601 O   0  0  0  0  0  0  0  0  0  0  0  0
   -2.2631    3.8197    6.5581 C   0  0  1  0  0  0  0  0  0  0  0  0
   -2.6150    5.1957    6.4417 O   0  0  0  0  0  0  0  0  0  0  0  0
   -3.6678    5.6510    7.2890 C   0  0  2  0  0  0  0  0  0  0  0  0
   -3.9049    7.1445    7.0282 C   0  0  0  0  0  0  0  0  0  0  0  0
   -3.5290    7.5206    5.6728 N   0  0  0  0  0  0  0  0  0  0  0  0
   -3.3129    5.4299    8.7711 C   0  0  1  0  0  0  0  0  0  0  0  0
   -4.3963    5.8352    9.5888 O   0  0  0  0  0  0  0  0  0  0  0  0
   -3.0215    3.9403    8.9915 C   0  0  2  0  0  0  0  0  0  0  0  0
   -2.6065    3.7178   10.3262 O   0  0  0  0  0  0  0  0  0  0  0  0
   -1.9485    3.4472    8.0114 C   0  0  1  0  0  0  0  0  0  0  0  0
   -1.7708    1.9943    8.1462 N   0  0  0  0  0  0  0  0  0  0  0  0
   -0.4939    5.4010    3.8787 C   0  0  2  0  0  0  0  0  0  0  0  0
   -1.2953    6.5366    3.6107 O   0  0  0  0  0  0  0  0  0  0  0  0
    0.8964    5.4834    3.2505 C   0  0  2  0  0  0  0  0  0  0  0  0
    1.4316    6.7918    3.2235 O   0  0  0  0  0  0  0  0  0  0  0  0
  2  1  1  0  0  0  0
  3  2  1  1  0  0  0
  3 30  1  0  0  0  0
  4  5  1  0  0  0  0
  4  3  1  0  0  0  0
  5 28  1  0  0  0  0
  5  6  1  1  0  0  0
  7  6  1  6  0  0  0
  8  7  1  0  0  0  0
  8  9  1  1  0  0  0
 10 11  1  6  0  0  0
 10  8  1  0  0  0  0
 12 10  1  0  0  0  0
 13 12  1  0  0  0  0
 13 15  1  0  0  0  0
 13 14  1  1  0  0  0
 15  7  1  0  0  0  0
 15 16  1  1  0  0  0
 17 16  1  1  0  0  0
 18 17  1  0  0  0  0
 19 20  1  1  0  0  0
 19 18  1  0  0  0  0
 20 21  1  0  0  0  0
 22 24  1  0  0  0  0
 22 19  1  0  0  0  0
 22 23  1  1  0  0  0
 24 25  1  1  0  0  0
 24 26  1  0  0  0  0
 26 17  1  0  0  0  0
 26 27  1  6  0  0  0
 28 29  1  6  0  0  0
 28 30  1  0  0  0  0
 30 31  1  6  0  0  0
M  END
>  <CHROM.1>
-65.66420864,178.82934039,-97.43282937,40.07988601,-70.33789539,-48.54233566
-172.87609321,66.28708750,76.25242536,27.32670810,-38.72229682,-63.42975649
62.58538036,67.75432466,-178.37086942,-48.52608917,-2.12039522,4.02948350
4.79985671,-0.88954415,0.68349455,1.01546368

>  <Name>
lig.pdb

>  <RI>
0

>  <Rbt.Current_Directory>
/home/itssahil/PROJECTS/Mol_Feturizer/New_Systems/rnas/2n0j

>  <Rbt.Executable>
rbdock ($Id: //depot/dev/client3/rdock/2013.1/src/exe/rbdock.cxx#4 $)

>  <Rbt.Library>
libRbt.so (2013.1, Build901 2013/11/27)

>  <Rbt.Parameter_File>
/export/apps/rDock/src/rDock_2013.1_src/data/scripts/dock_solv.prm

>  <Rbt.Receptor>
prm/pocket_docking_5.prm

>  <SCORE>
-29.9663

>  <SCORE.INTER>
-25.6143

>  <SCORE.INTER.CONST>
1

>  <SCORE.INTER.POLAR>
-3.40878

>  <SCORE.INTER.ROT>
6

>  <SCORE.INTER.SOLV>
13.5701

>  <SCORE.INTER.VDW>
-17.8369

>  <SCORE.INTER.norm>
-0.826266

>  <SCORE.INTRA>
-4.36282

>  <SCORE.INTRA.DIHEDRAL>
-13.4725

>  <SCORE.INTRA.DIHEDRAL.0>
28.0161

>  <SCORE.INTRA.POLAR>
-0.389589

>  <SCORE.INTRA.POLAR.0>
-1.05798

>  <SCORE.INTRA.REPUL>
0

>  <SCORE.INTRA.REPUL.0>
0

>  <SCORE.INTRA.SOLV>
1.04559

>  <SCORE.INTRA.SOLV.lig_0>
-42.5945

>  <SCORE.INTRA.VDW>
3.17523

>  <SCORE.INTRA.VDW.0>
-5.13869

>  <SCORE.INTRA.norm>
-0.140736

>  <SCORE.RESTR>
0.0107469

>  <SCORE.RESTR.CAVITY>
0.0107469

>  <SCORE.RESTR.norm>
0.000346673

>  <SCORE.SYSTEM>
0

>  <SCORE.SYSTEM.CONST>
0

>  <SCORE.SYSTEM.DIHEDRAL>
0

>  <SCORE.SYSTEM.SOLV>
0

>  <SCORE.SYSTEM.norm>
0

>  <SCORE.heavy>
31

>  <SCORE.norm>
-0.966656

>  <RMSD>
6.539

$$$$
lig.pdb
 OpenBabel11021811453D
libRbt.so/2013.1/901 2013/11/27
 31 33  0  0  0  0  0  0  0  0999 V2000
   -1.9933    0.8612   -0.3185 O   0  0  0  0  0  0  0  0  0  0  0  0
   -0.8965   -0.0196   -0.4636 C   0  0  0  0  0  0  0  0  0  0  0  0
    0.1194    0.1573    0.6730 C   0  0  1  0  0  0  0  0  0  0  0  0
    0.4705    1.5192    0.8595 O   0  0  0  0  0  0  0  0  0  0  0  0
    0.8871    1.7259    2.2058 C   0  0  1  0  0  0  0  0  0  0  0  0
    0.2389    2.8738    2.7408 O   0  0  0  0  0  0  0  0  0  0  0  0
    0.2236    4.0422    1.9363 C   0  0  2  0  0  0  0  0  0  0  0  0
    1.6682    4.5562    1.8306 C   0  0  1  0  0  0  0  0  0  0  0  0
    2.4384    3.6596    1.0455 O   0  0  0  0  0  0  0  0  0  0  0  0
    1.7929    5.9471    1.1904 C   0  0  2  0  0  0  0  0  0  0  0  0
    3.1876    6.4147    1.2106 N   0  0  0  0  0  0  0  0  0  0  0  0
    0.9142    6.9398    1.9424 C   0  0  0  0  0  0  0  0  0  0  0  0
   -0.5250    6.4395    1.9611 C   0  0  2  0  0  0  0  0  0  0  0  0
   -1.3558    7.4385    2.6417 N   0  0  0  0  0  0  0  0  0  0  0  0
   -0.6057    5.0606    2.6509 C   0  0  1  0  0  0  0  0  0  0  0  0
   -1.9951    4.6997    2.6256 O   0  0  0  0  0  0  0  0  0  0  0  0
   -2.3674    3.5023    3.2995 C   0  0  1  0  0  0  0  0  0  0  0  0
   -1.8676    3.4997    4.6340 O   0  0  0  0  0  0  0  0  0  0  0  0
   -2.4589    4.4379    5.5305 C   0  0  2  0  0  0  0  0  0  0  0  0
   -1.8019    4.2899    6.9093 C   0  0  0  0  0  0  0  0  0  0  0  0
   -1.8396    2.9122    7.3785 N   0  0  0  0  0  0  0  0  0  0  0  0
   -3.9764    4.2028    5.6474 C   0  0  1  0  0  0  0  0  0  0  0  0
   -4.5489    5.1819    6.4960 O   0  0  0  0  0  0  0  0  0  0  0  0
   -4.5990    4.2957    4.2488 C   0  0  2  0  0  0  0  0  0  0  0  0
   -5.9811    3.9973    4.3105 O   0  0  0  0  0  0  0  0  0  0  0  0
   -3.8917    3.3424    3.2762 C   0  0  1  0  0  0  0  0  0  0  0  0
   -4.4111    3.5333    1.9145 N   0  0  0  0  0  0  0  0  0  0  0  0
    0.4635    0.4808    2.9985 C   0  0  2  0  0  0  0  0  0  0  0  0
    1.6063   -0.2774    3.3485 O   0  0  0  0  0  0  0  0  0  0  0  0
   -0.4643   -0.2432    2.0242 C   0  0  2  0  0  0  0  0  0  0  0  0
   -0.5229   -1.6412    2.2271 O   0  0  0  0  0  0  0  0  0  0  0  0
  2  1  1  0  0  0  0
  3  2  1  6  0  0  0
  3 30  1  0  0  0  0
  4  5  1  0  0  0  0
  4  3  1  0  0  0  0
  5 28  1  0  0  0  0
  5  6  1  1  0  0  0
  7  6  1  1  0  0  0
  8  7  1  0  0  0  0
  8  9  1  6  0  0  0
 10 11  1  1  0  0  0
 10  8  1  0  0  0  0
 12 10  1  0  0  0  0
 13 12  1  0  0  0  0
 13 15  1  0  0  0  0
 13 14  1  1  0  0  0
 15  7  1  0  0  0  0
 15 16  1  6  0  0  0
 17 16  1  1  0  0  0
 18 17  1  0  0  0  0
 19 20  1  1  0  0  0
 19 18  1  0  0  0  0
 20 21  1  0  0  0  0
 22 24  1  0  0  0  0
 22 19  1  0  0  0  0
 22 23  1  1  0  0  0
 24 25  1  1  0  0  0
 24 26  1  0  0  0  0
 26 17  1  0  0  0  0
 26 27  1  6  0  0  0
 28 29  1  6  0  0  0
 28 30  1  0  0  0  0
 30 31  1  1  0  0  0
M  END
>  <CHROM.1>
-61.70802044,-49.99431973,-46.67363105,-67.59451649,17.18883489,70.24128291
167.19083029,63.98930568,51.65832073,-53.00092611,175.77417097,-65.02704713
176.02930715,158.21572730,-177.65516178,-59.83256041,-1.05679104,3.33087857
2.87921653,0.57838891,-0.60481061,-2.93242870

>  <Name>
lig.pdb

>  <RI>
3.33129e+07

>  <Rbt.Current_Directory>
/home/itssahil/PROJECTS/Mol_Feturizer/New_Systems/rnas/2n0j

>  <Rbt.Executable>
rbdock ($Id: //depot/dev/client3/rdock/2013.1/src/exe/rbdock.cxx#4 $)

>  <Rbt.Library>
libRbt.so (2013.1, Build901 2013/11/27)

>  <Rbt.Parameter_File>
/export/apps/rDock/src/rDock_2013.1_src/data/scripts/dock_solv.prm

>  <Rbt.Receptor>
prm/pocket_docking_4.prm

>  <SCORE>
-29.8906

>  <SCORE.INTER>
-26.1302

>  <SCORE.INTER.CONST>
1

>  <SCORE.INTER.POLAR>
-2.30752

>  <SCORE.INTER.ROT>
6

>  <SCORE.INTER.SOLV>
14.286

>  <SCORE.INTER.VDW>
-22.0904

>  <SCORE.INTER.norm>
-0.842909

>  <SCORE.INTRA>
-3.7604

>  <SCORE.INTRA.DIHEDRAL>
-17.8312

>  <SCORE.INTRA.DIHEDRAL.0>
28.0161

>  <SCORE.INTRA.POLAR>
0.249485

>  <SCORE.INTRA.POLAR.0>
-1.05798

>  <SCORE.INTRA.REPUL>
0

>  <SCORE.INTRA.REPUL.0>
0

>  <SCORE.INTRA.SOLV>
0.175202

>  <SCORE.INTRA.SOLV.lig_0>
-42.5945

>  <SCORE.INTRA.VDW>
4.21934

>  <SCORE.INTRA.VDW.0>
-5.13869

>  <SCORE.INTRA.norm>
-0.121303

>  <SCORE.RESTR>
0

>  <SCORE.RESTR.CAVITY>
0

>  <SCORE.RESTR.norm>
0

>  <SCORE.SYSTEM>
0

>  <SCORE.SYSTEM.CONST>
0

>  <SCORE.SYSTEM.DIHEDRAL>
0

>  <SCORE.SYSTEM.SOLV>
0

>  <SCORE.SYSTEM.norm>
0

>  <SCORE.heavy>
31

>  <SCORE.norm>
-0.964212

>  <RMSD>
6.540

$$$$
lig.pdb
 OpenBabel11021811453D
libRbt.so/2013.1/901 2013/11/27
 31 33  0  0  0  0  0  0  0  0999 V2000
    5.0834    3.1478    0.8133 O   0  0  0  0  0  0  0  0  0  0  0  0
    4.1979    3.2237    1.9134 C   0  0  0  0  0  0  0  0  0  0  0  0
    2.7809    3.6093    1.4676 C   0  0  1  0  0  0  0  0  0  0  0  0
    2.0210    2.4738    1.0851 O   0  0  0  0  0  0  0  0  0  0  0  0
    0.6340    2.7440    1.2636 C   0  0  1  0  0  0  0  0  0  0  0  0
    0.0159    1.6621    1.9501 O   0  0  0  0  0  0  0  0  0  0  0  0
   -0.1943    0.4659    1.2168 C   0  0  2  0  0  0  0  0  0  0  0  0
   -1.4490    0.6625    0.3511 C   0  0  1  0  0  0  0  0  0  0  0  0
   -1.1782    1.6027   -0.6766 O   0  0  0  0  0  0  0  0  0  0  0  0
   -1.9509   -0.6222   -0.3254 C   0  0  2  0  0  0  0  0  0  0  0  0
   -3.2046   -0.3795   -1.0556 N   0  0  0  0  0  0  0  0  0  0  0  0
   -2.1771   -1.7022    0.7261 C   0  0  0  0  0  0  0  0  0  0  0  0
   -0.8926   -1.9282    1.5141 C   0  0  2  0  0  0  0  0  0  0  0  0
   -1.1232   -3.0082    2.4795 N   0  0  0  0  0  0  0  0  0  0  0  0
   -0.4519   -0.6221    2.2094 C   0  0  1  0  0  0  0  0  0  0  0  0
    0.7460   -0.9551    2.9275 O   0  0  0  0  0  0  0  0  0  0  0  0
    1.2442    0.0136    3.8441 C   0  0  1  0  0  0  0  0  0  0  0  0
    0.1742    0.6327    4.5529 O   0  0  0  0  0  0  0  0  0  0  0  0
   -0.5284   -0.1921    5.4800 C   0  0  2  0  0  0  0  0  0  0  0  0
   -1.6349    0.6380    6.1444 C   0  0  0  0  0  0  0  0  0  0  0  0
   -2.1234    0.0073    7.3623 N   0  0  0  0  0  0  0  0  0  0  0  0
    0.4261   -0.7447    6.5548 C   0  0  1  0  0  0  0  0  0  0  0  0
   -0.2826   -1.6062    7.4277 O   0  0  0  0  0  0  0  0  0  0  0  0
    1.5549   -1.5177    5.8613 C   0  0  2  0  0  0  0  0  0  0  0  0
    2.4977   -1.9645    6.8176 O   0  0  0  0  0  0  0  0  0  0  0  0
    2.2423   -0.6419    4.8052 C   0  0  1  0  0  0  0  0  0  0  0  0
    3.2340   -1.4320    4.0616 N   0  0  0  0  0  0  0  0  0  0  0  0
    0.5351    4.0170    2.1168 C   0  0  2  0  0  0  0  0  0  0  0  0
    0.0726    5.0931    1.3220 O   0  0  0  0  0  0  0  0  0  0  0  0
    1.9681    4.2066    2.6118 C   0  0  2  0  0  0  0  0  0  0  0  0
    2.2963    5.5510    2.9020 O   0  0  0  0  0  0  0  0  0  0  0  0
  2  1  1  0  0  0  0
  3  2  1  1  0  0  0
  3 30  1  0  0  0  0
  4  5  1  0  0  0  0
  4  3  1  0  0  0  0
  5 28  1  0  0  0  0
  5  6  1  1  0  0  0
  7  6  1  1  0  0  0
  8  7  1  0  0  0  0
  8  9  1  6  0  0  0
 10 11  1  1  0  0  0
 10  8  1  0  0  0  0
 12 10  1  0  0  0  0
 13 12  1  0  0  0  0
 13 15  1  0  0  0  0
 13 14  1  1  0  0  0
 15  7  1  0  0  0  0
 15 16  1  6  0  0  0
 17 16  1  6  0  0  0
 18 17  1  0  0  0  0
 19 20  1  1  0  0  0
 19 18  1  0  0  0  0
 20 21  1  0  0  0  0
 22 24  1  0  0  0  0
 22 19  1  0  0  0  0
 22 23  1  1  0  0  0
 24 25  1  1  0  0  0
 24 26  1  0  0  0  0
 26 17  1  0  0  0  0
 26 27  1  6  0  0  0
 28 29  1  6  0  0  0
 28 30  1  0  0  0  0
 30 31  1  6  0  0  0
M  END
>  <CHROM.1>
-53.31216255,86.46538042,-73.68259972,-79.58665140,62.39012269,170.72187667
-178.58633285,69.51472106,39.81700412,-162.85599911,-141.55715473,-157.49555441
76.00993853,-156.65353638,-55.92754449,60.38901123,0.47879219,0.72139008
2.90745079,-1.27436859,0.74553791,2.15408372

>  <Name>
lig.pdb

>  <RI>
0

>  <Rbt.Current_Directory>
/home/itssahil/PROJECTS/Mol_Feturizer/New_Systems/rnas/2n0j

>  <Rbt.Executable>
rbdock ($Id: //depot/dev/client3/rdock/2013.1/src/exe/rbdock.cxx#4 $)

>  <Rbt.Library>
libRbt.so (2013.1, Build901 2013/11/27)

>  <Rbt.Parameter_File>
/export/apps/rDock/src/rDock_2013.1_src/data/scripts/dock_solv.prm

>  <Rbt.Receptor>
prm/blind_docking_60.prm

>  <SCORE>
-31.0539

>  <SCORE.INTER>
-32.0061

>  <SCORE.INTER.CONST>
1

>  <SCORE.INTER.POLAR>
-3.43851

>  <SCORE.INTER.ROT>
6

>  <SCORE.INTER.SOLV>
21.5829

>  <SCORE.INTER.VDW>
-24.67

>  <SCORE.INTER.norm>
-1.03246

>  <SCORE.INTRA>
-0.765841

>  <SCORE.INTRA.DIHEDRAL>
-11.9364

>  <SCORE.INTRA.DIHEDRAL.0>
28.0161

>  <SCORE.INTRA.POLAR>
0.451642

>  <SCORE.INTRA.POLAR.0>
-1.05798

>  <SCORE.INTRA.REPUL>
0.000858379

>  <SCORE.INTRA.REPUL.0>
0

>  <SCORE.INTRA.SOLV>
0.0631829

>  <SCORE.INTRA.SOLV.lig_0>
-42.5945

>  <SCORE.INTRA.VDW>
3.63091

>  <SCORE.INTRA.VDW.0>
-5.13869

>  <SCORE.INTRA.norm>
-0.0247045

>  <SCORE.RESTR>
1.71802

>  <SCORE.RESTR.CAVITY>
1.71802

>  <SCORE.RESTR.norm>
0.0554199

>  <SCORE.SYSTEM>
0

>  <SCORE.SYSTEM.CONST>
0

>  <SCORE.SYSTEM.DIHEDRAL>
0

>  <SCORE.SYSTEM.SOLV>
0

>  <SCORE.SYSTEM.norm>
0

>  <SCORE.heavy>
31

>  <SCORE.norm>
-1.00174

>  <RMSD>
6.542

$$$$
lig.pdb
 OpenBabel11021811453D
libRbt.so/2013.1/901 2013/11/27
 31 33  0  0  0  0  0  0  0  0999 V2000
    1.0428    0.9998   -1.0792 O   0  0  0  0  0  0  0  0  0  0  0  0
   -0.0481    0.9838   -0.1793 C   0  0  0  0  0  0  0  0  0  0  0  0
    0.4220    0.7913    1.2689 C   0  0  1  0  0  0  0  0  0  0  0  0
    1.3538    1.7880    1.6579 O   0  0  0  0  0  0  0  0  0  0  0  0
    1.3061    1.9624    3.0708 C   0  0  1  0  0  0  0  0  0  0  0  0
    1.2337    3.3482    3.3839 O   0  0  0  0  0  0  0  0  0  0  0  0
    1.0534    4.2477    2.3016 C   0  0  2  0  0  0  0  0  0  0  0  0
    2.4458    4.6887    1.8232 C   0  0  1  0  0  0  0  0  0  0  0  0
    3.1056    3.5971    1.2014 O   0  0  0  0  0  0  0  0  0  0  0  0
    2.4235    5.8452    0.8122 C   0  0  2  0  0  0  0  0  0  0  0  0
    3.7884    6.2774    0.4739 N   0  0  0  0  0  0  0  0  0  0  0  0
    1.6484    7.0216    1.3938 C   0  0  0  0  0  0  0  0  0  0  0  0
    0.2469    6.5694    1.7852 C   0  0  2  0  0  0  0  0  0  0  0  0
   -0.4927    7.7314    2.2897 N   0  0  0  0  0  0  0  0  0  0  0  0
    0.3203    5.4376    2.8327 C   0  0  1  0  0  0  0  0  0  0  0  0
   -1.0435    5.1064    3.1357 O   0  0  0  0  0  0  0  0  0  0  0  0
   -1.2698    3.9381    3.9171 C   0  0  1  0  0  0  0  0  0  0  0  0
   -1.1894    4.2393    5.3076 O   0  0  0  0  0  0  0  0  0  0  0  0
   -2.2339    5.0524    5.8379 C   0  0  2  0  0  0  0  0  0  0  0  0
   -1.9835    5.2684    7.3363 C   0  0  0  0  0  0  0  0  0  0  0  0
   -2.8418    6.3109    7.8807 N   0  0  0  0  0  0  0  0  0  0  0  0
   -3.6067    4.3864    5.6288 C   0  0  1  0  0  0  0  0  0  0  0  0
   -4.6308    5.2384    6.1102 O   0  0  0  0  0  0  0  0  0  0  0  0
   -3.8055    4.1264    4.1304 C   0  0  2  0  0  0  0  0  0  0  0  0
   -5.0212    3.4349    3.9135 O   0  0  0  0  0  0  0  0  0  0  0  0
   -2.6282    3.3251    3.5584 C   0  0  1  0  0  0  0  0  0  0  0  0
   -2.7677    3.1931    2.1012 N   0  0  0  0  0  0  0  0  0  0  0  0
    0.0336    1.2575    3.5630 C   0  0  2  0  0  0  0  0  0  0  0  0
    0.3797    0.0865    4.2788 O   0  0  0  0  0  0  0  0  0  0  0  0
   -0.7193    0.9695    2.2651 C   0  0  2  0  0  0  0  0  0  0  0  0
   -1.5845   -0.1459    2.3452 O   0  0  0  0  0  0  0  0  0  0  0  0
  2  1  1  0  0  0  0
  3  2  1  6  0  0  0
  3 30  1  0  0  0  0
  4  5  1  0  0  0  0
  4  3  1  0  0  0  0
  5 28  1  0  0  0  0
  5  6  1  6  0  0  0
  7  6  1  1  0  0  0
  8  7  1  0  0  0  0
  8  9  1  6  0  0  0
 10 11  1  1  0  0  0
 10  8  1  0  0  0  0
 12 10  1  0  0  0  0
 13 12  1  0  0  0  0
 13 15  1  0  0  0  0
 13 14  1  1  0  0  0
 15  7  1  0  0  0  0
 15 16  1  6  0  0  0
 17 16  1  6  0  0  0
 18 17  1  0  0  0  0
 19 20  1  1  0  0  0
 19 18  1  0  0  0  0
 20 21  1  0  0  0  0
 22 24  1  0  0  0  0
 22 19  1  0  0  0  0
 22 23  1  6  0  0  0
 24 25  1  1  0  0  0
 24 26  1  0  0  0  0
 26 17  1  0  0  0  0
 26 27  1  6  0  0  0
 28 29  1  6  0  0  0
 28 30  1  0  0  0  0
 30 31  1  1  0  0  0
M  END
>  <CHROM.1>
-49.42919813,56.57175213,7.70145349,-91.76565149,-50.65944217,59.66699099
-73.36045114,49.20116909,86.04357473,167.85789361,167.37079329,-173.86901653
-55.41630803,36.05663645,64.50043831,-58.04047404,-0.50559604,3.76914158
3.04450686,0.44475975,-0.67265639,-2.82937244

>  <Name>
lig.pdb

>  <RI>
2.67765e+07

>  <Rbt.Current_Directory>
/home/itssahil/PROJECTS/Mol_Feturizer/New_Systems/rnas/2n0j

>  <Rbt.Executable>
rbdock ($Id: //depot/dev/client3/rdock/2013.1/src/exe/rbdock.cxx#4 $)

>  <Rbt.Library>
libRbt.so (2013.1, Build901 2013/11/27)

>  <Rbt.Parameter_File>
/export/apps/rDock/src/rDock_2013.1_src/data/scripts/dock_solv.prm

>  <Rbt.Receptor>
prm/pocket_docking_2.prm

>  <SCORE>
-26.721

>  <SCORE.INTER>
-30.3233

>  <SCORE.INTER.CONST>
1

>  <SCORE.INTER.POLAR>
-2.93953

>  <SCORE.INTER.ROT>
6

>  <SCORE.INTER.SOLV>
17.1423

>  <SCORE.INTER.VDW>
-23.7312

>  <SCORE.INTER.norm>
-0.97817

>  <SCORE.INTRA>
0.727795

>  <SCORE.INTRA.DIHEDRAL>
-9.51014

>  <SCORE.INTRA.DIHEDRAL.0>
28.0161

>  <SCORE.INTRA.POLAR>
0.0333319

>  <SCORE.INTRA.POLAR.0>
-1.05798

>  <SCORE.INTRA.REPUL>
0

>  <SCORE.INTRA.REPUL.0>
0

>  <SCORE.INTRA.SOLV>
1.48896

>  <SCORE.INTRA.SOLV.lig_0>
-42.5945

>  <SCORE.INTRA.VDW>
4.62506

>  <SCORE.INTRA.VDW.0>
-5.13869

>  <SCORE.INTRA.norm>
0.0234773

>  <SCORE.RESTR>
2.87452

>  <SCORE.RESTR.CAVITY>
2.87452

>  <SCORE.RESTR.norm>
0.0927264

>  <SCORE.SYSTEM>
0

>  <SCORE.SYSTEM.CONST>
0

>  <SCORE.SYSTEM.DIHEDRAL>
0

>  <SCORE.SYSTEM.SOLV>
0

>  <SCORE.SYSTEM.norm>
0

>  <SCORE.heavy>
31

>  <SCORE.norm>
-0.861967

>  <RMSD>
6.550

$$$$
lig.pdb
 OpenBabel11021811453D
libRbt.so/2013.1/901 2013/11/27
 31 33  0  0  0  0  0  0  0  0999 V2000
    4.7884    1.6915    1.4787 O   0  0  0  0  0  0  0  0  0  0  0  0
    4.4299    2.9679    1.9710 C   0  0  0  0  0  0  0  0  0  0  0  0
    3.0480    3.3983    1.4607 C   0  0  1  0  0  0  0  0  0  0  0  0
    2.2533    2.2841    1.0864 O   0  0  0  0  0  0  0  0  0  0  0  0
    0.8739    2.6189    1.2045 C   0  0  1  0  0  0  0  0  0  0  0  0
    0.1849    1.5877    1.9015 O   0  0  0  0  0  0  0  0  0  0  0  0
   -0.0593    0.3812    1.1960 C   0  0  2  0  0  0  0  0  0  0  0  0
   -1.2825    0.6068    0.2932 C   0  0  1  0  0  0  0  0  0  0  0  0
   -0.9457    1.5047   -0.7526 O   0  0  0  0  0  0  0  0  0  0  0  0
   -1.8232   -0.6740   -0.3605 C   0  0  2  0  0  0  0  0  0  0  0  0
   -3.0469   -0.3985   -1.1291 N   0  0  0  0  0  0  0  0  0  0  0  0
   -2.1221   -1.7128    0.7140 C   0  0  0  0  0  0  0  0  0  0  0  0
   -0.8685   -1.9712    1.5408 C   0  0  2  0  0  0  0  0  0  0  0  0
   -1.1697   -3.0124    2.5292 N   0  0  0  0  0  0  0  0  0  0  0  0
   -0.3884   -0.6659    2.2112 C   0  0  1  0  0  0  0  0  0  0  0  0
    0.7758   -1.0296    2.9688 O   0  0  0  0  0  0  0  0  0  0  0  0
    1.3377   -0.0319    3.8147 C   0  0  1  0  0  0  0  0  0  0  0  0
    0.3114    0.7221    4.4541 O   0  0  0  0  0  0  0  0  0  0  0  0
   -0.4636    0.0303    5.4309 C   0  0  2  0  0  0  0  0  0  0  0  0
   -1.5094    0.9932    6.0087 C   0  0  0  0  0  0  0  0  0  0  0  0
   -1.8283    0.6741    7.3929 N   0  0  0  0  0  0  0  0  0  0  0  0
    0.4330   -0.5065    6.5621 C   0  0  1  0  0  0  0  0  0  0  0  0
   -0.3504   -1.2386    7.4878 O   0  0  0  0  0  0  0  0  0  0  0  0
    1.5057   -1.4167    5.9513 C   0  0  2  0  0  0  0  0  0  0  0  0
    2.4002   -1.8568    6.9559 O   0  0  0  0  0  0  0  0  0  0  0  0
    2.2710   -0.6834    4.8415 C   0  0  1  0  0  0  0  0  0  0  0  0
    3.2063   -1.6041    4.1797 N   0  0  0  0  0  0  0  0  0  0  0  0
    0.8004    3.9226    2.0126 C   0  0  2  0  0  0  0  0  0  0  0  0
    0.4141    4.9903    1.1675 O   0  0  0  0  0  0  0  0  0  0  0  0
    2.2216    4.0675    2.5544 C   0  0  2  0  0  0  0  0  0  0  0  0
    2.5977    5.4055    2.8137 O   0  0  0  0  0  0  0  0  0  0  0  0
  2  1  1  0  0  0  0
  3  2  1  1  0  0  0
  3 30  1  0  0  0  0
  4  5  1  0  0  0  0
  4  3  1  0  0  0  0
  5 28  1  0  0  0  0
  5  6  1  1  0  0  0
  7  6  1  1  0  0  0
  8  7  1  0  0  0  0
  8  9  1  6  0  0  0
 10 11  1  1  0  0  0
 10  8  1  0  0  0  0
 12 10  1  0  0  0  0
 13 12  1  0  0  0  0
 13 15  1  0  0  0  0
 13 14  1  1  0  0  0
 15  7  1  0  0  0  0
 15 16  1  6  0  0  0
 17 16  1  1  0  0  0
 18 17  1  0  0  0  0
 19 20  1  1  0  0  0
 19 18  1  0  0  0  0
 20 21  1  0  0  0  0
 22 24  1  0  0  0  0
 22 19  1  0  0  0  0
 22 23  1  1  0  0  0
 24 25  1  1  0  0  0
 24 26  1  0  0  0  0
 26 17  1  0  0  0  0
 26 27  1  6  0  0  0
 28 29  1  6  0  0  0
 28 30  1  0  0  0  0
 30 31  1  6  0  0  0
M  END
>  <CHROM.1>
-41.93215859,23.13348855,-74.11184644,-79.97921971,58.22191451,162.61980347
63.40627177,66.07195344,39.51283349,-149.43906156,-32.88090554,-169.82626288
174.72979989,-151.32982732,39.08035356,62.90255974,0.58752408,0.67249959
2.91889363,-1.37843182,0.76799677,2.10077725

>  <Name>
lig.pdb

>  <RI>
0

>  <Rbt.Current_Directory>
/home/itssahil/PROJECTS/Mol_Feturizer/New_Systems/rnas/2n0j

>  <Rbt.Executable>
rbdock ($Id: //depot/dev/client3/rdock/2013.1/src/exe/rbdock.cxx#4 $)

>  <Rbt.Library>
libRbt.so (2013.1, Build901 2013/11/27)

>  <Rbt.Parameter_File>
/export/apps/rDock/src/rDock_2013.1_src/data/scripts/dock_solv.prm

>  <Rbt.Receptor>
prm/blind_docking_40.prm

>  <SCORE>
-28.965

>  <SCORE.INTER>
-33.3291

>  <SCORE.INTER.CONST>
1

>  <SCORE.INTER.POLAR>
-3.63937

>  <SCORE.INTER.ROT>
6

>  <SCORE.INTER.SOLV>
22.2601

>  <SCORE.INTER.VDW>
-25.1082

>  <SCORE.INTER.norm>
-1.07513

>  <SCORE.INTRA>
2.60642

>  <SCORE.INTRA.DIHEDRAL>
-8.69162

>  <SCORE.INTRA.DIHEDRAL.0>
28.0161

>  <SCORE.INTRA.POLAR>
0.183255

>  <SCORE.INTRA.POLAR.0>
-1.05798

>  <SCORE.INTRA.REPUL>
0.0600549

>  <SCORE.INTRA.REPUL.0>
0

>  <SCORE.INTRA.SOLV>
0.36133

>  <SCORE.INTRA.SOLV.lig_0>
-42.5945

>  <SCORE.INTRA.VDW>
5.84823

>  <SCORE.INTRA.VDW.0>
-5.13869

>  <SCORE.INTRA.norm>
0.0840781

>  <SCORE.RESTR>
1.75764

>  <SCORE.RESTR.CAVITY>
1.75764

>  <SCORE.RESTR.norm>
0.0566979

>  <SCORE.SYSTEM>
0

>  <SCORE.SYSTEM.CONST>
0

>  <SCORE.SYSTEM.DIHEDRAL>
0

>  <SCORE.SYSTEM.SOLV>
0

>  <SCORE.SYSTEM.norm>
0

>  <SCORE.heavy>
31

>  <SCORE.norm>
-0.934356

>  <RMSD>
6.561

$$$$
lig.pdb
 OpenBabel11021811453D
libRbt.so/2013.1/901 2013/11/27
 31 33  0  0  0  0  0  0  0  0999 V2000
   -0.1543   -0.5214   -0.5269 O   0  0  0  0  0  0  0  0  0  0  0  0
   -0.4839   -0.5517    0.8481 C   0  0  0  0  0  0  0  0  0  0  0  0
    0.7732   -0.5095    1.7275 C   0  0  1  0  0  0  0  0  0  0  0  0
    1.4467    0.7351    1.6256 O   0  0  0  0  0  0  0  0  0  0  0  0
    2.1877    0.9772    2.8176 C   0  0  1  0  0  0  0  0  0  0  0  0
    1.9428    2.3009    3.2778 O   0  0  0  0  0  0  0  0  0  0  0  0
    2.2089    3.3604    2.3725 C   0  0  2  0  0  0  0  0  0  0  0  0
    3.7347    3.4937    2.2442 C   0  0  1  0  0  0  0  0  0  0  0  0
    4.2565    2.3691    1.5540 O   0  0  0  0  0  0  0  0  0  0  0  0
    4.1922    4.7485    1.4851 C   0  0  2  0  0  0  0  0  0  0  0  0
    5.6590    4.8606    1.4855 N   0  0  0  0  0  0  0  0  0  0  0  0
    3.5884    5.9895    2.1321 C   0  0  0  0  0  0  0  0  0  0  0  0
    2.0706    5.8601    2.1726 C   0  0  2  0  0  0  0  0  0  0  0  0
    1.5144    7.0890    2.7487 N   0  0  0  0  0  0  0  0  0  0  0  0
    1.6592    4.6106    2.9808 C   0  0  1  0  0  0  0  0  0  0  0  0
    0.2235    4.5998    2.9659 O   0  0  0  0  0  0  0  0  0  0  0  0
   -0.4398    4.7238    4.2194 C   0  0  1  0  0  0  0  0  0  0  0  0
   -1.0936    5.9859    4.3202 O   0  0  0  0  0  0  0  0  0  0  0  0
   -2.2187    6.1830    3.4666 C   0  0  2  0  0  0  0  0  0  0  0  0
   -2.7899    7.5857    3.7131 C   0  0  0  0  0  0  0  0  0  0  0  0
   -3.1256    7.7916    5.1148 N   0  0  0  0  0  0  0  0  0  0  0  0
   -3.3031    5.1232    3.7357 C   0  0  1  0  0  0  0  0  0  0  0  0
   -4.3832    5.3039    2.8372 O   0  0  0  0  0  0  0  0  0  0  0  0
   -2.6904    3.7305    3.5418 C   0  0  2  0  0  0  0  0  0  0  0  0
   -3.6389    2.7319    3.8673 O   0  0  0  0  0  0  0  0  0  0  0  0
   -1.4302    3.5682    4.4025 C   0  0  1  0  0  0  0  0  0  0  0  0
   -0.7828    2.2810    4.1122 N   0  0  0  0  0  0  0  0  0  0  0  0
    1.6891   -0.0305    3.8636 C   0  0  2  0  0  0  0  0  0  0  0  0
    2.6865   -1.0055    4.1048 O   0  0  0  0  0  0  0  0  0  0  0  0
    0.4320   -0.6037    3.2112 C   0  0  2  0  0  0  0  0  0  0  0  0
    0.1152   -1.9131    3.6404 O   0  0  0  0  0  0  0  0  0  0  0  0
  2  1  1  0  0  0  0
  3  2  1  6  0  0  0
  3 30  1  0  0  0  0
  4  5  1  0  0  0  0
  4  3  1  0  0  0  0
  5 28  1  0  0  0  0
  5  6  1  1  0  0  0
  7  6  1  1  0  0  0
  8  7  1  0  0  0  0
  8  9  1  6  0  0  0
 10 11  1  1  0  0  0
 10  8  1  0  0  0  0
 12 10  1  0  0  0  0
 13 12  1  0  0  0  0
 13 15  1  0  0  0  0
 13 14  1  1  0  0  0
 15  7  1  0  0  0  0
 15 16  1  6  0  0  0
 17 16  1  6  0  0  0
 18 17  1  0  0  0  0
 19 20  1  1  0  0  0
 19 18  1  0  0  0  0
 20 21  1  0  0  0  0
 22 24  1  0  0  0  0
 22 19  1  0  0  0  0
 22 23  1  6  0  0  0
 24 25  1  1  0  0  0
 24 26  1  0  0  0  0
 26 17  1  0  0  0  0
 26 27  1  6  0  0  0
 28 29  1  6  0  0  0
 28 30  1  0  0  0  0
 30 31  1  1  0  0  0
M  END
>  <CHROM.1>
172.49738043,67.17489763,-56.31630936,-72.42449603,-149.53569814,-177.19938029
115.26981121,121.91862892,110.40401505,-55.75975549,42.63135162,48.45682064
73.52960679,138.09854320,178.51168163,-172.41901901,0.42905469,3.23308314
2.90572187,0.89369356,-0.24000938,-3.05079674

>  <Name>
lig.pdb

>  <RI>
0

>  <Rbt.Current_Directory>
/home/itssahil/PROJECTS/Mol_Feturizer/New_Systems/rnas/2n0j

>  <Rbt.Executable>
rbdock ($Id: //depot/dev/client3/rdock/2013.1/src/exe/rbdock.cxx#4 $)

>  <Rbt.Library>
libRbt.so (2013.1, Build901 2013/11/27)

>  <Rbt.Parameter_File>
/export/apps/rDock/src/rDock_2013.1_src/data/scripts/dock_solv.prm

>  <Rbt.Receptor>
prm/pocket_docking_5.prm

>  <SCORE>
-43.5495

>  <SCORE.INTER>
-44.1826

>  <SCORE.INTER.CONST>
1

>  <SCORE.INTER.POLAR>
-3.91503

>  <SCORE.INTER.ROT>
6

>  <SCORE.INTER.SOLV>
21.0804

>  <SCORE.INTER.VDW>
-31.0318

>  <SCORE.INTER.norm>
-1.42525

>  <SCORE.INTRA>
0.633176

>  <SCORE.INTRA.DIHEDRAL>
0.0516662

>  <SCORE.INTRA.DIHEDRAL.0>
28.0161

>  <SCORE.INTRA.POLAR>
-0.297909

>  <SCORE.INTRA.POLAR.0>
-1.05798

>  <SCORE.INTRA.REPUL>
0

>  <SCORE.INTRA.REPUL.0>
0

>  <SCORE.INTRA.SOLV>
0.585977

>  <SCORE.INTRA.SOLV.lig_0>
-42.5945

>  <SCORE.INTRA.VDW>
1.32725

>  <SCORE.INTRA.VDW.0>
-5.13869

>  <SCORE.INTRA.norm>
0.020425

>  <SCORE.RESTR>
0

>  <SCORE.RESTR.CAVITY>
0

>  <SCORE.RESTR.norm>
0

>  <SCORE.SYSTEM>
0

>  <SCORE.SYSTEM.CONST>
0

>  <SCORE.SYSTEM.DIHEDRAL>
0

>  <SCORE.SYSTEM.SOLV>
0

>  <SCORE.SYSTEM.norm>
0

>  <SCORE.heavy>
31

>  <SCORE.norm>
-1.40482

>  <RMSD>
6.565

$$$$
lig.pdb
 OpenBabel11021811453D
libRbt.so/2013.1/901 2013/11/27
 31 33  0  0  0  0  0  0  0  0999 V2000
    4.0591    1.3893    2.4961 O   0  0  0  0  0  0  0  0  0  0  0  0
    4.2205    2.5997    1.7826 C   0  0  0  0  0  0  0  0  0  0  0  0
    2.8658    3.2024    1.3867 C   0  0  1  0  0  0  0  0  0  0  0  0
    1.9426    2.2043    0.9811 O   0  0  0  0  0  0  0  0  0  0  0  0
    0.6128    2.6636    1.2038 C   0  0  1  0  0  0  0  0  0  0  0  0
   -0.1419    1.6548    1.8645 O   0  0  0  0  0  0  0  0  0  0  0  0
   -0.3379    0.4335    1.1696 C   0  0  2  0  0  0  0  0  0  0  0  0
   -1.6006    0.5841    0.3064 C   0  0  1  0  0  0  0  0  0  0  0  0
   -1.3506    1.4962   -0.7514 O   0  0  0  0  0  0  0  0  0  0  0  0
   -2.0865   -0.7284   -0.3271 C   0  0  2  0  0  0  0  0  0  0  0  0
   -3.3482   -0.5275   -1.0563 N   0  0  0  0  0  0  0  0  0  0  0  0
   -2.2895   -1.7789    0.7584 C   0  0  0  0  0  0  0  0  0  0  0  0
   -0.9970   -1.9608    1.5446 C   0  0  2  0  0  0  0  0  0  0  0  0
   -1.2050   -3.0140    2.5441 N   0  0  0  0  0  0  0  0  0  0  0  0
   -0.5725   -0.6273    2.1967 C   0  0  1  0  0  0  0  0  0  0  0  0
    0.6347   -0.9197    2.9169 O   0  0  0  0  0  0  0  0  0  0  0  0
    1.0636    0.0363    3.8806 C   0  0  1  0  0  0  0  0  0  0  0  0
   -0.0398    0.5030    4.6522 O   0  0  0  0  0  0  0  0  0  0  0  0
   -0.6312   -0.4415    5.5419 C   0  0  2  0  0  0  0  0  0  0  0  0
   -1.7927    0.2338    6.2832 C   0  0  0  0  0  0  0  0  0  0  0  0
   -2.3641   -0.6399    7.2981 N   0  0  0  0  0  0  0  0  0  0  0  0
    0.4040   -0.9612    6.5568 C   0  0  1  0  0  0  0  0  0  0  0  0
   -0.1915   -1.9395    7.3903 O   0  0  0  0  0  0  0  0  0  0  0  0
    1.5813   -1.5758    5.7895 C   0  0  2  0  0  0  0  0  0  0  0  0
    2.5910   -1.9843    6.6931 O   0  0  0  0  0  0  0  0  0  0  0  0
    2.1488   -0.5743    4.7746 C   0  0  1  0  0  0  0  0  0  0  0  0
    3.1898   -1.2164    3.9595 N   0  0  0  0  0  0  0  0  0  0  0  0
    0.7153    3.9020    2.1060 C   0  0  2  0  0  0  0  0  0  0  0  0
    0.3980    5.0646    1.3635 O   0  0  0  0  0  0  0  0  0  0  0  0
    2.1698    3.8636    2.5721 C   0  0  2  0  0  0  0  0  0  0  0  0
    2.6943    5.1340    2.9039 O   0  0  0  0  0  0  0  0  0  0  0  0
  2  1  1  0  0  0  0
  3  2  1  1  0  0  0
  3 30  1  0  0  0  0
  4  5  1  0  0  0  0
  4  3  1  0  0  0  0
  5 28  1  0  0  0  0
  5  6  1  1  0  0  0
  7  6  1  1  0  0  0
  8  7  1  0  0  0  0
  8  9  1  6  0  0  0
 10 11  1  1  0  0  0
 10  8  1  0  0  0  0
 12 10  1  0  0  0  0
 13 12  1  0  0  0  0
 13 15  1  0  0  0  0
 13 14  1  1  0  0  0
 15  7  1  0  0  0  0
 15 16  1  6  0  0  0
 17 16  1  6  0  0  0
 18 17  1  0  0  0  0
 19 20  1  1  0  0  0
 19 18  1  0  0  0  0
 20 21  1  0  0  0  0
 22 24  1  0  0  0  0
 22 19  1  0  0  0  0
 22 23  1  1  0  0  0
 24 25  1  1  0  0  0
 24 26  1  0  0  0  0
 26 17  1  0  0  0  0
 26 27  1  6  0  0  0
 28 29  1  6  0  0  0
 28 30  1  0  0  0  0
 30 31  1  6  0  0  0
M  END
>  <CHROM.1>
177.42695738,-39.36148688,-63.01139522,-87.74917230,176.71825897,69.26447883
-60.71356228,74.53870024,43.17233086,-174.76568101,-83.09573417,72.08048617
67.61925686,69.01101283,-177.65482390,-68.38897036,0.40486901,0.50734975
2.95304058,-1.39418626,0.69525000,2.17597838

>  <Name>
lig.pdb

>  <RI>
0

>  <Rbt.Current_Directory>
/home/itssahil/PROJECTS/Mol_Feturizer/New_Systems/rnas/2n0j

>  <Rbt.Executable>
rbdock ($Id: //depot/dev/client3/rdock/2013.1/src/exe/rbdock.cxx#4 $)

>  <Rbt.Library>
libRbt.so (2013.1, Build901 2013/11/27)

>  <Rbt.Parameter_File>
/export/apps/rDock/src/rDock_2013.1_src/data/scripts/dock_solv.prm

>  <Rbt.Receptor>
prm/blind_docking_40.prm

>  <SCORE>
-40.4374

>  <SCORE.INTER>
-34.4478

>  <SCORE.INTER.CONST>
1

>  <SCORE.INTER.POLAR>
-4.53793

>  <SCORE.INTER.ROT>
6

>  <SCORE.INTER.SOLV>
23.6522

>  <SCORE.INTER.VDW>
-23.3228

>  <SCORE.INTER.norm>
-1.11122

>  <SCORE.INTRA>
-7.88991

>  <SCORE.INTRA.DIHEDRAL>
-17.5963

>  <SCORE.INTRA.DIHEDRAL.0>
28.0161

>  <SCORE.INTRA.POLAR>
-0.673548

>  <SCORE.INTRA.POLAR.0>
-1.05798

>  <SCORE.INTRA.REPUL>
0

>  <SCORE.INTRA.REPUL.0>
0

>  <SCORE.INTRA.SOLV>
1.57397

>  <SCORE.INTRA.SOLV.lig_0>
-42.5945

>  <SCORE.INTRA.VDW>
2.41131

>  <SCORE.INTRA.VDW.0>
-5.13869

>  <SCORE.INTRA.norm>
-0.254513

>  <SCORE.RESTR>
1.90028

>  <SCORE.RESTR.CAVITY>
1.90028

>  <SCORE.RESTR.norm>
0.0612993

>  <SCORE.SYSTEM>
0

>  <SCORE.SYSTEM.CONST>
0

>  <SCORE.SYSTEM.DIHEDRAL>
0

>  <SCORE.SYSTEM.SOLV>
0

>  <SCORE.SYSTEM.norm>
0

>  <SCORE.heavy>
31

>  <SCORE.norm>
-1.30443

>  <RMSD>
6.568

$$$$
lig.pdb
 OpenBabel11021811453D
libRbt.so/2013.1/901 2013/11/27
 31 33  0  0  0  0  0  0  0  0999 V2000
   -4.8609   -1.1043   -1.8431 O   0  0  0  0  0  0  0  0  0  0  0  0
   -4.6319    0.1168   -1.1675 C   0  0  0  0  0  0  0  0  0  0  0  0
   -3.1584    0.2682   -0.7660 C   0  0  1  0  0  0  0  0  0  0  0  0
   -2.8929    1.5442   -0.2053 O   0  0  0  0  0  0  0  0  0  0  0  0
   -1.7718    1.4587    0.6691 C   0  0  1  0  0  0  0  0  0  0  0  0
   -2.0702    2.1046    1.9011 O   0  0  0  0  0  0  0  0  0  0  0  0
   -1.0604    2.9290    2.4608 C   0  0  2  0  0  0  0  0  0  0  0  0
   -0.8256    4.1016    1.4953 C   0  0  1  0  0  0  0  0  0  0  0  0
   -1.9549    4.9607    1.5030 O   0  0  0  0  0  0  0  0  0  0  0  0
    0.4028    4.9584    1.8375 C   0  0  2  0  0  0  0  0  0  0  0  0
    0.6212    5.9985    0.8204 N   0  0  0  0  0  0  0  0  0  0  0  0
    1.6388    4.0714    1.9296 C   0  0  0  0  0  0  0  0  0  0  0  0
    1.4024    2.9664    2.9518 C   0  0  2  0  0  0  0  0  0  0  0  0
    2.6250    2.1630    3.0594 N   0  0  0  0  0  0  0  0  0  0  0  0
    0.1862    2.1076    2.5433 C   0  0  1  0  0  0  0  0  0  0  0  0
    0.0698    1.0996    3.5591 O   0  0  0  0  0  0  0  0  0  0  0  0
    0.4747   -0.2206    3.2131 C   0  0  1  0  0  0  0  0  0  0  0  0
    1.8806   -0.3771    3.3851 O   0  0  0  0  0  0  0  0  0  0  0  0
    2.3576   -0.3562    4.7288 C   0  0  2  0  0  0  0  0  0  0  0  0
    3.8811   -0.5389    4.7183 C   0  0  0  0  0  0  0  0  0  0  0  0
    4.4432   -0.2975    3.3971 N   0  0  0  0  0  0  0  0  0  0  0  0
    1.7034   -1.4755    5.5600 C   0  0  1  0  0  0  0  0  0  0  0  0
    2.1480   -1.3974    6.9027 O   0  0  0  0  0  0  0  0  0  0  0  0
    0.1801   -1.3054    5.5039 C   0  0  2  0  0  0  0  0  0  0  0  0
   -0.4541   -2.3706    6.1865 O   0  0  0  0  0  0  0  0  0  0  0  0
   -0.3049   -1.2418    4.0493 C   0  0  1  0  0  0  0  0  0  0  0  0
   -1.7453   -0.9514    4.0094 N   0  0  0  0  0  0  0  0  0  0  0  0
   -1.5170   -0.0346    0.9208 C   0  0  2  0  0  0  0  0  0  0  0  0
   -0.3297   -0.4366    0.2633 O   0  0  0  0  0  0  0  0  0  0  0  0
   -2.7726   -0.6942    0.3528 C   0  0  2  0  0  0  0  0  0  0  0  0
   -2.5686   -2.0231   -0.0847 O   0  0  0  0  0  0  0  0  0  0  0  0
  2  1  1  0  0  0  0
  3  2  1  1  0  0  0
  3 30  1  0  0  0  0
  4  5  1  0  0  0  0
  4  3  1  0  0  0  0
  5 28  1  0  0  0  0
  5  6  1  1  0  0  0
  7  6  1  6  0  0  0
  8  7  1  0  0  0  0
  8  9  1  1  0  0  0
 10 11  1  6  0  0  0
 10  8  1  0  0  0  0
 12 10  1  0  0  0  0
 13 12  1  0  0  0  0
 13 15  1  0  0  0  0
 13 14  1  6  0  0  0
 15  7  1  0  0  0  0
 15 16  1  1  0  0  0
 17 16  1  1  0  0  0
 18 17  1  0  0  0  0
 19 20  1  6  0  0  0
 19 18  1  0  0  0  0
 20 21  1  0  0  0  0
 22 24  1  0  0  0  0
 22 19  1  0  0  0  0
 22 23  1  1  0  0  0
 24 25  1  6  0  0  0
 24 26  1  0  0  0  0
 26 17  1  0  0  0  0
 26 27  1  1  0  0  0
 28 29  1  6  0  0  0
 28 30  1  0  0  0  0
 30 31  1  6  0  0  0
M  END
>  <CHROM.1>
-60.76273769,174.25224082,-137.05754439,64.23636405,-75.35823244,163.03307624
30.72647911,133.32926489,84.58448963,16.39787879,-58.48276263,178.33695983
-68.56065607,-48.29301486,-64.08561310,-177.65372916,-0.28823131,0.81112212
2.36971347,2.63098001,-0.68480200,-0.39853742

>  <Name>
lig.pdb

>  <RI>
1.55206e+07

>  <Rbt.Current_Directory>
/home/itssahil/PROJECTS/Mol_Feturizer/New_Systems/rnas/2n0j

>  <Rbt.Executable>
rbdock ($Id: //depot/dev/client3/rdock/2013.1/src/exe/rbdock.cxx#4 $)

>  <Rbt.Library>
libRbt.so (2013.1, Build901 2013/11/27)

>  <Rbt.Parameter_File>
/export/apps/rDock/src/rDock_2013.1_src/data/scripts/dock_solv.prm

>  <Rbt.Receptor>
prm/blind_docking_80.prm

>  <SCORE>
-34.1809

>  <SCORE.INTER>
-43.949

>  <SCORE.INTER.CONST>
1

>  <SCORE.INTER.POLAR>
-5.903

>  <SCORE.INTER.ROT>
6

>  <SCORE.INTER.SOLV>
22.0737

>  <SCORE.INTER.VDW>
-24.5806

>  <SCORE.INTER.norm>
-1.41771

>  <SCORE.INTRA>
5.49258

>  <SCORE.INTRA.DIHEDRAL>
-4.02574

>  <SCORE.INTRA.DIHEDRAL.0>
28.0161

>  <SCORE.INTRA.POLAR>
0.84541

>  <SCORE.INTRA.POLAR.0>
-1.05798

>  <SCORE.INTRA.REPUL>
0

>  <SCORE.INTRA.REPUL.0>
0

>  <SCORE.INTRA.SOLV>
2.12806

>  <SCORE.INTRA.SOLV.lig_0>
-42.5945

>  <SCORE.INTRA.VDW>
3.56702

>  <SCORE.INTRA.VDW.0>
-5.13869

>  <SCORE.INTRA.norm>
0.17718

>  <SCORE.RESTR>
4.27549

>  <SCORE.RESTR.CAVITY>
4.27549

>  <SCORE.RESTR.norm>
0.137919

>  <SCORE.SYSTEM>
0

>  <SCORE.SYSTEM.CONST>
0

>  <SCORE.SYSTEM.DIHEDRAL>
0

>  <SCORE.SYSTEM.SOLV>
0

>  <SCORE.SYSTEM.norm>
0

>  <SCORE.heavy>
31

>  <SCORE.norm>
-1.10261

>  <RMSD>
6.571

$$$$
lig.pdb
 OpenBabel11021811453D
libRbt.so/2013.1/901 2013/11/27
 31 33  0  0  0  0  0  0  0  0999 V2000
    5.2337    3.2796    1.8983 O   0  0  0  0  0  0  0  0  0  0  0  0
    4.1899    2.3379    1.7450 C   0  0  0  0  0  0  0  0  0  0  0  0
    2.8617    3.0239    1.3979 C   0  0  1  0  0  0  0  0  0  0  0  0
    1.8815    2.0908    0.9717 O   0  0  0  0  0  0  0  0  0  0  0  0
    0.5811    2.6081    1.2367 C   0  0  1  0  0  0  0  0  0  0  0  0
   -0.2135    1.6139    1.8724 O   0  0  0  0  0  0  0  0  0  0  0  0
   -0.4142    0.3984    1.1688 C   0  0  2  0  0  0  0  0  0  0  0  0
   -1.6927    0.5496    0.3293 C   0  0  1  0  0  0  0  0  0  0  0  0
   -1.4667    1.4737   -0.7235 O   0  0  0  0  0  0  0  0  0  0  0  0
   -2.1816   -0.7596   -0.3087 C   0  0  2  0  0  0  0  0  0  0  0  0
   -3.4571   -0.5594   -1.0138 N   0  0  0  0  0  0  0  0  0  0  0  0
   -2.3593   -1.8220    0.7696 C   0  0  0  0  0  0  0  0  0  0  0  0
   -1.0521   -2.0035    1.5314 C   0  0  2  0  0  0  0  0  0  0  0  0
   -1.2362   -3.0679    2.5238 N   0  0  0  0  0  0  0  0  0  0  0  0
   -0.6244   -0.6739    2.1893 C   0  0  1  0  0  0  0  0  0  0  0  0
    0.5970   -0.9659    2.8854 O   0  0  0  0  0  0  0  0  0  0  0  0
    1.0605    0.0044    3.8183 C   0  0  1  0  0  0  0  0  0  0  0  0
   -0.0224    0.5213    4.5868 O   0  0  0  0  0  0  0  0  0  0  0  0
   -0.6297   -0.3824    5.5077 C   0  0  2  0  0  0  0  0  0  0  0  0
   -1.7656    0.3437    6.2408 C   0  0  0  0  0  0  0  0  0  0  0  0
   -2.3583   -0.4910    7.2760 N   0  0  0  0  0  0  0  0  0  0  0  0
    0.4014   -0.9014    6.5270 C   0  0  1  0  0  0  0  0  0  0  0  0
   -0.2114   -1.8403    7.3927 O   0  0  0  0  0  0  0  0  0  0  0  0
    1.5544   -1.5680    5.7662 C   0  0  2  0  0  0  0  0  0  0  0  0
    2.5619   -1.9784    6.6715 O   0  0  0  0  0  0  0  0  0  0  0  0
    2.1380   -0.6102    4.7188 C   0  0  1  0  0  0  0  0  0  0  0  0
    3.1536   -1.3020    3.9122 N   0  0  0  0  0  0  0  0  0  0  0  0
    0.7625    3.8034    2.1836 C   0  0  2  0  0  0  0  0  0  0  0  0
    0.4933    5.0088    1.4924 O   0  0  0  0  0  0  0  0  0  0  0  0
    2.2207    3.6727    2.6206 C   0  0  2  0  0  0  0  0  0  0  0  0
    2.8156    4.9007    2.9910 O   0  0  0  0  0  0  0  0  0  0  0  0
  2  1  1  0  0  0  0
  3  2  1  1  0  0  0
  3 30  1  0  0  0  0
  4  5  1  0  0  0  0
  4  3  1  0  0  0  0
  5 28  1  0  0  0  0
  5  6  1  1  0  0  0
  7  6  1  1  0  0  0
  8  7  1  0  0  0  0
  8  9  1  6  0  0  0
 10 11  1  1  0  0  0
 10  8  1  0  0  0  0
 12 10  1  0  0  0  0
 13 12  1  0  0  0  0
 13 15  1  0  0  0  0
 13 14  1  1  0  0  0
 15  7  1  0  0  0  0
 15 16  1  6  0  0  0
 17 16  1  6  0  0  0
 18 17  1  0  0  0  0
 19 20  1  1  0  0  0
 19 18  1  0  0  0  0
 20 21  1  0  0  0  0
 22 24  1  0  0  0  0
 22 19  1  0  0  0  0
 22 23  1  1  0  0  0
 24 25  1  1  0  0  0
 24 26  1  0  0  0  0
 26 17  1  0  0  0  0
 26 27  1  6  0  0  0
 28 29  1  6  0  0  0
 28 30  1  0  0  0  0
 30 31  1  6  0  0  0
M  END
>  <CHROM.1>
171.58569729,167.78707606,-59.16889434,-90.87746011,67.18124881,175.47587502
64.48805511,72.47765692,41.88769430,-175.32026109,-79.11448711,70.04968835
67.67009414,-162.03584925,176.78226670,61.70134378,0.42692544,0.53848799
2.92959353,-1.16273193,0.66643834,2.14175579

>  <Name>
lig.pdb

>  <RI>
0

>  <Rbt.Current_Directory>
/home/itssahil/PROJECTS/Mol_Feturizer/New_Systems/rnas/2n0j

>  <Rbt.Executable>
rbdock ($Id: //depot/dev/client3/rdock/2013.1/src/exe/rbdock.cxx#4 $)

>  <Rbt.Library>
libRbt.so (2013.1, Build901 2013/11/27)

>  <Rbt.Parameter_File>
/export/apps/rDock/src/rDock_2013.1_src/data/scripts/dock_solv.prm

>  <Rbt.Receptor>
prm/blind_docking_40.prm

>  <SCORE>
-37.7729

>  <SCORE.INTER>
-34.6323

>  <SCORE.INTER.CONST>
1

>  <SCORE.INTER.POLAR>
-4.25344

>  <SCORE.INTER.ROT>
6

>  <SCORE.INTER.SOLV>
22.9715

>  <SCORE.INTER.VDW>
-24.1672

>  <SCORE.INTER.norm>
-1.11717

>  <SCORE.INTRA>
-5.44248

>  <SCORE.INTRA.DIHEDRAL>
-17.9568

>  <SCORE.INTRA.DIHEDRAL.0>
28.0161

>  <SCORE.INTRA.POLAR>
0.286685

>  <SCORE.INTRA.POLAR.0>
-1.05798

>  <SCORE.INTRA.REPUL>
0

>  <SCORE.INTRA.REPUL.0>
0

>  <SCORE.INTRA.SOLV>
0.57038

>  <SCORE.INTRA.SOLV.lig_0>
-42.5945

>  <SCORE.INTRA.VDW>
2.27599

>  <SCORE.INTRA.VDW.0>
-5.13869

>  <SCORE.INTRA.norm>
-0.175564

>  <SCORE.RESTR>
2.3019

>  <SCORE.RESTR.CAVITY>
2.3019

>  <SCORE.RESTR.norm>
0.0742549

>  <SCORE.SYSTEM>
0

>  <SCORE.SYSTEM.CONST>
0

>  <SCORE.SYSTEM.DIHEDRAL>
0

>  <SCORE.SYSTEM.SOLV>
0

>  <SCORE.SYSTEM.norm>
0

>  <SCORE.heavy>
31

>  <SCORE.norm>
-1.21848

>  <RMSD>
6.576

$$$$
lig.pdb
 OpenBabel11021811453D
libRbt.so/2013.1/901 2013/11/27
 31 33  0  0  0  0  0  0  0  0999 V2000
    1.3724    1.4695   -1.0246 O   0  0  0  0  0  0  0  0  0  0  0  0
    0.0786    1.0374   -0.6512 C   0  0  0  0  0  0  0  0  0  0  0  0
    0.0061    0.7128    0.8470 C   0  0  1  0  0  0  0  0  0  0  0  0
    0.9184    1.4951    1.6010 O   0  0  0  0  0  0  0  0  0  0  0  0
    0.4412    1.6327    2.9360 C   0  0  1  0  0  0  0  0  0  0  0  0
    0.5146    2.9957    3.3368 O   0  0  0  0  0  0  0  0  0  0  0  0
    0.2922    3.9772    2.3368 C   0  0  2  0  0  0  0  0  0  0  0  0
    1.6632    4.5108    1.8921 C   0  0  1  0  0  0  0  0  0  0  0  0
    2.3591    3.5028    1.1758 O   0  0  0  0  0  0  0  0  0  0  0  0
    1.5894    5.7482    0.9846 C   0  0  2  0  0  0  0  0  0  0  0  0
    2.9343    6.2599    0.6789 N   0  0  0  0  0  0  0  0  0  0  0  0
    0.7748    6.8396    1.6688 C   0  0  0  0  0  0  0  0  0  0  0  0
   -0.6056    6.3020    2.0258 C   0  0  2  0  0  0  0  0  0  0  0  0
   -1.3848    7.3871    2.6318 N   0  0  0  0  0  0  0  0  0  0  0  0
   -0.4814    5.0881    2.9716 C   0  0  1  0  0  0  0  0  0  0  0  0
   -1.8293    4.6800    3.2510 O   0  0  0  0  0  0  0  0  0  0  0  0
   -2.0061    3.6138    4.1776 C   0  0  1  0  0  0  0  0  0  0  0  0
   -1.5965    4.0092    5.4839 O   0  0  0  0  0  0  0  0  0  0  0  0
   -2.4090    4.9865    6.1305 C   0  0  2  0  0  0  0  0  0  0  0  0
   -1.8202    5.2845    7.5159 C   0  0  0  0  0  0  0  0  0  0  0  0
   -2.5404    6.3569    8.1875 N   0  0  0  0  0  0  0  0  0  0  0  0
   -3.8579    4.4854    6.2760 C   0  0  1  0  0  0  0  0  0  0  0  0
   -4.6569    5.4948    6.8669 O   0  0  0  0  0  0  0  0  0  0  0  0
   -4.4013    4.1373    4.8846 C   0  0  2  0  0  0  0  0  0  0  0  0
   -5.7022    3.5905    4.9929 O   0  0  0  0  0  0  0  0  0  0  0  0
   -3.4677    3.1517    4.1691 C   0  0  1  0  0  0  0  0  0  0  0  0
   -3.9309    2.9259    2.7925 N   0  0  0  0  0  0  0  0  0  0  0  0
   -1.0251    1.1765    2.9334 C   0  0  2  0  0  0  0  0  0  0  0  0
   -1.1443   -0.0608    3.6104 O   0  0  0  0  0  0  0  0  0  0  0  0
   -1.3488    1.0811    1.4432 C   0  0  2  0  0  0  0  0  0  0  0  0
   -2.3739    0.1551    1.1421 O   0  0  0  0  0  0  0  0  0  0  0  0
  2  1  1  0  0  0  0
  3  2  1  6  0  0  0
  3 30  1  0  0  0  0
  4  5  1  0  0  0  0
  4  3  1  0  0  0  0
  5 28  1  0  0  0  0
  5  6  1  6  0  0  0
  7  6  1  1  0  0  0
  8  7  1  0  0  0  0
  8  9  1  6  0  0  0
 10 11  1  1  0  0  0
 10  8  1  0  0  0  0
 12 10  1  0  0  0  0
 13 12  1  0  0  0  0
 13 15  1  0  0  0  0
 13 14  1  1  0  0  0
 15  7  1  0  0  0  0
 15 16  1  6  0  0  0
 17 16  1  6  0  0  0
 18 17  1  0  0  0  0
 19 20  1  1  0  0  0
 19 18  1  0  0  0  0
 20 21  1  0  0  0  0
 22 24  1  0  0  0  0
 22 19  1  0  0  0  0
 22 23  1  6  0  0  0
 24 25  1  1  0  0  0
 24 26  1  0  0  0  0
 26 17  1  0  0  0  0
 26 27  1  6  0  0  0
 28 29  1  6  0  0  0
 28 30  1  0  0  0  0
 30 31  1  1  0  0  0
M  END
>  <CHROM.1>
-38.44480246,29.45874782,33.74701805,-100.76599862,-46.33474187,-54.70631498
-85.64340894,62.89181700,66.54117629,175.29373826,53.22574042,75.74458810
174.56238502,45.96452860,61.80305128,-178.11344006,-1.10420155,3.68132816
3.14176743,0.65807466,-0.68566796,-2.66285283

>  <Name>
lig.pdb

>  <RI>
3.50357e+07

>  <Rbt.Current_Directory>
/home/itssahil/PROJECTS/Mol_Feturizer/New_Systems/rnas/2n0j

>  <Rbt.Executable>
rbdock ($Id: //depot/dev/client3/rdock/2013.1/src/exe/rbdock.cxx#4 $)

>  <Rbt.Library>
libRbt.so (2013.1, Build901 2013/11/27)

>  <Rbt.Parameter_File>
/export/apps/rDock/src/rDock_2013.1_src/data/scripts/dock_solv.prm

>  <Rbt.Receptor>
prm/pocket_docking_3.prm

>  <SCORE>
-37.576

>  <SCORE.INTER>
-33.2844

>  <SCORE.INTER.CONST>
1

>  <SCORE.INTER.POLAR>
-3.70755

>  <SCORE.INTER.ROT>
6

>  <SCORE.INTER.SOLV>
16.4909

>  <SCORE.INTER.VDW>
-22.9281

>  <SCORE.INTER.norm>
-1.07369

>  <SCORE.INTRA>
-4.31468

>  <SCORE.INTRA.DIHEDRAL>
-9.9764

>  <SCORE.INTRA.DIHEDRAL.0>
28.0161

>  <SCORE.INTRA.POLAR>
-1.13738

>  <SCORE.INTRA.POLAR.0>
-1.05798

>  <SCORE.INTRA.REPUL>
0

>  <SCORE.INTRA.REPUL.0>
0

>  <SCORE.INTRA.SOLV>
2.32265

>  <SCORE.INTRA.SOLV.lig_0>
-42.5945

>  <SCORE.INTRA.VDW>
3.3793

>  <SCORE.INTRA.VDW.0>
-5.13869

>  <SCORE.INTRA.norm>
-0.139183

>  <SCORE.RESTR>
0.0230594

>  <SCORE.RESTR.CAVITY>
0.0230594

>  <SCORE.RESTR.norm>
0.000743851

>  <SCORE.SYSTEM>
0

>  <SCORE.SYSTEM.CONST>
0

>  <SCORE.SYSTEM.DIHEDRAL>
0

>  <SCORE.SYSTEM.SOLV>
0

>  <SCORE.SYSTEM.norm>
0

>  <SCORE.heavy>
31

>  <SCORE.norm>
-1.21213

>  <RMSD>
6.579

$$$$
lig.pdb
 OpenBabel11021811453D
libRbt.so/2013.1/901 2013/11/27
 31 33  0  0  0  0  0  0  0  0999 V2000
    5.1250    3.2838    2.3221 O   0  0  0  0  0  0  0  0  0  0  0  0
    4.2149    2.3582    1.7608 C   0  0  0  0  0  0  0  0  0  0  0  0
    2.8858    3.0313    1.3924 C   0  0  1  0  0  0  0  0  0  0  0  0
    1.9148    2.0863    0.9714 O   0  0  0  0  0  0  0  0  0  0  0  0
    0.6092    2.5995    1.2177 C   0  0  1  0  0  0  0  0  0  0  0  0
   -0.1850    1.6098    1.8608 O   0  0  0  0  0  0  0  0  0  0  0  0
   -0.3925    0.3924    1.1626 C   0  0  2  0  0  0  0  0  0  0  0  0
   -1.6632    0.5514    0.3128 C   0  0  1  0  0  0  0  0  0  0  0  0
   -1.4204    1.4672   -0.7435 O   0  0  0  0  0  0  0  0  0  0  0  0
   -2.1603   -0.7566   -0.3215 C   0  0  2  0  0  0  0  0  0  0  0  0
   -3.4285   -0.5479   -1.0371 N   0  0  0  0  0  0  0  0  0  0  0  0
   -2.3564   -1.8110    0.7614 C   0  0  0  0  0  0  0  0  0  0  0  0
   -1.0568   -2.0011    1.5339 C   0  0  2  0  0  0  0  0  0  0  0  0
   -1.2587   -3.0579    2.5309 N   0  0  0  0  0  0  0  0  0  0  0  0
   -0.6208   -0.6720    2.1875 C   0  0  1  0  0  0  0  0  0  0  0  0
    0.5924   -0.9720    2.8943 O   0  0  0  0  0  0  0  0  0  0  0  0
    1.0469   -0.0109    3.8411 C   0  0  1  0  0  0  0  0  0  0  0  0
   -0.0451    0.5074    4.5958 O   0  0  0  0  0  0  0  0  0  0  0  0
   -0.6724   -0.3988    5.5007 C   0  0  2  0  0  0  0  0  0  0  0  0
   -1.8154    0.3293    6.2205 C   0  0  0  0  0  0  0  0  0  0  0  0
   -2.9898   -0.5195    6.3618 N   0  0  0  0  0  0  0  0  0  0  0  0
    0.3392   -0.9310    6.5326 C   0  0  1  0  0  0  0  0  0  0  0  0
   -0.2930   -1.8720    7.3820 O   0  0  0  0  0  0  0  0  0  0  0  0
    1.5001   -1.5995    5.7857 C   0  0  2  0  0  0  0  0  0  0  0  0
    2.4906   -2.0222    6.7041 O   0  0  0  0  0  0  0  0  0  0  0  0
    2.1061   -0.6382    4.7544 C   0  0  1  0  0  0  0  0  0  0  0  0
    3.1303   -1.3308    3.9593 N   0  0  0  0  0  0  0  0  0  0  0  0
    0.7753    3.8093    2.1488 C   0  0  2  0  0  0  0  0  0  0  0  0
    0.5050    5.0031    1.4380 O   0  0  0  0  0  0  0  0  0  0  0  0
    2.2305    3.6937    2.6002 C   0  0  2  0  0  0  0  0  0  0  0  0
    2.8149    4.9305    2.9579 O   0  0  0  0  0  0  0  0  0  0  0  0
  2  1  1  0  0  0  0
  3  2  1  1  0  0  0
  3 30  1  0  0  0  0
  4  5  1  0  0  0  0
  4  3  1  0  0  0  0
  5 28  1  0  0  0  0
  5  6  1  1  0  0  0
  7  6  1  1  0  0  0
  8  7  1  0  0  0  0
  8  9  1  6  0  0  0
 10 11  1  1  0  0  0
 10  8  1  0  0  0  0
 12 10  1  0  0  0  0
 13 12  1  0  0  0  0
 13 15  1  0  0  0  0
 13 14  1  1  0  0  0
 15  7  1  0  0  0  0
 15 16  1  6  0  0  0
 17 16  1  6  0  0  0
 18 17  1  0  0  0  0
 19 20  1  1  0  0  0
 19 18  1  0  0  0  0
 20 21  1  0  0  0  0
 22 24  1  0  0  0  0
 22 19  1  0  0  0  0
 22 23  1  1  0  0  0
 24 25  1  1  0  0  0
 24 26  1  0  0  0  0
 26 17  1  0  0  0  0
 26 27  1  6  0  0  0
 28 29  1  6  0  0  0
 28 30  1  0  0  0  0
 30 31  1  6  0  0  0
M  END
>  <CHROM.1>
-60.99670691,-173.30768519,-60.27751840,-90.05783664,-175.83053258,-55.16061992
-176.93560955,73.47911124,41.47089147,139.37546352,-50.54996078,61.78786374
70.33913243,-43.43569772,-58.48066426,62.95325060,0.38960215,0.53425150,2.90164104
-1.07726597,0.65108510,2.16905194

>  <Name>
lig.pdb

>  <RI>
9.20816e+06

>  <Rbt.Current_Directory>
/home/itssahil/PROJECTS/Mol_Feturizer/New_Systems/rnas/2n0j

>  <Rbt.Executable>
rbdock ($Id: //depot/dev/client3/rdock/2013.1/src/exe/rbdock.cxx#4 $)

>  <Rbt.Library>
libRbt.so (2013.1, Build901 2013/11/27)

>  <Rbt.Parameter_File>
/export/apps/rDock/src/rDock_2013.1_src/data/scripts/dock_solv.prm

>  <Rbt.Receptor>
prm/blind_docking_100.prm

>  <SCORE>
-28.4944

>  <SCORE.INTER>
-28.4908

>  <SCORE.INTER.CONST>
1

>  <SCORE.INTER.POLAR>
-3.20284

>  <SCORE.INTER.ROT>
6

>  <SCORE.INTER.SOLV>
22.8626

>  <SCORE.INTER.VDW>
-23.5386

>  <SCORE.INTER.norm>
-0.919057

>  <SCORE.INTRA>
-3.07238

>  <SCORE.INTRA.DIHEDRAL>
-15.7882

>  <SCORE.INTRA.DIHEDRAL.0>
28.0161

>  <SCORE.INTRA.POLAR>
0.951875

>  <SCORE.INTRA.POLAR.0>
-1.05798

>  <SCORE.INTRA.REPUL>
0

>  <SCORE.INTRA.REPUL.0>
0

>  <SCORE.INTRA.SOLV>
0.206754

>  <SCORE.INTRA.SOLV.lig_0>
-42.5945

>  <SCORE.INTRA.VDW>
1.48198

>  <SCORE.INTRA.VDW.0>
-5.13869

>  <SCORE.INTRA.norm>
-0.0991091

>  <SCORE.RESTR>
3.06879

>  <SCORE.RESTR.CAVITY>
3.06879

>  <SCORE.RESTR.norm>
0.0989932

>  <SCORE.SYSTEM>
0

>  <SCORE.SYSTEM.CONST>
0

>  <SCORE.SYSTEM.DIHEDRAL>
0

>  <SCORE.SYSTEM.SOLV>
0

>  <SCORE.SYSTEM.norm>
0

>  <SCORE.heavy>
31

>  <SCORE.norm>
-0.919173

>  <RMSD>
6.580

$$$$
lig.pdb
 OpenBabel11021811453D
libRbt.so/2013.1/901 2013/11/27
 31 33  0  0  0  0  0  0  0  0999 V2000
   -1.1941    0.4559    0.4738 O   0  0  0  0  0  0  0  0  0  0  0  0
    0.0026   -0.2964    0.4282 C   0  0  0  0  0  0  0  0  0  0  0  0
    0.8868   -0.0190    1.6515 C   0  0  1  0  0  0  0  0  0  0  0  0
    1.1768    1.3629    1.7903 O   0  0  0  0  0  0  0  0  0  0  0  0
    1.4422    1.6611    3.1576 C   0  0  1  0  0  0  0  0  0  0  0  0
    0.7083    2.8145    3.5513 O   0  0  0  0  0  0  0  0  0  0  0  0
    0.6950    3.9114    2.6516 C   0  0  2  0  0  0  0  0  0  0  0  0
    2.0579    4.6148    2.7516 C   0  0  1  0  0  0  0  0  0  0  0  0
    3.0665    3.7838    2.1990 O   0  0  0  0  0  0  0  0  0  0  0  0
    2.1226    5.9624    2.0168 C   0  0  2  0  0  0  0  0  0  0  0  0
    3.4194    6.6216    2.2359 N   0  0  0  0  0  0  0  0  0  0  0  0
    1.0022    6.8708    2.5092 C   0  0  0  0  0  0  0  0  0  0  0  0
   -0.3410    6.1756    2.3235 C   0  0  2  0  0  0  0  0  0  0  0  0
   -1.4024    7.0921    2.7537 N   0  0  0  0  0  0  0  0  0  0  0  0
   -0.3735    4.8495    3.1136 C   0  0  1  0  0  0  0  0  0  0  0  0
   -1.6777    4.2961    2.8805 O   0  0  0  0  0  0  0  0  0  0  0  0
   -2.0133    3.1056    3.5853 C   0  0  1  0  0  0  0  0  0  0  0  0
   -2.0769    3.3518    4.9874 O   0  0  0  0  0  0  0  0  0  0  0  0
   -3.1541    4.1719    5.4352 C   0  0  2  0  0  0  0  0  0  0  0  0
   -3.0622    4.3244    6.9594 C   0  0  0  0  0  0  0  0  0  0  0  0
   -1.7822    4.8847    7.3682 N   0  0  0  0  0  0  0  0  0  0  0  0
   -4.5108    3.5512    5.0536 C   0  0  1  0  0  0  0  0  0  0  0  0
   -5.5615    4.4114    5.4566 O   0  0  0  0  0  0  0  0  0  0  0  0
   -4.5523    3.3534    3.5332 C   0  0  2  0  0  0  0  0  0  0  0  0
   -5.7527    2.7033    3.1596 O   0  0  0  0  0  0  0  0  0  0  0  0
   -3.3385    2.5432    3.0587 C   0  0  1  0  0  0  0  0  0  0  0  0
   -3.3226    2.4701    1.5907 N   0  0  0  0  0  0  0  0  0  0  0  0
    0.9729    0.4497    3.9762 C   0  0  2  0  0  0  0  0  0  0  0  0
    2.0935   -0.2468    4.4888 O   0  0  0  0  0  0  0  0  0  0  0  0
    0.1748   -0.3612    2.9564 C   0  0  2  0  0  0  0  0  0  0  0  0
    0.1352   -1.7465    3.2369 O   0  0  0  0  0  0  0  0  0  0  0  0
  2  1  1  0  0  0  0
  3  2  1  6  0  0  0
  3 30  1  0  0  0  0
  4  5  1  0  0  0  0
  4  3  1  0  0  0  0
  5 28  1  0  0  0  0
  5  6  1  1  0  0  0
  7  6  1  1  0  0  0
  8  7  1  0  0  0  0
  8  9  1  6  0  0  0
 10 11  1  1  0  0  0
 10  8  1  0  0  0  0
 12 10  1  0  0  0  0
 13 12  1  0  0  0  0
 13 15  1  0  0  0  0
 13 14  1  1  0  0  0
 15  7  1  0  0  0  0
 15 16  1  6  0  0  0
 17 16  1  6  0  0  0
 18 17  1  0  0  0  0
 19 20  1  1  0  0  0
 19 18  1  0  0  0  0
 20 21  1  0  0  0  0
 22 24  1  0  0  0  0
 22 19  1  0  0  0  0
 22 23  1  6  0  0  0
 24 25  1  1  0  0  0
 24 26  1  0  0  0  0
 26 17  1  0  0  0  0
 26 27  1  6  0  0  0
 28 29  1  6  0  0  0
 28 30  1  0  0  0  0
 30 31  1  1  0  0  0
M  END
>  <CHROM.1>
-177.01796968,-55.91305475,-43.88591383,-75.85392227,62.43345561,81.09981623
158.33629075,63.86110041,65.38019695,57.34218986,63.21066801,61.74058054
-62.50224934,-65.65222577,60.71520983,73.09594331,-0.78849747,3.12723312
3.26975768,0.42280981,-0.33687485,-2.96748463

>  <Name>
lig.pdb

>  <RI>
0

>  <Rbt.Current_Directory>
/home/itssahil/PROJECTS/Mol_Feturizer/New_Systems/rnas/2n0j

>  <Rbt.Executable>
rbdock ($Id: //depot/dev/client3/rdock/2013.1/src/exe/rbdock.cxx#4 $)

>  <Rbt.Library>
libRbt.so (2013.1, Build901 2013/11/27)

>  <Rbt.Parameter_File>
/export/apps/rDock/src/rDock_2013.1_src/data/scripts/dock_solv.prm

>  <Rbt.Receptor>
prm/pocket_docking_5.prm

>  <SCORE>
-45.449

>  <SCORE.INTER>
-37.2218

>  <SCORE.INTER.CONST>
1

>  <SCORE.INTER.POLAR>
-4.28926

>  <SCORE.INTER.ROT>
6

>  <SCORE.INTER.SOLV>
14.4829

>  <SCORE.INTER.VDW>
-22.9446

>  <SCORE.INTER.norm>
-1.2007

>  <SCORE.INTRA>
-8.22726

>  <SCORE.INTRA.DIHEDRAL>
-21.8531

>  <SCORE.INTRA.DIHEDRAL.0>
28.0161

>  <SCORE.INTRA.POLAR>
-0.0327752

>  <SCORE.INTRA.POLAR.0>
-1.05798

>  <SCORE.INTRA.REPUL>
0

>  <SCORE.INTRA.REPUL.0>
0

>  <SCORE.INTRA.SOLV>
0.580571

>  <SCORE.INTRA.SOLV.lig_0>
-42.5945

>  <SCORE.INTRA.VDW>
2.52044

>  <SCORE.INTRA.VDW.0>
-5.13869

>  <SCORE.INTRA.norm>
-0.265395

>  <SCORE.RESTR>
0

>  <SCORE.RESTR.CAVITY>
0

>  <SCORE.RESTR.norm>
0

>  <SCORE.SYSTEM>
0

>  <SCORE.SYSTEM.CONST>
0

>  <SCORE.SYSTEM.DIHEDRAL>
0

>  <SCORE.SYSTEM.SOLV>
0

>  <SCORE.SYSTEM.norm>
0

>  <SCORE.heavy>
31

>  <SCORE.norm>
-1.4661

>  <RMSD>
6.609

$$$$
lig.pdb
 OpenBabel11021811453D
libRbt.so/2013.1/901 2013/11/27
 31 33  0  0  0  0  0  0  0  0999 V2000
   -3.0217    0.4164   -0.3299 O   0  0  0  0  0  0  0  0  0  0  0  0
   -2.5207   -0.5844    0.5348 C   0  0  0  0  0  0  0  0  0  0  0  0
   -1.0097   -0.4309    0.7548 C   0  0  1  0  0  0  0  0  0  0  0  0
   -0.6196    0.9324    0.8046 O   0  0  0  0  0  0  0  0  0  0  0  0
    0.5722    1.0614    1.5737 C   0  0  1  0  0  0  0  0  0  0  0  0
    0.4289    2.1212    2.5119 O   0  0  0  0  0  0  0  0  0  0  0  0
    0.3642    3.4402    1.9933 C   0  0  2  0  0  0  0  0  0  0  0  0
    1.7937    4.0042    1.9702 C   0  0  1  0  0  0  0  0  0  0  0  0
    2.5581    3.3294    0.9834 O   0  0  0  0  0  0  0  0  0  0  0  0
    1.8694    5.5066    1.6586 C   0  0  2  0  0  0  0  0  0  0  0  0
    3.2538    5.9958    1.7488 N   0  0  0  0  0  0  0  0  0  0  0  0
    0.9935    6.2795    2.6376 C   0  0  0  0  0  0  0  0  0  0  0  0
   -0.4336    5.7485    2.5789 C   0  0  2  0  0  0  0  0  0  0  0  0
   -1.2639    6.5449    3.4888 N   0  0  0  0  0  0  0  0  0  0  0  0
   -0.4639    4.2478    2.9406 C   0  0  1  0  0  0  0  0  0  0  0  0
   -1.8456    3.8639    2.8694 O   0  0  0  0  0  0  0  0  0  0  0  0
   -2.2262    2.6775    3.5580 C   0  0  1  0  0  0  0  0  0  0  0  0
   -1.9820    2.8068    4.9560 O   0  0  0  0  0  0  0  0  0  0  0  0
   -2.8099    3.7319    5.6576 C   0  0  2  0  0  0  0  0  0  0  0  0
   -2.4069    3.7356    7.1382 C   0  0  0  0  0  0  0  0  0  0  0  0
   -1.5121    4.8410    7.4498 N   0  0  0  0  0  0  0  0  0  0  0  0
   -4.2956    3.3499    5.5220 C   0  0  1  0  0  0  0  0  0  0  0  0
   -5.1000    4.3146    6.1768 O   0  0  0  0  0  0  0  0  0  0  0  0
   -4.6564    3.2939    4.0323 C   0  0  2  0  0  0  0  0  0  0  0  0
   -5.9938    2.8596    3.8714 O   0  0  0  0  0  0  0  0  0  0  0  0
   -3.6996    2.3611    3.2777 C   0  0  1  0  0  0  0  0  0  0  0  0
   -3.9749    2.4151    1.8348 N   0  0  0  0  0  0  0  0  0  0  0  0
    0.7637   -0.2653    2.3230 C   0  0  2  0  0  0  0  0  0  0  0  0
    1.8586   -0.9739    1.7729 O   0  0  0  0  0  0  0  0  0  0  0  0
   -0.5757   -0.9701    2.1141 C   0  0  2  0  0  0  0  0  0  0  0  0
   -0.4904   -2.3805    2.1662 O   0  0  0  0  0  0  0  0  0  0  0  0
  2  1  1  0  0  0  0
  3  2  1  1  0  0  0
  3 30  1  0  0  0  0
  4  5  1  0  0  0  0
  4  3  1  0  0  0  0
  5 28  1  0  0  0  0
  5  6  1  1  0  0  0
  7  6  1  1  0  0  0
  8  7  1  0  0  0  0
  8  9  1  6  0  0  0
 10 11  1  1  0  0  0
 10  8  1  0  0  0  0
 12 10  1  0  0  0  0
 13 12  1  0  0  0  0
 13 15  1  0  0  0  0
 13 14  1  1  0  0  0
 15  7  1  0  0  0  0
 15 16  1  6  0  0  0
 17 16  1  6  0  0  0
 18 17  1  0  0  0  0
 19 20  1  1  0  0  0
 19 18  1  0  0  0  0
 20 21  1  0  0  0  0
 22 24  1  0  0  0  0
 22 19  1  0  0  0  0
 22 23  1  1  0  0  0
 24 25  1  1  0  0  0
 24 26  1  0  0  0  0
 26 17  1  0  0  0  0
 26 27  1  6  0  0  0
 28 29  1  6  0  0  0
 28 30  1  0  0  0  0
 30 31  1  6  0  0  0
M  END
>  <CHROM.1>
66.41404040,36.22191511,-68.55171318,-92.09738708,-165.40825672,67.07906855
-38.89178825,79.00587789,61.37668117,97.92808763,-179.95036430,-171.55810360
69.38341541,-45.11398387,-52.18128047,59.85942425,-1.18635088,2.71971920
2.91662148,0.82434899,-0.44755847,-2.66117114

>  <Name>
lig.pdb

>  <RI>
3.50357e+07

>  <Rbt.Current_Directory>
/home/itssahil/PROJECTS/Mol_Feturizer/New_Systems/rnas/2n0j

>  <Rbt.Executable>
rbdock ($Id: //depot/dev/client3/rdock/2013.1/src/exe/rbdock.cxx#4 $)

>  <Rbt.Library>
libRbt.so (2013.1, Build901 2013/11/27)

>  <Rbt.Parameter_File>
/export/apps/rDock/src/rDock_2013.1_src/data/scripts/dock_solv.prm

>  <Rbt.Receptor>
prm/pocket_docking_3.prm

>  <SCORE>
-35.7199

>  <SCORE.INTER>
-30.995

>  <SCORE.INTER.CONST>
1

>  <SCORE.INTER.POLAR>
-3.55322

>  <SCORE.INTER.ROT>
6

>  <SCORE.INTER.SOLV>
13.4642

>  <SCORE.INTER.VDW>
-20.9073

>  <SCORE.INTER.norm>
-0.999838

>  <SCORE.INTRA>
-5.55209

>  <SCORE.INTRA.DIHEDRAL>
-12.319

>  <SCORE.INTRA.DIHEDRAL.0>
28.0161

>  <SCORE.INTRA.POLAR>
-0.0556528

>  <SCORE.INTRA.POLAR.0>
-1.05798

>  <SCORE.INTRA.REPUL>
0

>  <SCORE.INTRA.REPUL.0>
0

>  <SCORE.INTRA.SOLV>
0.347273

>  <SCORE.INTRA.SOLV.lig_0>
-42.5945

>  <SCORE.INTRA.VDW>
0.622966

>  <SCORE.INTRA.VDW.0>
-5.13869

>  <SCORE.INTRA.norm>
-0.1791

>  <SCORE.RESTR>
0.827196

>  <SCORE.RESTR.CAVITY>
0.827196

>  <SCORE.RESTR.norm>
0.0266837

>  <SCORE.SYSTEM>
0

>  <SCORE.SYSTEM.CONST>
0

>  <SCORE.SYSTEM.DIHEDRAL>
0

>  <SCORE.SYSTEM.SOLV>
0

>  <SCORE.SYSTEM.norm>
0

>  <SCORE.heavy>
31

>  <SCORE.norm>
-1.15225

>  <RMSD>
6.615

$$$$
lig.pdb
 OpenBabel11021811453D
libRbt.so/2013.1/901 2013/11/27
 31 33  0  0  0  0  0  0  0  0999 V2000
   -3.6473   -2.5136   -0.7341 O   0  0  0  0  0  0  0  0  0  0  0  0
   -3.2705   -1.2033   -0.3582 C   0  0  0  0  0  0  0  0  0  0  0  0
   -2.0847   -1.2182    0.6159 C   0  0  1  0  0  0  0  0  0  0  0  0
   -1.6081    0.0904    0.8869 O   0  0  0  0  0  0  0  0  0  0  0  0
   -0.9793    0.1157    2.1646 C   0  0  1  0  0  0  0  0  0  0  0  0
   -1.4514    1.2297    2.9130 O   0  0  0  0  0  0  0  0  0  0  0  0
   -1.1064    2.5213    2.4382 C   0  0  2  0  0  0  0  0  0  0  0  0
    0.4273    2.6189    2.4206 C   0  0  1  0  0  0  0  0  0  0  0  0
    0.9484    1.7754    1.4055 O   0  0  0  0  0  0  0  0  0  0  0  0
    0.9619    4.0349    2.1572 C   0  0  2  0  0  0  0  0  0  0  0  0
    2.4295    4.0712    2.2508 N   0  0  0  0  0  0  0  0  0  0  0  0
    0.3648    5.0062    3.1687 C   0  0  0  0  0  0  0  0  0  0  0  0
   -1.1563    4.9420    3.1056 C   0  0  2  0  0  0  0  0  0  0  0  0
   -1.7027    5.9241    4.0483 N   0  0  0  0  0  0  0  0  0  0  0  0
   -1.6473    3.5121    3.4186 C   0  0  1  0  0  0  0  0  0  0  0  0
   -3.0800    3.5743    3.3474 O   0  0  0  0  0  0  0  0  0  0  0  0
   -3.8063    2.4956    3.9266 C   0  0  1  0  0  0  0  0  0  0  0  0
   -3.2597    2.1443    5.1948 O   0  0  0  0  0  0  0  0  0  0  0  0
   -3.4302    3.0983    6.2409 C   0  0  2  0  0  0  0  0  0  0  0  0
   -2.7847    2.5524    7.5215 C   0  0  0  0  0  0  0  0  0  0  0  0
   -1.3806    2.2251    7.3193 N   0  0  0  0  0  0  0  0  0  0  0  0
   -4.9241    3.3793    6.4882 C   0  0  1  0  0  0  0  0  0  0  0  0
   -5.0656    4.3714    7.4893 O   0  0  0  0  0  0  0  0  0  0  0  0
   -5.5579    3.8650    5.1787 C   0  0  2  0  0  0  0  0  0  0  0  0
   -6.9506    4.0484    5.3508 O   0  0  0  0  0  0  0  0  0  0  0  0
   -5.2887    2.8677    4.0437 C   0  0  1  0  0  0  0  0  0  0  0  0
   -5.7896    3.4046    2.7703 N   0  0  0  0  0  0  0  0  0  0  0  0
   -1.3712   -1.1860    2.8789 C   0  0  2  0  0  0  0  0  0  0  0  0
   -0.2490   -2.0447    2.9622 O   0  0  0  0  0  0  0  0  0  0  0  0
   -2.4868   -1.7376    1.9926 C   0  0  2  0  0  0  0  0  0  0  0  0
   -2.6192   -3.1439    2.0541 O   0  0  0  0  0  0  0  0  0  0  0  0
  2  1  1  0  0  0  0
  3  2  1  6  0  0  0
  3 30  1  0  0  0  0
  4  5  1  0  0  0  0
  4  3  1  0  0  0  0
  5 28  1  0  0  0  0
  5  6  1  1  0  0  0
  7  6  1  1  0  0  0
  8  7  1  0  0  0  0
  8  9  1  6  0  0  0
 10 11  1  1  0  0  0
 10  8  1  0  0  0  0
 12 10  1  0  0  0  0
 13 12  1  0  0  0  0
 13 15  1  0  0  0  0
 13 14  1  1  0  0  0
 15  7  1  0  0  0  0
 15 16  1  6  0  0  0
 17 16  1  1  0  0  0
 18 17  1  0  0  0  0
 19 20  1  1  0  0  0
 19 18  1  0  0  0  0
 20 21  1  0  0  0  0
 22 24  1  0  0  0  0
 22 19  1  0  0  0  0
 22 23  1  1  0  0  0
 24 25  1  1  0  0  0
 24 26  1  0  0  0  0
 26 17  1  0  0  0  0
 26 27  1  6  0  0  0
 28 29  1  6  0  0  0
 28 30  1  0  0  0  0
 30 31  1  6  0  0  0
M  END
>  <CHROM.1>
64.39421258,173.71795018,-66.66990661,-59.81278304,60.22634859,75.78238572
29.13601218,75.10707648,44.02301289,56.32577465,68.20023516,-64.29729109
-179.87397177,44.24156738,58.70559641,65.45090781,-2.31029693,1.94657006
3.37914492,1.19073060,-0.39777322,-2.57276288

>  <Name>
lig.pdb

>  <RI>
3.33129e+07

>  <Rbt.Current_Directory>
/home/itssahil/PROJECTS/Mol_Feturizer/New_Systems/rnas/2n0j

>  <Rbt.Executable>
rbdock ($Id: //depot/dev/client3/rdock/2013.1/src/exe/rbdock.cxx#4 $)

>  <Rbt.Library>
libRbt.so (2013.1, Build901 2013/11/27)

>  <Rbt.Parameter_File>
/export/apps/rDock/src/rDock_2013.1_src/data/scripts/dock_solv.prm

>  <Rbt.Receptor>
prm/pocket_docking_4.prm

>  <SCORE>
-29.7078

>  <SCORE.INTER>
-25.977

>  <SCORE.INTER.CONST>
1

>  <SCORE.INTER.POLAR>
-3.7759

>  <SCORE.INTER.ROT>
6

>  <SCORE.INTER.SOLV>
11.563

>  <SCORE.INTER.VDW>
-16.186

>  <SCORE.INTER.norm>
-0.837968

>  <SCORE.INTRA>
-3.76676

>  <SCORE.INTRA.DIHEDRAL>
-21.4154

>  <SCORE.INTRA.DIHEDRAL.0>
28.0161

>  <SCORE.INTRA.POLAR>
0.961244

>  <SCORE.INTRA.POLAR.0>
-1.05798

>  <SCORE.INTRA.REPUL>
0

>  <SCORE.INTRA.REPUL.0>
0

>  <SCORE.INTRA.SOLV>
-0.369199

>  <SCORE.INTRA.SOLV.lig_0>
-42.5945

>  <SCORE.INTRA.VDW>
3.8573

>  <SCORE.INTRA.VDW.0>
-5.13869

>  <SCORE.INTRA.norm>
-0.121508

>  <SCORE.RESTR>
0.0359333

>  <SCORE.RESTR.CAVITY>
0.0359333

>  <SCORE.RESTR.norm>
0.00115914

>  <SCORE.SYSTEM>
0

>  <SCORE.SYSTEM.CONST>
0

>  <SCORE.SYSTEM.DIHEDRAL>
0

>  <SCORE.SYSTEM.SOLV>
0

>  <SCORE.SYSTEM.norm>
0

>  <SCORE.heavy>
31

>  <SCORE.norm>
-0.958318

>  <RMSD>
6.634

$$$$
lig.pdb
 OpenBabel11021811453D
libRbt.so/2013.1/901 2013/11/27
 31 33  0  0  0  0  0  0  0  0999 V2000
    1.5591   -1.5797    5.7668 O   0  0  0  0  0  0  0  0  0  0  0  0
    0.8006   -0.3885    5.6913 C   0  0  0  0  0  0  0  0  0  0  0  0
    0.6120    0.0654    4.2375 C   0  0  1  0  0  0  0  0  0  0  0  0
    0.1158    1.3923    4.1592 O   0  0  0  0  0  0  0  0  0  0  0  0
    0.5098    1.9784    2.9223 C   0  0  1  0  0  0  0  0  0  0  0  0
    1.0479    3.2751    3.1523 O   0  0  0  0  0  0  0  0  0  0  0  0
    0.8161    4.2581    2.1559 C   0  0  2  0  0  0  0  0  0  0  0  0
    2.1611    4.9325    1.8425 C   0  0  1  0  0  0  0  0  0  0  0  0
    3.0103    4.0160    1.1701 O   0  0  0  0  0  0  0  0  0  0  0  0
    2.0440    6.1818    0.9561 C   0  0  2  0  0  0  0  0  0  0  0  0
    3.3535    6.8281    0.7785 N   0  0  0  0  0  0  0  0  0  0  0  0
    1.0716    7.1710    1.5878 C   0  0  0  0  0  0  0  0  0  0  0  0
   -0.2749    6.4941    1.8130 C   0  0  2  0  0  0  0  0  0  0  0  0
   -1.2049    7.4825    2.3697 N   0  0  0  0  0  0  0  0  0  0  0  0
   -0.1133    5.2719    2.7424 C   0  0  1  0  0  0  0  0  0  0  0  0
   -1.4337    4.7291    2.8955 O   0  0  0  0  0  0  0  0  0  0  0  0
   -1.5843    3.6292    3.7866 C   0  0  1  0  0  0  0  0  0  0  0  0
   -1.8758    4.0857    5.1047 O   0  0  0  0  0  0  0  0  0  0  0  0
   -3.1546    4.6872    5.2951 C   0  0  2  0  0  0  0  0  0  0  0  0
   -3.2904    5.1119    6.7634 C   0  0  0  0  0  0  0  0  0  0  0  0
   -2.2487    6.0525    7.1503 N   0  0  0  0  0  0  0  0  0  0  0  0
   -4.2824    3.7043    4.9296 C   0  0  1  0  0  0  0  0  0  0  0  0
   -5.5389    4.3429    5.0707 O   0  0  0  0  0  0  0  0  0  0  0  0
   -4.0884    3.2489    3.4779 C   0  0  2  0  0  0  0  0  0  0  0  0
   -5.0595    2.2767    3.1389 O   0  0  0  0  0  0  0  0  0  0  0  0
   -2.6762    2.6851    3.2708 C   0  0  1  0  0  0  0  0  0  0  0  0
   -2.4608    2.3716    1.8510 N   0  0  0  0  0  0  0  0  0  0  0  0
    1.5952    1.0705    2.3258 C   0  0  2  0  0  0  0  0  0  0  0  0
    1.0820    0.3853    1.1986 O   0  0  0  0  0  0  0  0  0  0  0  0
    1.9392    0.1421    3.4895 C   0  0  2  0  0  0  0  0  0  0  0  0
    2.4377   -1.1173    3.0840 O   0  0  0  0  0  0  0  0  0  0  0  0
  2  1  1  0  0  0  0
  3  2  1  1  0  0  0
  3 30  1  0  0  0  0
  4  5  1  0  0  0  0
  4  3  1  0  0  0  0
  5 28  1  0  0  0  0
  5  6  1  1  0  0  0
  7  6  1  1  0  0  0
  8  7  1  0  0  0  0
  8  9  1  6  0  0  0
 10 11  1  1  0  0  0
 10  8  1  0  0  0  0
 12 10  1  0  0  0  0
 13 12  1  0  0  0  0
 13 15  1  0  0  0  0
 13 14  1  1  0  0  0
 15  7  1  0  0  0  0
 15 16  1  6  0  0  0
 17 16  1  6  0  0  0
 18 17  1  0  0  0  0
 19 20  1  1  0  0  0
 19 18  1  0  0  0  0
 20 21  1  0  0  0  0
 22 24  1  0  0  0  0
 22 19  1  0  0  0  0
 22 23  1  6  0  0  0
 24 25  1  1  0  0  0
 24 26  1  0  0  0  0
 26 17  1  0  0  0  0
 26 27  1  6  0  0  0
 28 29  1  6  0  0  0
 28 30  1  0  0  0  0
 30 31  1  6  0  0  0
M  END
>  <CHROM.1>
86.23069921,-167.12593085,-146.12729458,-131.27406457,-165.61518043,65.51972724
-81.98957323,63.14544845,90.31541265,58.94833904,-176.40423421,-62.25898300
177.45808929,158.64520110,-59.15329614,-53.56835455,-0.48596416,3.36271995
3.36510323,0.44303133,-0.47143209,2.83722842

>  <Name>
lig.pdb

>  <RI>
0

>  <Rbt.Current_Directory>
/home/itssahil/PROJECTS/Mol_Feturizer/New_Systems/rnas/2n0j

>  <Rbt.Executable>
rbdock ($Id: //depot/dev/client3/rdock/2013.1/src/exe/rbdock.cxx#4 $)

>  <Rbt.Library>
libRbt.so (2013.1, Build901 2013/11/27)

>  <Rbt.Parameter_File>
/export/apps/rDock/src/rDock_2013.1_src/data/scripts/dock_solv.prm

>  <Rbt.Receptor>
prm/pocket_docking_5.prm

>  <SCORE>
-27.5819

>  <SCORE.INTER>
-31.6059

>  <SCORE.INTER.CONST>
1

>  <SCORE.INTER.POLAR>
-3.21011

>  <SCORE.INTER.ROT>
6

>  <SCORE.INTER.SOLV>
15.8352

>  <SCORE.INTER.VDW>
-23.2486

>  <SCORE.INTER.norm>
-1.01954

>  <SCORE.INTRA>
4.024

>  <SCORE.INTRA.DIHEDRAL>
-6.21804

>  <SCORE.INTRA.DIHEDRAL.0>
28.0161

>  <SCORE.INTRA.POLAR>
0.933475

>  <SCORE.INTRA.POLAR.0>
-1.05798

>  <SCORE.INTRA.REPUL>
0

>  <SCORE.INTRA.REPUL.0>
0

>  <SCORE.INTRA.SOLV>
0.331931

>  <SCORE.INTRA.SOLV.lig_0>
-42.5945

>  <SCORE.INTRA.VDW>
3.79324

>  <SCORE.INTRA.VDW.0>
-5.13869

>  <SCORE.INTRA.norm>
0.129807

>  <SCORE.RESTR>
0

>  <SCORE.RESTR.CAVITY>
0

>  <SCORE.RESTR.norm>
0

>  <SCORE.SYSTEM>
0

>  <SCORE.SYSTEM.CONST>
0

>  <SCORE.SYSTEM.DIHEDRAL>
0

>  <SCORE.SYSTEM.SOLV>
0

>  <SCORE.SYSTEM.norm>
0

>  <SCORE.heavy>
31

>  <SCORE.norm>
-0.889738

>  <RMSD>
6.643

$$$$
lig.pdb
 OpenBabel11021811453D
libRbt.so/2013.1/901 2013/11/27
 31 33  0  0  0  0  0  0  0  0999 V2000
   -2.1604   -2.9130    2.5726 O   0  0  0  0  0  0  0  0  0  0  0  0
   -1.3347   -2.2789    3.5298 C   0  0  0  0  0  0  0  0  0  0  0  0
   -0.3735   -1.2816    2.8689 C   0  0  1  0  0  0  0  0  0  0  0  0
   -1.0545   -0.1363    2.3817 O   0  0  0  0  0  0  0  0  0  0  0  0
   -0.1604    0.9718    2.3431 C   0  0  1  0  0  0  0  0  0  0  0  0
   -0.7765    2.1100    2.9335 O   0  0  0  0  0  0  0  0  0  0  0  0
   -0.5852    3.3581    2.2866 C   0  0  2  0  0  0  0  0  0  0  0  0
    0.9024    3.7246    2.4082 C   0  0  1  0  0  0  0  0  0  0  0  0
    1.6780    2.8474    1.6066 O   0  0  0  0  0  0  0  0  0  0  0  0
    1.2323    5.1587    1.9670 C   0  0  2  0  0  0  0  0  0  0  0  0
    2.6508    5.4703    2.2012 N   0  0  0  0  0  0  0  0  0  0  0  0
    0.3624    6.1461    2.7360 C   0  0  0  0  0  0  0  0  0  0  0  0
   -1.1079    5.8024    2.5309 C   0  0  2  0  0  0  0  0  0  0  0  0
   -1.9212    6.7991    3.2358 N   0  0  0  0  0  0  0  0  0  0  0  0
   -1.3993    4.3698    3.0275 C   0  0  1  0  0  0  0  0  0  0  0  0
   -2.8022    4.1637    2.8023 O   0  0  0  0  0  0  0  0  0  0  0  0
   -3.3803    2.9818    3.3459 C   0  0  1  0  0  0  0  0  0  0  0  0
   -3.0060    2.8205    4.7114 O   0  0  0  0  0  0  0  0  0  0  0  0
   -3.5526    3.7639    5.6305 C   0  0  2  0  0  0  0  0  0  0  0  0
   -3.0450    3.4351    7.0408 C   0  0  0  0  0  0  0  0  0  0  0  0
   -3.3980    4.4755    7.9961 N   0  0  0  0  0  0  0  0  0  0  0  0
   -5.0919    3.7232    5.6071 C   0  0  1  0  0  0  0  0  0  0  0  0
   -5.6105    4.7078    6.4835 O   0  0  0  0  0  0  0  0  0  0  0  0
   -5.5706    3.9944    4.1754 C   0  0  2  0  0  0  0  0  0  0  0  0
   -6.9792    3.8772    4.1028 O   0  0  0  0  0  0  0  0  0  0  0  0
   -4.9045    3.0262    3.1886 C   0  0  1  0  0  0  0  0  0  0  0  0
   -5.2723    3.3781    1.8097 N   0  0  0  0  0  0  0  0  0  0  0  0
    1.0760    0.5742    3.1625 C   0  0  2  0  0  0  0  0  0  0  0  0
    2.1784    0.3680    2.2990 O   0  0  0  0  0  0  0  0  0  0  0  0
    0.6192   -0.7002    3.8706 C   0  0  2  0  0  0  0  0  0  0  0  0
    1.6772   -1.5788    4.1989 O   0  0  0  0  0  0  0  0  0  0  0  0
  2  1  1  0  0  0  0
  3  2  1  1  0  0  0
  3 30  1  0  0  0  0
  4  5  1  0  0  0  0
  4  3  1  0  0  0  0
  5 28  1  0  0  0  0
  5  6  1  1  0  0  0
  7  6  1  1  0  0  0
  8  7  1  0  0  0  0
  8  9  1  6  0  0  0
 10 11  1  1  0  0  0
 10  8  1  0  0  0  0
 12 10  1  0  0  0  0
 13 12  1  0  0  0  0
 13 15  1  0  0  0  0
 13 14  1  1  0  0  0
 15  7  1  0  0  0  0
 15 16  1  6  0  0  0
 17 16  1  1  0  0  0
 18 17  1  0  0  0  0
 19 20  1  1  0  0  0
 19 18  1  0  0  0  0
 20 21  1  0  0  0  0
 22 24  1  0  0  0  0
 22 19  1  0  0  0  0
 22 23  1  1  0  0  0
 24 25  1  1  0  0  0
 24 26  1  0  0  0  0
 26 17  1  0  0  0  0
 26 27  1  6  0  0  0
 28 29  1  6  0  0  0
 28 30  1  0  0  0  0
 30 31  1  6  0  0  0
M  END
>  <CHROM.1>
80.10831220,70.62544067,-138.46471984,-66.76775437,-174.43489772,63.26139731
-1.35721244,67.77723539,48.48661538,171.26282191,52.01132712,76.24198228
-173.00503379,137.79452142,-174.94633787,-179.48857008,-1.65388919,2.68036665
3.52728879,0.61669205,-0.38488837,3.12201102

>  <Name>
lig.pdb

>  <RI>
0

>  <Rbt.Current_Directory>
/home/itssahil/PROJECTS/Mol_Feturizer/New_Systems/rnas/2n0j

>  <Rbt.Executable>
rbdock ($Id: //depot/dev/client3/rdock/2013.1/src/exe/rbdock.cxx#4 $)

>  <Rbt.Library>
libRbt.so (2013.1, Build901 2013/11/27)

>  <Rbt.Parameter_File>
/export/apps/rDock/src/rDock_2013.1_src/data/scripts/dock_solv.prm

>  <Rbt.Receptor>
prm/pocket_docking_8.prm

>  <SCORE>
-34.449

>  <SCORE.INTER>
-36.659

>  <SCORE.INTER.CONST>
1

>  <SCORE.INTER.POLAR>
-4.95525

>  <SCORE.INTER.ROT>
6

>  <SCORE.INTER.SOLV>
14.2733

>  <SCORE.INTER.VDW>
-20.2796

>  <SCORE.INTER.norm>
-1.18255

>  <SCORE.INTRA>
2.20999

>  <SCORE.INTRA.DIHEDRAL>
-10.0304

>  <SCORE.INTRA.DIHEDRAL.0>
28.0161

>  <SCORE.INTRA.POLAR>
0.49006

>  <SCORE.INTRA.POLAR.0>
-1.05798

>  <SCORE.INTRA.REPUL>
0

>  <SCORE.INTRA.REPUL.0>
0

>  <SCORE.INTRA.SOLV>
0.846417

>  <SCORE.INTRA.SOLV.lig_0>
-42.5945

>  <SCORE.INTRA.VDW>
5.13575

>  <SCORE.INTRA.VDW.0>
-5.13869

>  <SCORE.INTRA.norm>
0.0712899

>  <SCORE.RESTR>
0

>  <SCORE.RESTR.CAVITY>
0

>  <SCORE.RESTR.norm>
0

>  <SCORE.SYSTEM>
0

>  <SCORE.SYSTEM.CONST>
0

>  <SCORE.SYSTEM.DIHEDRAL>
0

>  <SCORE.SYSTEM.SOLV>
0

>  <SCORE.SYSTEM.norm>
0

>  <SCORE.heavy>
31

>  <SCORE.norm>
-1.11126

>  <RMSD>
6.645

$$$$
lig.pdb
 OpenBabel11021811453D
libRbt.so/2013.1/901 2013/11/27
 31 33  0  0  0  0  0  0  0  0999 V2000
   -0.4207    0.6421   -0.5034 O   0  0  0  0  0  0  0  0  0  0  0  0
   -0.3899   -0.3163    0.5361 C   0  0  0  0  0  0  0  0  0  0  0  0
    0.9474   -0.2853    1.2883 C   0  0  1  0  0  0  0  0  0  0  0  0
    1.5222    1.0118    1.2895 O   0  0  0  0  0  0  0  0  0  0  0  0
    2.3673    1.1598    2.4264 C   0  0  1  0  0  0  0  0  0  0  0  0
    2.0850    2.3910    3.0807 O   0  0  0  0  0  0  0  0  0  0  0  0
    2.1649    3.5725    2.2992 C   0  0  2  0  0  0  0  0  0  0  0  0
    3.5113    4.2466    2.6072 C   0  0  1  0  0  0  0  0  0  0  0  0
    4.5701    3.4634    2.0789 O   0  0  0  0  0  0  0  0  0  0  0  0
    3.6525    5.6600    2.0221 C   0  0  2  0  0  0  0  0  0  0  0  0
    4.9209    6.2791    2.4367 N   0  0  0  0  0  0  0  0  0  0  0  0
    2.4888    6.5275    2.4872 C   0  0  0  0  0  0  0  0  0  0  0  0
    1.1707    5.8699    2.0973 C   0  0  2  0  0  0  0  0  0  0  0  0
    0.0721    6.7510    2.5076 N   0  0  0  0  0  0  0  0  0  0  0  0
    1.0560    4.4720    2.7425 C   0  0  1  0  0  0  0  0  0  0  0  0
   -0.2183    3.9597    2.3239 O   0  0  0  0  0  0  0  0  0  0  0  0
   -0.9906    3.2655    3.2977 C   0  0  1  0  0  0  0  0  0  0  0  0
   -1.2272    4.0913    4.4346 O   0  0  0  0  0  0  0  0  0  0  0  0
   -2.0937    5.2060    4.2347 C   0  0  2  0  0  0  0  0  0  0  0  0
   -2.2310    5.9722    5.5571 C   0  0  0  0  0  0  0  0  0  0  0  0
   -2.9200    7.2418    5.3747 N   0  0  0  0  0  0  0  0  0  0  0  0
   -3.4812    4.7423    3.7537 C   0  0  1  0  0  0  0  0  0  0  0  0
   -4.3038    5.8687    3.5065 O   0  0  0  0  0  0  0  0  0  0  0  0
   -3.3098    3.9283    2.4651 C   0  0  2  0  0  0  0  0  0  0  0  0
   -4.5592    3.4132    2.0449 O   0  0  0  0  0  0  0  0  0  0  0  0
   -2.3067    2.7859    2.6751 C   0  0  1  0  0  0  0  0  0  0  0  0
   -2.0554    2.0943    1.4027 N   0  0  0  0  0  0  0  0  0  0  0  0
    2.0501   -0.0084    3.3713 C   0  0  2  0  0  0  0  0  0  0  0  0
    3.1299   -0.9234    3.3830 O   0  0  0  0  0  0  0  0  0  0  0  0
    0.7720   -0.5930    2.7720 C   0  0  2  0  0  0  0  0  0  0  0  0
    0.5900   -1.9671    3.0508 O   0  0  0  0  0  0  0  0  0  0  0  0
  2  1  1  0  0  0  0
  3  2  1  6  0  0  0
  3 30  1  0  0  0  0
  4  5  1  0  0  0  0
  4  3  1  0  0  0  0
  5 28  1  0  0  0  0
  5  6  1  1  0  0  0
  7  6  1  1  0  0  0
  8  7  1  0  0  0  0
  8  9  1  6  0  0  0
 10 11  1  1  0  0  0
 10  8  1  0  0  0  0
 12 10  1  0  0  0  0
 13 12  1  0  0  0  0
 13 15  1  0  0  0  0
 13 14  1  1  0  0  0
 15  7  1  0  0  0  0
 15 16  1  6  0  0  0
 17 16  1  6  0  0  0
 18 17  1  0  0  0  0
 19 20  1  1  0  0  0
 19 18  1  0  0  0  0
 20 21  1  0  0  0  0
 22 24  1  0  0  0  0
 22 19  1  0  0  0  0
 22 23  1  6  0  0  0
 24 25  1  1  0  0  0
 24 26  1  0  0  0  0
 26 17  1  0  0  0  0
 26 27  1  6  0  0  0
 28 29  1  6  0  0  0
 28 30  1  0  0  0  0
 30 31  1  6  0  0  0
M  END
>  <CHROM.1>
65.63808167,30.28813699,-55.47041286,-100.81919743,-57.57499369,-56.41352873
61.63230011,100.31734854,57.02695932,170.50880726,74.67503102,62.17954347
165.91617166,-118.37885821,179.96071677,-72.19625896,0.19118827,3.24147170
2.66525918,0.81090297,-0.09888933,-2.92468182

>  <Name>
lig.pdb

>  <RI>
3.33129e+07

>  <Rbt.Current_Directory>
/home/itssahil/PROJECTS/Mol_Feturizer/New_Systems/rnas/2n0j

>  <Rbt.Executable>
rbdock ($Id: //depot/dev/client3/rdock/2013.1/src/exe/rbdock.cxx#4 $)

>  <Rbt.Library>
libRbt.so (2013.1, Build901 2013/11/27)

>  <Rbt.Parameter_File>
/export/apps/rDock/src/rDock_2013.1_src/data/scripts/dock_solv.prm

>  <Rbt.Receptor>
prm/pocket_docking_4.prm

>  <SCORE>
-52.0014

>  <SCORE.INTER>
-51.7974

>  <SCORE.INTER.CONST>
1

>  <SCORE.INTER.POLAR>
-6.90516

>  <SCORE.INTER.ROT>
6

>  <SCORE.INTER.SOLV>
20.6974

>  <SCORE.INTER.VDW>
-26.0135

>  <SCORE.INTER.norm>
-1.67088

>  <SCORE.INTRA>
-0.203994

>  <SCORE.INTRA.DIHEDRAL>
-7.75971

>  <SCORE.INTRA.DIHEDRAL.0>
28.0161

>  <SCORE.INTRA.POLAR>
0.704469

>  <SCORE.INTRA.POLAR.0>
-1.05798

>  <SCORE.INTRA.REPUL>
0

>  <SCORE.INTRA.REPUL.0>
0

>  <SCORE.INTRA.SOLV>
1.47559

>  <SCORE.INTRA.SOLV.lig_0>
-42.5945

>  <SCORE.INTRA.VDW>
0.54287

>  <SCORE.INTRA.VDW.0>
-5.13869

>  <SCORE.INTRA.norm>
-0.00658044

>  <SCORE.RESTR>
0

>  <SCORE.RESTR.CAVITY>
0

>  <SCORE.RESTR.norm>
0

>  <SCORE.SYSTEM>
0

>  <SCORE.SYSTEM.CONST>
0

>  <SCORE.SYSTEM.DIHEDRAL>
0

>  <SCORE.SYSTEM.SOLV>
0

>  <SCORE.SYSTEM.norm>
0

>  <SCORE.heavy>
31

>  <SCORE.norm>
-1.67747

>  <RMSD>
6.646

$$$$
lig.pdb
 OpenBabel11021811453D
libRbt.so/2013.1/901 2013/11/27
 31 33  0  0  0  0  0  0  0  0999 V2000
   -4.2872   -0.5176   -2.0296 O   0  0  0  0  0  0  0  0  0  0  0  0
   -3.8838    0.6690   -1.3744 C   0  0  0  0  0  0  0  0  0  0  0  0
   -2.4559    0.5490   -0.8251 C   0  0  1  0  0  0  0  0  0  0  0  0
   -2.0035    1.7694   -0.2604 O   0  0  0  0  0  0  0  0  0  0  0  0
   -1.0121    1.5016    0.7266 C   0  0  1  0  0  0  0  0  0  0  0  0
   -1.2988    2.2363    1.9106 O   0  0  0  0  0  0  0  0  0  0  0  0
   -0.2958    3.1224    2.3813 C   0  0  2  0  0  0  0  0  0  0  0  0
   -0.7094    4.5491    1.9866 C   0  0  1  0  0  0  0  0  0  0  0  0
   -1.8417    4.9455    2.7443 O   0  0  0  0  0  0  0  0  0  0  0  0
    0.3844    5.6037    2.2134 C   0  0  2  0  0  0  0  0  0  0  0  0
   -0.0449    6.9233    1.7251 N   0  0  0  0  0  0  0  0  0  0  0  0
    1.6595    5.1856    1.4908 C   0  0  0  0  0  0  0  0  0  0  0  0
    2.0858    3.8006    1.9622 C   0  0  2  0  0  0  0  0  0  0  0  0
    3.3423    3.4478    1.2925 N   0  0  0  0  0  0  0  0  0  0  0  0
    0.9736    2.7691    1.6747 C   0  0  1  0  0  0  0  0  0  0  0  0
    1.4869    1.5117    2.1405 O   0  0  0  0  0  0  0  0  0  0  0  0
    1.8714    1.4342    3.5090 C   0  0  1  0  0  0  0  0  0  0  0  0
    0.7240    1.4168    4.3538 O   0  0  0  0  0  0  0  0  0  0  0  0
   -0.0841    0.2433    4.2956 C   0  0  2  0  0  0  0  0  0  0  0  0
   -1.2625    0.4027    5.2655 C   0  0  0  0  0  0  0  0  0  0  0  0
   -0.8120    0.7294    6.6109 N   0  0  0  0  0  0  0  0  0  0  0  0
    0.7354   -1.0055    4.6707 C   0  0  1  0  0  0  0  0  0  0  0  0
   -0.0722   -2.1628    4.5489 O   0  0  0  0  0  0  0  0  0  0  0  0
    1.9394   -1.1073    3.7260 C   0  0  2  0  0  0  0  0  0  0  0  0
    2.7613   -2.1968    4.1008 O   0  0  0  0  0  0  0  0  0  0  0  0
    2.7477    0.1971    3.7357 C   0  0  1  0  0  0  0  0  0  0  0  0
    3.8216    0.1332    2.7341 N   0  0  0  0  0  0  0  0  0  0  0  0
   -1.0788   -0.0029    1.0271 C   0  0  2  0  0  0  0  0  0  0  0  0
    0.0664   -0.6486    0.5025 O   0  0  0  0  0  0  0  0  0  0  0  0
   -2.3767   -0.4290    0.3429 C   0  0  2  0  0  0  0  0  0  0  0  0
   -2.3932   -1.7872   -0.0498 O   0  0  0  0  0  0  0  0  0  0  0  0
  2  1  1  0  0  0  0
  3  2  1  1  0  0  0
  3 30  1  0  0  0  0
  4  5  1  0  0  0  0
  4  3  1  0  0  0  0
  5 28  1  0  0  0  0
  5  6  1  1  0  0  0
  7  6  1  6  0  0  0
  8  7  1  0  0  0  0
  8  9  1  1  0  0  0
 10 11  1  6  0  0  0
 10  8  1  0  0  0  0
 12 10  1  0  0  0  0
 13 12  1  0  0  0  0
 13 15  1  0  0  0  0
 13 14  1  6  0  0  0
 15  7  1  0  0  0  0
 15 16  1  1  0  0  0
 17 16  1  6  0  0  0
 18 17  1  0  0  0  0
 19 20  1  1  0  0  0
 19 18  1  0  0  0  0
 20 21  1  0  0  0  0
 22 24  1  0  0  0  0
 22 19  1  0  0  0  0
 22 23  1  6  0  0  0
 24 25  1  1  0  0  0
 24 26  1  0  0  0  0
 26 17  1  0  0  0  0
 26 27  1  6  0  0  0
 28 29  1  6  0  0  0
 28 30  1  0  0  0  0
 30 31  1  6  0  0  0
M  END
>  <CHROM.1>
54.67293517,175.30434569,-122.50449500,102.33795013,-167.54168977,77.48857789
135.13806112,-63.18016600,72.81782846,-53.94058817,-18.49529011,64.86643194
155.52050573,-34.44041481,-52.59972033,-168.26901506,-0.04351134,1.36598129
2.15965571,2.92874315,-0.75771051,-0.22869909

>  <Name>
lig.pdb

>  <RI>
1.79691e+07

>  <Rbt.Current_Directory>
/home/itssahil/PROJECTS/Mol_Feturizer/New_Systems/rnas/2n0j

>  <Rbt.Executable>
rbdock ($Id: //depot/dev/client3/rdock/2013.1/src/exe/rbdock.cxx#4 $)

>  <Rbt.Library>
libRbt.so (2013.1, Build901 2013/11/27)

>  <Rbt.Parameter_File>
/export/apps/rDock/src/rDock_2013.1_src/data/scripts/dock_solv.prm

>  <Rbt.Receptor>
prm/blind_docking_20.prm

>  <SCORE>
-22.9391

>  <SCORE.INTER>
-36.2771

>  <SCORE.INTER.CONST>
1

>  <SCORE.INTER.POLAR>
-5.40162

>  <SCORE.INTER.ROT>
6

>  <SCORE.INTER.SOLV>
19.1759

>  <SCORE.INTER.VDW>
-20.1713

>  <SCORE.INTER.norm>
-1.17023

>  <SCORE.INTRA>
9.97312

>  <SCORE.INTRA.DIHEDRAL>
-1.32662

>  <SCORE.INTRA.DIHEDRAL.0>
28.0161

>  <SCORE.INTRA.POLAR>
0.701313

>  <SCORE.INTRA.POLAR.0>
-1.05798

>  <SCORE.INTRA.REPUL>
0

>  <SCORE.INTRA.REPUL.0>
0

>  <SCORE.INTRA.SOLV>
1.29204

>  <SCORE.INTRA.SOLV.lig_0>
-42.5945

>  <SCORE.INTRA.VDW>
7.60594

>  <SCORE.INTRA.VDW.0>
-5.13869

>  <SCORE.INTRA.norm>
0.321713

>  <SCORE.RESTR>
3.36495

>  <SCORE.RESTR.CAVITY>
3.36495

>  <SCORE.RESTR.norm>
0.108547

>  <SCORE.SYSTEM>
0

>  <SCORE.SYSTEM.CONST>
0

>  <SCORE.SYSTEM.DIHEDRAL>
0

>  <SCORE.SYSTEM.SOLV>
0

>  <SCORE.SYSTEM.norm>
0

>  <SCORE.heavy>
31

>  <SCORE.norm>
-0.73997

>  <RMSD>
6.680

$$$$
lig.pdb
 OpenBabel11021811453D
libRbt.so/2013.1/901 2013/11/27
 31 33  0  0  0  0  0  0  0  0999 V2000
    1.0184    8.4857    1.5533 O   0  0  0  0  0  0  0  0  0  0  0  0
    0.0888    7.8760    2.4275 C   0  0  0  0  0  0  0  0  0  0  0  0
    0.4472    6.4074    2.6921 C   0  0  1  0  0  0  0  0  0  0  0  0
   -0.5015    5.7770    3.5379 O   0  0  0  0  0  0  0  0  0  0  0  0
   -0.5091    4.3749    3.2871 C   0  0  1  0  0  0  0  0  0  0  0  0
   -1.8484    3.9179    3.1415 O   0  0  0  0  0  0  0  0  0  0  0  0
   -2.6660    3.9299    4.3009 C   0  0  2  0  0  0  0  0  0  0  0  0
   -2.8144    5.3912    4.7533 C   0  0  1  0  0  0  0  0  0  0  0  0
   -3.6082    6.1033    3.8172 O   0  0  0  0  0  0  0  0  0  0  0  0
   -3.4739    5.5564    6.1310 C   0  0  2  0  0  0  0  0  0  0  0  0
   -3.4947    6.9692    6.5405 N   0  0  0  0  0  0  0  0  0  0  0  0
   -2.7116    4.7390    7.1672 C   0  0  0  0  0  0  0  0  0  0  0  0
   -2.6505    3.2815    6.7271 C   0  0  2  0  0  0  0  0  0  0  0  0
   -1.9608    2.5103    7.7670 N   0  0  0  0  0  0  0  0  0  0  0  0
   -1.9426    3.1620    5.3603 C   0  0  1  0  0  0  0  0  0  0  0  0
   -1.9283    1.7586    5.0571 O   0  0  0  0  0  0  0  0  0  0  0  0
   -2.8303    1.3017    4.0550 C   0  0  1  0  0  0  0  0  0  0  0  0
   -2.1789    1.2216    2.7902 O   0  0  0  0  0  0  0  0  0  0  0  0
   -1.1847    0.2081    2.6561 C   0  0  2  0  0  0  0  0  0  0  0  0
   -0.5984    0.2713    1.2395 C   0  0  0  0  0  0  0  0  0  0  0  0
    0.7837    0.7292    1.2488 N   0  0  0  0  0  0  0  0  0  0  0  0
   -1.7863   -1.1866    2.9103 C   0  0  1  0  0  0  0  0  0  0  0  0
   -0.7690   -2.1691    2.8294 O   0  0  0  0  0  0  0  0  0  0  0  0
   -2.4185   -1.2038    4.3076 C   0  0  2  0  0  0  0  0  0  0  0  0
   -3.0574   -2.4456    4.5375 O   0  0  0  0  0  0  0  0  0  0  0  0
   -3.4213   -0.0526    4.4629 C   0  0  1  0  0  0  0  0  0  0  0  0
   -3.9236   -0.0032    5.8434 N   0  0  0  0  0  0  0  0  0  0  0  0
    0.2546    4.1541    1.9733 C   0  0  2  0  0  0  0  0  0  0  0  0
    1.4997    3.5359    2.2396 O   0  0  0  0  0  0  0  0  0  0  0  0
    0.3923    5.5708    1.4178 C   0  0  2  0  0  0  0  0  0  0  0  0
    1.5136    5.7443    0.5742 O   0  0  0  0  0  0  0  0  0  0  0  0
  2  1  1  0  0  0  0
  3  2  1  6  0  0  0
  3 30  1  0  0  0  0
  4  5  1  0  0  0  0
  4  3  1  0  0  0  0
  5 28  1  0  0  0  0
  5  6  1  6  0  0  0
  7  6  1  6  0  0  0
  8  7  1  0  0  0  0
  8  9  1  6  0  0  0
 10 11  1  1  0  0  0
 10  8  1  0  0  0  0
 12 10  1  0  0  0  0
 13 12  1  0  0  0  0
 13 15  1  0  0  0  0
 13 14  1  1  0  0  0
 15  7  1  0  0  0  0
 15 16  1  6  0  0  0
 17 16  1  1  0  0  0
 18 17  1  0  0  0  0
 19 20  1  6  0  0  0
 19 18  1  0  0  0  0
 20 21  1  0  0  0  0
 22 24  1  0  0  0  0
 22 19  1  0  0  0  0
 22 23  1  1  0  0  0
 24 25  1  6  0  0  0
 24 26  1  0  0  0  0
 26 17  1  0  0  0  0
 26 27  1  1  0  0  0
 28 29  1  1  0  0  0
 28 30  1  0  0  0  0
 30 31  1  1  0  0  0
M  END
>  <CHROM.1>
-59.94188323,-178.31769955,-68.71249305,63.10424182,88.64837585,-56.20482454
-45.79925467,-14.87024425,95.91797885,111.20060796,-79.82308463,-61.86786647
-59.31538200,67.66731059,-63.56501358,-176.82700092,-1.46550064,3.09236751
3.77445650,-1.16702766,-0.88889571,-2.97927559

>  <Name>
lig.pdb

>  <RI>
2.67765e+07

>  <Rbt.Current_Directory>
/home/itssahil/PROJECTS/Mol_Feturizer/New_Systems/rnas/2n0j

>  <Rbt.Executable>
rbdock ($Id: //depot/dev/client3/rdock/2013.1/src/exe/rbdock.cxx#4 $)

>  <Rbt.Library>
libRbt.so (2013.1, Build901 2013/11/27)

>  <Rbt.Parameter_File>
/export/apps/rDock/src/rDock_2013.1_src/data/scripts/dock_solv.prm

>  <Rbt.Receptor>
prm/pocket_docking_2.prm

>  <SCORE>
-20.1634

>  <SCORE.INTER>
-26.4768

>  <SCORE.INTER.CONST>
1

>  <SCORE.INTER.POLAR>
-2.99932

>  <SCORE.INTER.ROT>
6

>  <SCORE.INTER.SOLV>
15.4882

>  <SCORE.INTER.VDW>
-20.4162

>  <SCORE.INTER.norm>
-0.854091

>  <SCORE.INTRA>
3.66104

>  <SCORE.INTRA.DIHEDRAL>
-6.39361

>  <SCORE.INTRA.DIHEDRAL.0>
28.0161

>  <SCORE.INTRA.POLAR>
-0.010099

>  <SCORE.INTRA.POLAR.0>
-1.05798

>  <SCORE.INTRA.REPUL>
0.00136939

>  <SCORE.INTRA.REPUL.0>
0

>  <SCORE.INTRA.SOLV>
1.40745

>  <SCORE.INTRA.SOLV.lig_0>
-42.5945

>  <SCORE.INTRA.VDW>
6.18161

>  <SCORE.INTRA.VDW.0>
-5.13869

>  <SCORE.INTRA.norm>
0.118098

>  <SCORE.RESTR>
2.6524

>  <SCORE.RESTR.CAVITY>
2.6524

>  <SCORE.RESTR.norm>
0.0855613

>  <SCORE.SYSTEM>
0

>  <SCORE.SYSTEM.CONST>
0

>  <SCORE.SYSTEM.DIHEDRAL>
0

>  <SCORE.SYSTEM.SOLV>
0

>  <SCORE.SYSTEM.norm>
0

>  <SCORE.heavy>
31

>  <SCORE.norm>
-0.650432

>  <RMSD>
6.688

$$$$
lig.pdb
 OpenBabel11021811453D
libRbt.so/2013.1/901 2013/11/27
 31 33  0  0  0  0  0  0  0  0999 V2000
    1.1071    8.5735    2.0110 O   0  0  0  0  0  0  0  0  0  0  0  0
    2.4482    8.8308    2.3790 C   0  0  0  0  0  0  0  0  0  0  0  0
    3.3796    7.6945    1.9356 C   0  0  1  0  0  0  0  0  0  0  0  0
    3.0552    6.4682    2.5710 O   0  0  0  0  0  0  0  0  0  0  0  0
    3.4749    5.3799    1.7536 C   0  0  1  0  0  0  0  0  0  0  0  0
    2.4236    4.4283    1.6395 O   0  0  0  0  0  0  0  0  0  0  0  0
    2.3444    3.4280    2.6424 C   0  0  2  0  0  0  0  0  0  0  0  0
    3.2307    2.2523    2.2012 C   0  0  1  0  0  0  0  0  0  0  0  0
    4.5961    2.6336    2.2627 O   0  0  0  0  0  0  0  0  0  0  0  0
    3.0696    0.9894    3.0610 C   0  0  2  0  0  0  0  0  0  0  0  0
    3.8718   -0.1208    2.5243 N   0  0  0  0  0  0  0  0  0  0  0  0
    1.6020    0.5804    3.1040 C   0  0  0  0  0  0  0  0  0  0  0  0
    0.7607    1.7415    3.6197 C   0  0  2  0  0  0  0  0  0  0  0  0
   -0.6366    1.3027    3.7023 N   0  0  0  0  0  0  0  0  0  0  0  0
    0.9218    2.9717    2.7009 C   0  0  1  0  0  0  0  0  0  0  0  0
    0.0805    3.9873    3.2685 O   0  0  0  0  0  0  0  0  0  0  0  0
   -1.1827    4.2050    2.6492 C   0  0  1  0  0  0  0  0  0  0  0  0
   -2.2440    3.8891    3.5461 O   0  0  0  0  0  0  0  0  0  0  0  0
   -2.4051    4.7599    4.6638 C   0  0  2  0  0  0  0  0  0  0  0  0
   -3.5870    4.2687    5.5103 C   0  0  0  0  0  0  0  0  0  0  0  0
   -3.7448    5.0578    6.7236 N   0  0  0  0  0  0  0  0  0  0  0  0
   -2.6608    6.2058    4.1996 C   0  0  1  0  0  0  0  0  0  0  0  0
   -2.7587    7.0601    5.3253 O   0  0  0  0  0  0  0  0  0  0  0  0
   -1.4956    6.6505    3.3068 C   0  0  2  0  0  0  0  0  0  0  0  0
   -1.7434    7.9455    2.7924 O   0  0  0  0  0  0  0  0  0  0  0  0
   -1.2812    5.6542    2.1594 C   0  0  1  0  0  0  0  0  0  0  0  0
   -0.0853    6.0220    1.3881 N   0  0  0  0  0  0  0  0  0  0  0  0
    3.7938    5.9613    0.3685 C   0  0  2  0  0  0  0  0  0  0  0  0
    5.1919    5.9393    0.1487 O   0  0  0  0  0  0  0  0  0  0  0  0
    3.2198    7.3747    0.4527 C   0  0  2  0  0  0  0  0  0  0  0  0
    3.8612    8.3009   -0.4017 O   0  0  0  0  0  0  0  0  0  0  0  0
  2  1  1  0  0  0  0
  3  2  1  1  0  0  0
  3 30  1  0  0  0  0
  4  5  1  0  0  0  0
  4  3  1  0  0  0  0
  5 28  1  0  0  0  0
  5  6  1  6  0  0  0
  7  6  1  6  0  0  0
  8  7  1  0  0  0  0
  8  9  1  1  0  0  0
 10 11  1  6  0  0  0
 10  8  1  0  0  0  0
 12 10  1  0  0  0  0
 13 12  1  0  0  0  0
 13 15  1  0  0  0  0
 13 14  1  6  0  0  0
 15  7  1  0  0  0  0
 15 16  1  1  0  0  0
 17 16  1  1  0  0  0
 18 17  1  0  0  0  0
 19 20  1  6  0  0  0
 19 18  1  0  0  0  0
 20 21  1  0  0  0  0
 22 24  1  0  0  0  0
 22 19  1  0  0  0  0
 22 23  1  1  0  0  0
 24 25  1  6  0  0  0
 24 26  1  0  0  0  0
 26 17  1  0  0  0  0
 26 27  1  1  0  0  0
 28 29  1  1  0  0  0
 28 30  1  0  0  0  0
 30 31  1  6  0  0  0
M  END
>  <CHROM.1>
171.55833670,-62.90379956,-87.38498888,-87.95450335,170.67036354,79.21960889
-173.30939339,138.00030095,116.18594972,175.76333462,165.91797193,75.52647306
-56.02517531,-118.86788568,-57.21707033,64.49176144,0.92255244,4.88315943
2.72011415,0.07297376,0.47317528,-0.22227872

>  <Name>
lig.pdb

>  <RI>
3.32461e+07

>  <Rbt.Current_Directory>
/home/itssahil/PROJECTS/Mol_Feturizer/New_Systems/rnas/2n0j

>  <Rbt.Executable>
rbdock ($Id: //depot/dev/client3/rdock/2013.1/src/exe/rbdock.cxx#4 $)

>  <Rbt.Library>
libRbt.so (2013.1, Build901 2013/11/27)

>  <Rbt.Parameter_File>
/export/apps/rDock/src/rDock_2013.1_src/data/scripts/dock_solv.prm

>  <Rbt.Receptor>
prm/pocket_docking_7.prm

>  <SCORE>
-49.5351

>  <SCORE.INTER>
-44.1368

>  <SCORE.INTER.CONST>
1

>  <SCORE.INTER.POLAR>
-5.03624

>  <SCORE.INTER.ROT>
6

>  <SCORE.INTER.SOLV>
18.8967

>  <SCORE.INTER.VDW>
-26.536

>  <SCORE.INTER.norm>
-1.42377

>  <SCORE.INTRA>
-5.39828

>  <SCORE.INTRA.DIHEDRAL>
-1.40044

>  <SCORE.INTRA.DIHEDRAL.0>
28.0161

>  <SCORE.INTRA.POLAR>
-2.34141

>  <SCORE.INTRA.POLAR.0>
-1.05798

>  <SCORE.INTRA.REPUL>
0.00278804

>  <SCORE.INTRA.REPUL.0>
0

>  <SCORE.INTRA.SOLV>
3.28778

>  <SCORE.INTRA.SOLV.lig_0>
-42.5945

>  <SCORE.INTRA.VDW>
1.60491

>  <SCORE.INTRA.VDW.0>
-5.13869

>  <SCORE.INTRA.norm>
-0.174138

>  <SCORE.RESTR>
0

>  <SCORE.RESTR.CAVITY>
0

>  <SCORE.RESTR.norm>
0

>  <SCORE.SYSTEM>
0

>  <SCORE.SYSTEM.CONST>
0

>  <SCORE.SYSTEM.DIHEDRAL>
0

>  <SCORE.SYSTEM.SOLV>
0

>  <SCORE.SYSTEM.norm>
0

>  <SCORE.heavy>
31

>  <SCORE.norm>
-1.59791

>  <RMSD>
6.702

$$$$
lig.pdb
 OpenBabel11021811453D
libRbt.so/2013.1/901 2013/11/27
 31 33  0  0  0  0  0  0  0  0999 V2000
   -1.1544    0.2663    2.8327 O   0  0  0  0  0  0  0  0  0  0  0  0
   -0.4411   -0.4934    1.8766 C   0  0  0  0  0  0  0  0  0  0  0  0
    1.0539   -0.1469    1.8866 C   0  0  1  0  0  0  0  0  0  0  0  0
    1.2828    1.2115    1.5469 O   0  0  0  0  0  0  0  0  0  0  0  0
    2.5085    1.6495    2.1254 C   0  0  1  0  0  0  0  0  0  0  0  0
    2.3161    2.9009    2.7740 O   0  0  0  0  0  0  0  0  0  0  0  0
    2.3645    4.0642    1.9633 C   0  0  2  0  0  0  0  0  0  0  0  0
    3.7554    4.6955    2.1337 C   0  0  1  0  0  0  0  0  0  0  0  0
    4.7344    3.8655    1.5287 O   0  0  0  0  0  0  0  0  0  0  0  0
    3.8904    6.0921    1.5080 C   0  0  2  0  0  0  0  0  0  0  0  0
    5.2115    6.6730    1.7927 N   0  0  0  0  0  0  0  0  0  0  0  0
    2.8039    7.0088    2.0577 C   0  0  0  0  0  0  0  0  0  0  0  0
    1.4343    6.3916    1.8028 C   0  0  2  0  0  0  0  0  0  0  0  0
    0.4081    7.3187    2.2919 N   0  0  0  0  0  0  0  0  0  0  0  0
    1.3316    5.0107    2.4857 C   0  0  1  0  0  0  0  0  0  0  0  0
    0.0079    4.5366    2.1952 O   0  0  0  0  0  0  0  0  0  0  0  0
   -0.6026    3.6845    3.1585 C   0  0  1  0  0  0  0  0  0  0  0  0
   -0.9359    4.4141    4.3363 O   0  0  0  0  0  0  0  0  0  0  0  0
   -1.9843    5.3723    4.2088 C   0  0  2  0  0  0  0  0  0  0  0  0
   -2.2034    6.0528    5.5666 C   0  0  0  0  0  0  0  0  0  0  0  0
   -3.0101    7.2582    5.4406 N   0  0  0  0  0  0  0  0  0  0  0  0
   -3.2894    4.6983    3.7461 C   0  0  1  0  0  0  0  0  0  0  0  0
   -4.2980    5.6773    3.5706 O   0  0  0  0  0  0  0  0  0  0  0  0
   -3.0274    3.9752    2.4191 C   0  0  2  0  0  0  0  0  0  0  0  0
   -4.1858    3.2719    2.0111 O   0  0  0  0  0  0  0  0  0  0  0  0
   -1.8396    3.0126    2.5517 C   0  0  1  0  0  0  0  0  0  0  0  0
   -1.5190    2.4229    1.2441 N   0  0  0  0  0  0  0  0  0  0  0  0
    2.9144    0.5912    3.1614 C   0  0  2  0  0  0  0  0  0  0  0  0
    4.0381   -0.1318    2.6944 O   0  0  0  0  0  0  0  0  0  0  0  0
    1.6553   -0.2657    3.2834 C   0  0  2  0  0  0  0  0  0  0  0  0
    1.9106   -1.5981    3.6818 O   0  0  0  0  0  0  0  0  0  0  0  0
  2  1  1  0  0  0  0
  3  2  1  1  0  0  0
  3 30  1  0  0  0  0
  4  5  1  0  0  0  0
  4  3  1  0  0  0  0
  5 28  1  0  0  0  0
  5  6  1  1  0  0  0
  7  6  1  1  0  0  0
  8  7  1  0  0  0  0
  8  9  1  6  0  0  0
 10 11  1  1  0  0  0
 10  8  1  0  0  0  0
 12 10  1  0  0  0  0
 13 12  1  0  0  0  0
 13 15  1  0  0  0  0
 13 14  1  1  0  0  0
 15  7  1  0  0  0  0
 15 16  1  6  0  0  0
 17 16  1  6  0  0  0
 18 17  1  0  0  0  0
 19 20  1  1  0  0  0
 19 18  1  0  0  0  0
 20 21  1  0  0  0  0
 22 24  1  0  0  0  0
 22 19  1  0  0  0  0
 22 23  1  6  0  0  0
 24 25  1  1  0  0  0
 24 26  1  0  0  0  0
 26 17  1  0  0  0  0
 26 27  1  6  0  0  0
 28 29  1  6  0  0  0
 28 30  1  0  0  0  0
 30 31  1  6  0  0  0
M  END
>  <CHROM.1>
-58.39903861,-61.89328402,-82.76687261,-100.23841879,65.56069289,-50.99980778
65.87045284,89.36920309,70.22279549,165.66479723,80.54872033,66.11081125
-54.64557334,137.78610231,74.27887665,69.52397677,0.46942120,3.53027696,2.70703553
0.59503503,-0.20529399,-3.10013024

>  <Name>
lig.pdb

>  <RI>
2.74555e+07

>  <Rbt.Current_Directory>
/home/itssahil/PROJECTS/Mol_Feturizer/New_Systems/rnas/2n0j

>  <Rbt.Executable>
rbdock ($Id: //depot/dev/client3/rdock/2013.1/src/exe/rbdock.cxx#4 $)

>  <Rbt.Library>
libRbt.so (2013.1, Build901 2013/11/27)

>  <Rbt.Parameter_File>
/export/apps/rDock/src/rDock_2013.1_src/data/scripts/dock_solv.prm

>  <Rbt.Receptor>
prm/pocket_docking_6.prm

>  <SCORE>
-55.302

>  <SCORE.INTER>
-51.7812

>  <SCORE.INTER.CONST>
1

>  <SCORE.INTER.POLAR>
-6.44148

>  <SCORE.INTER.ROT>
6

>  <SCORE.INTER.SOLV>
19.2599

>  <SCORE.INTER.VDW>
-27.0691

>  <SCORE.INTER.norm>
-1.67036

>  <SCORE.INTRA>
-3.52088

>  <SCORE.INTRA.DIHEDRAL>
-9.34368

>  <SCORE.INTRA.DIHEDRAL.0>
28.0161

>  <SCORE.INTRA.POLAR>
-0.193676

>  <SCORE.INTRA.POLAR.0>
-1.05798

>  <SCORE.INTRA.REPUL>
0

>  <SCORE.INTRA.REPUL.0>
0

>  <SCORE.INTRA.SOLV>
2.44357

>  <SCORE.INTRA.SOLV.lig_0>
-42.5945

>  <SCORE.INTRA.VDW>
0.58767

>  <SCORE.INTRA.VDW.0>
-5.13869

>  <SCORE.INTRA.norm>
-0.113577

>  <SCORE.RESTR>
0

>  <SCORE.RESTR.CAVITY>
0

>  <SCORE.RESTR.norm>
0

>  <SCORE.SYSTEM>
0

>  <SCORE.SYSTEM.CONST>
0

>  <SCORE.SYSTEM.DIHEDRAL>
0

>  <SCORE.SYSTEM.SOLV>
0

>  <SCORE.SYSTEM.norm>
0

>  <SCORE.heavy>
31

>  <SCORE.norm>
-1.78394

>  <RMSD>
6.712

$$$$
lig.pdb
 OpenBabel11021811453D
libRbt.so/2013.1/901 2013/11/27
 31 33  0  0  0  0  0  0  0  0999 V2000
   -4.7154   -1.1241    0.3249 O   0  0  0  0  0  0  0  0  0  0  0  0
   -3.8689   -1.5055    1.3917 C   0  0  0  0  0  0  0  0  0  0  0  0
   -2.4361   -0.9980    1.1801 C   0  0  1  0  0  0  0  0  0  0  0  0
   -2.3751    0.4194    1.1659 O   0  0  0  0  0  0  0  0  0  0  0  0
   -1.0778    0.8466    1.5700 C   0  0  1  0  0  0  0  0  0  0  0  0
   -1.1908    1.8741    2.5475 O   0  0  0  0  0  0  0  0  0  0  0  0
   -0.9535    3.2052    2.1177 C   0  0  2  0  0  0  0  0  0  0  0  0
    0.5629    3.4499    2.1690 C   0  0  1  0  0  0  0  0  0  0  0  0
    1.2046    2.6878    1.1585 O   0  0  0  0  0  0  0  0  0  0  0  0
    0.9680    4.9172    1.9614 C   0  0  2  0  0  0  0  0  0  0  0  0
    2.4202    5.0916    2.1195 N   0  0  0  0  0  0  0  0  0  0  0  0
    0.2386    5.7992    2.9679 C   0  0  0  0  0  0  0  0  0  0  0  0
   -1.2653    5.5911    2.8373 C   0  0  2  0  0  0  0  0  0  0  0  0
   -1.9425    6.4905    3.7775 N   0  0  0  0  0  0  0  0  0  0  0  0
   -1.6277    4.1128    3.0960 C   0  0  1  0  0  0  0  0  0  0  0  0
   -3.0555    4.0392    2.9640 O   0  0  0  0  0  0  0  0  0  0  0  0
   -3.6643    2.7728    3.1926 C   0  0  1  0  0  0  0  0  0  0  0  0
   -3.2798    2.2513    4.4618 O   0  0  0  0  0  0  0  0  0  0  0  0
   -3.7861    2.9373    5.6049 C   0  0  2  0  0  0  0  0  0  0  0  0
   -3.2732    2.2388    6.8712 C   0  0  0  0  0  0  0  0  0  0  0  0
   -3.6163    0.8239    6.8821 N   0  0  0  0  0  0  0  0  0  0  0  0
   -5.3260    2.9463    5.6010 C   0  0  1  0  0  0  0  0  0  0  0  0
   -5.8036    3.6825    6.7130 O   0  0  0  0  0  0  0  0  0  0  0  0
   -5.8122    3.5940    4.2985 C   0  0  2  0  0  0  0  0  0  0  0  0
   -7.2244    3.5383    4.2248 O   0  0  0  0  0  0  0  0  0  0  0  0
   -5.1879    2.8983    3.0814 C   0  0  1  0  0  0  0  0  0  0  0  0
   -5.5601    3.6071    1.8486 N   0  0  0  0  0  0  0  0  0  0  0  0
   -0.3796   -0.3742    2.1867 C   0  0  2  0  0  0  0  0  0  0  0  0
    0.6475   -0.8265    1.3241 O   0  0  0  0  0  0  0  0  0  0  0  0
   -1.5218   -1.3773    2.3407 C   0  0  2  0  0  0  0  0  0  0  0  0
   -1.1006   -2.7268    2.3161 O   0  0  0  0  0  0  0  0  0  0  0  0
  2  1  1  0  0  0  0
  3  2  1  1  0  0  0
  3 30  1  0  0  0  0
  4  5  1  0  0  0  0
  4  3  1  0  0  0  0
  5 28  1  0  0  0  0
  5  6  1  1  0  0  0
  7  6  1  1  0  0  0
  8  7  1  0  0  0  0
  8  9  1  6  0  0  0
 10 11  1  1  0  0  0
 10  8  1  0  0  0  0
 12 10  1  0  0  0  0
 13 12  1  0  0  0  0
 13 15  1  0  0  0  0
 13 14  1  1  0  0  0
 15  7  1  0  0  0  0
 15 16  1  6  0  0  0
 17 16  1  1  0  0  0
 18 17  1  0  0  0  0
 19 20  1  1  0  0  0
 19 18  1  0  0  0  0
 20 21  1  0  0  0  0
 22 24  1  0  0  0  0
 22 19  1  0  0  0  0
 22 23  1  1  0  0  0
 24 25  1  6  0  0  0
 24 26  1  0  0  0  0
 26 17  1  0  0  0  0
 26 27  1  6  0  0  0
 28 29  1  6  0  0  0
 28 30  1  0  0  0  0
 30 31  1  6  0  0  0
M  END
>  <CHROM.1>
-179.76662687,63.37914115,-103.33063207,-84.63760330,58.61567440,-58.00654526
-25.55876436,60.83902915,53.73432257,-55.52061906,59.71882108,-179.39859104
-173.39372739,-83.68089132,-60.51495500,-178.60769757,-2.40970331,2.26854882
3.03848780,0.55018625,-0.43778498,-2.80459641

>  <Name>
lig.pdb

>  <RI>
0

>  <Rbt.Current_Directory>
/home/itssahil/PROJECTS/Mol_Feturizer/New_Systems/rnas/2n0j

>  <Rbt.Executable>
rbdock ($Id: //depot/dev/client3/rdock/2013.1/src/exe/rbdock.cxx#4 $)

>  <Rbt.Library>
libRbt.so (2013.1, Build901 2013/11/27)

>  <Rbt.Parameter_File>
/export/apps/rDock/src/rDock_2013.1_src/data/scripts/dock_solv.prm

>  <Rbt.Receptor>
prm/pocket_docking_8.prm

>  <SCORE>
-29.1098

>  <SCORE.INTER>
-27.4239

>  <SCORE.INTER.CONST>
1

>  <SCORE.INTER.POLAR>
-3.73047

>  <SCORE.INTER.ROT>
6

>  <SCORE.INTER.SOLV>
11.9657

>  <SCORE.INTER.VDW>
-17.4362

>  <SCORE.INTER.norm>
-0.884641

>  <SCORE.INTRA>
-1.68596

>  <SCORE.INTRA.DIHEDRAL>
-15.1813

>  <SCORE.INTRA.DIHEDRAL.0>
28.0161

>  <SCORE.INTRA.POLAR>
0.990576

>  <SCORE.INTRA.POLAR.0>
-1.05798

>  <SCORE.INTRA.REPUL>
0

>  <SCORE.INTRA.REPUL.0>
0

>  <SCORE.INTRA.SOLV>
-0.276758

>  <SCORE.INTRA.SOLV.lig_0>
-42.5945

>  <SCORE.INTRA.VDW>
2.67512

>  <SCORE.INTRA.VDW.0>
-5.13869

>  <SCORE.INTRA.norm>
-0.0543857

>  <SCORE.RESTR>
0

>  <SCORE.RESTR.CAVITY>
0

>  <SCORE.RESTR.norm>
0

>  <SCORE.SYSTEM>
0

>  <SCORE.SYSTEM.CONST>
0

>  <SCORE.SYSTEM.DIHEDRAL>
0

>  <SCORE.SYSTEM.SOLV>
0

>  <SCORE.SYSTEM.norm>
0

>  <SCORE.heavy>
31

>  <SCORE.norm>
-0.939027

>  <RMSD>
6.716

$$$$
lig.pdb
 OpenBabel11021811453D
libRbt.so/2013.1/901 2013/11/27
 31 33  0  0  0  0  0  0  0  0999 V2000
    2.4417    6.4078    1.2624 O   0  0  0  0  0  0  0  0  0  0  0  0
    3.2758    5.9013    2.2860 C   0  0  0  0  0  0  0  0  0  0  0  0
    2.9677    4.4275    2.5830 C   0  0  1  0  0  0  0  0  0  0  0  0
    1.6077    4.2340    2.9377 O   0  0  0  0  0  0  0  0  0  0  0  0
    1.2154    2.9019    2.6209 C   0  0  1  0  0  0  0  0  0  0  0  0
   -0.0243    2.9168    1.9231 O   0  0  0  0  0  0  0  0  0  0  0  0
   -1.1661    3.3562    2.6415 C   0  0  2  0  0  0  0  0  0  0  0  0
   -1.2204    4.8889    2.5412 C   0  0  1  0  0  0  0  0  0  0  0  0
   -1.5358    5.2701    1.2113 O   0  0  0  0  0  0  0  0  0  0  0  0
   -2.2628    5.5403    3.4628 C   0  0  2  0  0  0  0  0  0  0  0  0
   -2.1920    7.0076    3.3861 N   0  0  0  0  0  0  0  0  0  0  0  0
   -2.0266    5.0955    4.9013 C   0  0  0  0  0  0  0  0  0  0  0  0
   -2.0570    3.5740    4.9795 C   0  0  2  0  0  0  0  0  0  0  0  0
   -1.8821    3.1768    6.3807 N   0  0  0  0  0  0  0  0  0  0  0  0
   -0.9658    2.9673    4.0712 C   0  0  1  0  0  0  0  0  0  0  0  0
   -1.0763    1.5454    4.2362 O   0  0  0  0  0  0  0  0  0  0  0  0
   -2.1715    0.9004    3.5950 C   0  0  1  0  0  0  0  0  0  0  0  0
   -1.9273    0.7642    2.1977 O   0  0  0  0  0  0  0  0  0  0  0  0
   -0.8975   -0.1486    1.8238 C   0  0  2  0  0  0  0  0  0  0  0  0
   -0.7791   -0.1648    0.2939 C   0  0  0  0  0  0  0  0  0  0  0  0
    0.2861    0.7110   -0.1729 N   0  0  0  0  0  0  0  0  0  0  0  0
   -1.2086   -1.5665    2.3382 C   0  0  1  0  0  0  0  0  0  0  0  0
   -0.1451   -2.4409    2.0055 O   0  0  0  0  0  0  0  0  0  0  0  0
   -1.3822   -1.5114    3.8611 C   0  0  2  0  0  0  0  0  0  0  0  0
   -1.7557   -2.7841    4.3547 O   0  0  0  0  0  0  0  0  0  0  0  0
   -2.4315   -0.4611    4.2495 C   0  0  1  0  0  0  0  0  0  0  0  0
   -2.4960   -0.3283    5.7119 N   0  0  0  0  0  0  0  0  0  0  0  0
    2.3088    2.3204    1.7129 C   0  0  2  0  0  0  0  0  0  0  0  0
    3.0485    1.3413    2.4184 O   0  0  0  0  0  0  0  0  0  0  0  0
    3.1361    3.5513    1.3458 C   0  0  2  0  0  0  0  0  0  0  0  0
    4.4839    3.2585    1.0347 O   0  0  0  0  0  0  0  0  0  0  0  0
  2  1  1  0  0  0  0
  3  2  1  6  0  0  0
  3 30  1  0  0  0  0
  4  5  1  0  0  0  0
  4  3  1  0  0  0  0
  5 28  1  0  0  0  0
  5  6  1  6  0  0  0
  7  6  1  6  0  0  0
  8  7  1  0  0  0  0
  8  9  1  6  0  0  0
 10 11  1  1  0  0  0
 10  8  1  0  0  0  0
 12 10  1  0  0  0  0
 13 12  1  0  0  0  0
 13 15  1  0  0  0  0
 13 14  1  1  0  0  0
 15  7  1  0  0  0  0
 15 16  1  6  0  0  0
 17 16  1  1  0  0  0
 18 17  1  0  0  0  0
 19 20  1  6  0  0  0
 19 18  1  0  0  0  0
 20 21  1  0  0  0  0
 22 24  1  0  0  0  0
 22 19  1  0  0  0  0
 22 23  1  1  0  0  0
 24 25  1  6  0  0  0
 24 26  1  0  0  0  0
 26 17  1  0  0  0  0
 26 27  1  1  0  0  0
 28 29  1  1  0  0  0
 28 30  1  0  0  0  0
 30 31  1  1  0  0  0
M  END
>  <CHROM.1>
-59.23570915,-56.92714395,-66.38350402,85.56832808,47.82590062,59.75113755
61.92225307,-45.85947860,76.64737337,97.02757020,66.28878276,158.57121249
-177.56253128,-71.44131717,-66.61293872,178.08280081,-0.19899111,2.33586573
2.83928897,-1.02580965,-0.57819690,-3.03759900

>  <Name>
lig.pdb

>  <RI>
2.74555e+07

>  <Rbt.Current_Directory>
/home/itssahil/PROJECTS/Mol_Feturizer/New_Systems/rnas/2n0j

>  <Rbt.Executable>
rbdock ($Id: //depot/dev/client3/rdock/2013.1/src/exe/rbdock.cxx#4 $)

>  <Rbt.Library>
libRbt.so (2013.1, Build901 2013/11/27)

>  <Rbt.Parameter_File>
/export/apps/rDock/src/rDock_2013.1_src/data/scripts/dock_solv.prm

>  <Rbt.Receptor>
prm/pocket_docking_6.prm

>  <SCORE>
-47.4366

>  <SCORE.INTER>
-45.3304

>  <SCORE.INTER.CONST>
1

>  <SCORE.INTER.POLAR>
-6.06971

>  <SCORE.INTER.ROT>
6

>  <SCORE.INTER.SOLV>
17.1383

>  <SCORE.INTER.VDW>
-23.3007

>  <SCORE.INTER.norm>
-1.46227

>  <SCORE.INTRA>
-2.10619

>  <SCORE.INTRA.DIHEDRAL>
-15.4079

>  <SCORE.INTRA.DIHEDRAL.0>
28.0161

>  <SCORE.INTRA.POLAR>
0.0335865

>  <SCORE.INTRA.POLAR.0>
-1.05798

>  <SCORE.INTRA.REPUL>
0

>  <SCORE.INTRA.REPUL.0>
0

>  <SCORE.INTRA.SOLV>
1.39568

>  <SCORE.INTRA.SOLV.lig_0>
-42.5945

>  <SCORE.INTRA.VDW>
4.78571

>  <SCORE.INTRA.VDW.0>
-5.13869

>  <SCORE.INTRA.norm>
-0.0679415

>  <SCORE.RESTR>
0

>  <SCORE.RESTR.CAVITY>
0

>  <SCORE.RESTR.norm>
0

>  <SCORE.SYSTEM>
0

>  <SCORE.SYSTEM.CONST>
0

>  <SCORE.SYSTEM.DIHEDRAL>
0

>  <SCORE.SYSTEM.SOLV>
0

>  <SCORE.SYSTEM.norm>
0

>  <SCORE.heavy>
31

>  <SCORE.norm>
-1.53021

>  <RMSD>
6.725

$$$$
lig.pdb
 OpenBabel11021811453D
libRbt.so/2013.1/901 2013/11/27
 31 33  0  0  0  0  0  0  0  0999 V2000
    3.6018    5.3472    0.3145 O   0  0  0  0  0  0  0  0  0  0  0  0
    3.2788    6.5512    0.9824 C   0  0  0  0  0  0  0  0  0  0  0  0
    1.7601    6.7355    1.1039 C   0  0  1  0  0  0  0  0  0  0  0  0
    1.1160    5.5433    1.5247 O   0  0  0  0  0  0  0  0  0  0  0  0
   -0.1020    5.8662    2.1887 C   0  0  1  0  0  0  0  0  0  0  0  0
   -0.1927    5.1420    3.4098 O   0  0  0  0  0  0  0  0  0  0  0  0
   -1.4932    4.8177    3.8749 C   0  0  2  0  0  0  0  0  0  0  0  0
   -1.9761    5.9777    4.7600 C   0  0  1  0  0  0  0  0  0  0  0  0
   -2.2195    7.1222    3.9573 O   0  0  0  0  0  0  0  0  0  0  0  0
   -3.2690    5.6789    5.5340 C   0  0  2  0  0  0  0  0  0  0  0  0
   -3.6172    6.7920    6.4305 N   0  0  0  0  0  0  0  0  0  0  0  0
   -3.0959    4.4042    6.3514 C   0  0  0  0  0  0  0  0  0  0  0  0
   -2.6939    3.2564    5.4332 C   0  0  2  0  0  0  0  0  0  0  0  0
   -2.5881    2.0336    6.2364 N   0  0  0  0  0  0  0  0  0  0  0  0
   -1.3693    3.5845    4.7112 C   0  0  1  0  0  0  0  0  0  0  0  0
   -1.0830    2.4383    3.8953 O   0  0  0  0  0  0  0  0  0  0  0  0
    0.2875    2.1442    3.6467 C   0  0  1  0  0  0  0  0  0  0  0  0
    0.7535    1.1302    4.5328 O   0  0  0  0  0  0  0  0  0  0  0  0
    0.2185   -0.1764    4.3326 C   0  0  2  0  0  0  0  0  0  0  0  0
    0.8310   -1.1283    5.3686 C   0  0  0  0  0  0  0  0  0  0  0  0
    2.2221   -0.7996    5.6455 N   0  0  0  0  0  0  0  0  0  0  0  0
    0.5270   -0.6832    2.9115 C   0  0  1  0  0  0  0  0  0  0  0  0
   -0.0639   -1.9559    2.7178 O   0  0  0  0  0  0  0  0  0  0  0  0
   -0.0424    0.3164    1.8971 C   0  0  2  0  0  0  0  0  0  0  0  0
    0.3011   -0.0762    0.5814 O   0  0  0  0  0  0  0  0  0  0  0  0
    0.4757    1.7325    2.1822 C   0  0  1  0  0  0  0  0  0  0  0  0
   -0.1750    2.6984    1.2854 N   0  0  0  0  0  0  0  0  0  0  0  0
   -0.0604    7.3721    2.4867 C   0  0  2  0  0  0  0  0  0  0  0  0
   -0.9824    8.0518    1.6553 O   0  0  0  0  0  0  0  0  0  0  0  0
    1.3947    7.7362    2.1957 C   0  0  2  0  0  0  0  0  0  0  0  0
    1.5781    9.0856    1.8155 O   0  0  0  0  0  0  0  0  0  0  0  0
  2  1  1  0  0  0  0
  3  2  1  1  0  0  0
  3 30  1  0  0  0  0
  4  5  1  0  0  0  0
  4  3  1  0  0  0  0
  5 28  1  0  0  0  0
  5  6  1  1  0  0  0
  7  6  1  1  0  0  0
  8  7  1  0  0  0  0
  8  9  1  6  0  0  0
 10 11  1  1  0  0  0
 10  8  1  0  0  0  0
 12 10  1  0  0  0  0
 13 12  1  0  0  0  0
 13 15  1  0  0  0  0
 13 14  1  1  0  0  0
 15  7  1  0  0  0  0
 15 16  1  6  0  0  0
 17 16  1  1  0  0  0
 18 17  1  0  0  0  0
 19 20  1  1  0  0  0
 19 18  1  0  0  0  0
 20 21  1  0  0  0  0
 22 24  1  0  0  0  0
 22 19  1  0  0  0  0
 22 23  1  6  0  0  0
 24 25  1  6  0  0  0
 24 26  1  0  0  0  0
 26 17  1  0  0  0  0
 26 27  1  6  0  0  0
 28 29  1  6  0  0  0
 28 30  1  0  0  0  0
 30 31  1  6  0  0  0
M  END
>  <CHROM.1>
-178.84747244,45.31740223,-150.71658923,-89.41143429,-114.54163702,100.54390572
-175.99027613,89.28009705,98.21109548,-35.93099048,43.06979608,-63.56472641
-58.24364930,-48.37338365,50.34844577,74.88111119,-0.19679245,3.76386465
3.33641348,-1.61657669,-0.76824800,2.94919808

>  <Name>
lig.pdb

>  <RI>
0

>  <Rbt.Current_Directory>
/home/itssahil/PROJECTS/Mol_Feturizer/New_Systems/rnas/2n0j

>  <Rbt.Executable>
rbdock ($Id: //depot/dev/client3/rdock/2013.1/src/exe/rbdock.cxx#4 $)

>  <Rbt.Library>
libRbt.so (2013.1, Build901 2013/11/27)

>  <Rbt.Parameter_File>
/export/apps/rDock/src/rDock_2013.1_src/data/scripts/dock_solv.prm

>  <Rbt.Receptor>
prm/pocket_docking_8.prm

>  <SCORE>
-44.3224

>  <SCORE.INTER>
-48.3112

>  <SCORE.INTER.CONST>
1

>  <SCORE.INTER.POLAR>
-6.52042

>  <SCORE.INTER.ROT>
6

>  <SCORE.INTER.SOLV>
18.6451

>  <SCORE.INTER.VDW>
-24.2878

>  <SCORE.INTER.norm>
-1.55843

>  <SCORE.INTRA>
3.98883

>  <SCORE.INTRA.DIHEDRAL>
2.61589

>  <SCORE.INTRA.DIHEDRAL.0>
28.0161

>  <SCORE.INTRA.POLAR>
-0.313754

>  <SCORE.INTRA.POLAR.0>
-1.05798

>  <SCORE.INTRA.REPUL>
0

>  <SCORE.INTRA.REPUL.0>
0

>  <SCORE.INTRA.SOLV>
0.934395

>  <SCORE.INTRA.SOLV.lig_0>
-42.5945

>  <SCORE.INTRA.VDW>
3.28045

>  <SCORE.INTRA.VDW.0>
-5.13869

>  <SCORE.INTRA.norm>
0.128672

>  <SCORE.RESTR>
0

>  <SCORE.RESTR.CAVITY>
0

>  <SCORE.RESTR.norm>
0

>  <SCORE.SYSTEM>
0

>  <SCORE.SYSTEM.CONST>
0

>  <SCORE.SYSTEM.DIHEDRAL>
0

>  <SCORE.SYSTEM.SOLV>
0

>  <SCORE.SYSTEM.norm>
0

>  <SCORE.heavy>
31

>  <SCORE.norm>
-1.42976

>  <RMSD>
6.745

$$$$
lig.pdb
 OpenBabel11021811453D
libRbt.so/2013.1/901 2013/11/27
 31 33  0  0  0  0  0  0  0  0999 V2000
   -0.9940   -0.1339    3.5233 O   0  0  0  0  0  0  0  0  0  0  0  0
   -0.2365   -0.8187    2.5449 C   0  0  0  0  0  0  0  0  0  0  0  0
    1.0461   -0.0536    2.1914 C   0  0  1  0  0  0  0  0  0  0  0  0
    0.7686    1.2661    1.7508 O   0  0  0  0  0  0  0  0  0  0  0  0
    1.8921    2.1028    2.0085 C   0  0  1  0  0  0  0  0  0  0  0  0
    1.4636    3.3082    2.6307 O   0  0  0  0  0  0  0  0  0  0  0  0
    1.1378    4.3956    1.7796 C   0  0  2  0  0  0  0  0  0  0  0  0
    2.4225    5.2053    1.5428 C   0  0  1  0  0  0  0  0  0  0  0  0
    3.3205    4.4536    0.7414 O   0  0  0  0  0  0  0  0  0  0  0  0
    2.1941    6.5496    0.8352 C   0  0  2  0  0  0  0  0  0  0  0  0
    3.4486    7.3107    0.7295 N   0  0  0  0  0  0  0  0  0  0  0  0
    1.1671    7.3692    1.6075 C   0  0  0  0  0  0  0  0  0  0  0  0
   -0.1209    6.5688    1.7567 C   0  0  2  0  0  0  0  0  0  0  0  0
   -1.1073    7.4008    2.4541 N   0  0  0  0  0  0  0  0  0  0  0  0
    0.1508    5.2487    2.5100 C   0  0  1  0  0  0  0  0  0  0  0  0
   -1.1226    4.5925    2.6055 O   0  0  0  0  0  0  0  0  0  0  0  0
   -1.1891    3.4177    3.4068 C   0  0  1  0  0  0  0  0  0  0  0  0
   -1.0610    3.7429    4.7883 O   0  0  0  0  0  0  0  0  0  0  0  0
   -2.1489    4.4570    5.3714 C   0  0  2  0  0  0  0  0  0  0  0  0
   -1.8374    4.7153    6.8515 C   0  0  0  0  0  0  0  0  0  0  0  0
   -2.5935    5.8457    7.3715 N   0  0  0  0  0  0  0  0  0  0  0  0
   -3.4592    3.6577    5.2455 C   0  0  1  0  0  0  0  0  0  0  0  0
   -4.5334    4.4119    5.7784 O   0  0  0  0  0  0  0  0  0  0  0  0
   -3.7152    3.3606    3.7627 C   0  0  2  0  0  0  0  0  0  0  0  0
   -4.8674    2.5512    3.6204 O   0  0  0  0  0  0  0  0  0  0  0  0
   -2.4989    2.6707    3.1304 C   0  0  1  0  0  0  0  0  0  0  0  0
   -2.7061    2.5073    1.6845 N   0  0  0  0  0  0  0  0  0  0  0  0
    2.8119    1.3300    2.9650 C   0  0  2  0  0  0  0  0  0  0  0  0
    3.9798    0.9177    2.2798 O   0  0  0  0  0  0  0  0  0  0  0  0
    1.9332    0.1633    3.4132 C   0  0  2  0  0  0  0  0  0  0  0  0
    2.6642   -0.9846    3.7969 O   0  0  0  0  0  0  0  0  0  0  0  0
  2  1  1  0  0  0  0
  3  2  1  1  0  0  0
  3 30  1  0  0  0  0
  4  5  1  0  0  0  0
  4  3  1  0  0  0  0
  5 28  1  0  0  0  0
  5  6  1  1  0  0  0
  7  6  1  1  0  0  0
  8  7  1  0  0  0  0
  8  9  1  6  0  0  0
 10 11  1  1  0  0  0
 10  8  1  0  0  0  0
 12 10  1  0  0  0  0
 13 12  1  0  0  0  0
 13 15  1  0  0  0  0
 13 14  1  1  0  0  0
 15  7  1  0  0  0  0
 15 16  1  6  0  0  0
 17 16  1  6  0  0  0
 18 17  1  0  0  0  0
 19 20  1  1  0  0  0
 19 18  1  0  0  0  0
 20 21  1  0  0  0  0
 22 24  1  0  0  0  0
 22 19  1  0  0  0  0
 22 23  1  6  0  0  0
 24 25  1  1  0  0  0
 24 26  1  0  0  0  0
 26 17  1  0  0  0  0
 26 27  1  6  0  0  0
 28 29  1  6  0  0  0
 28 30  1  0  0  0  0
 30 31  1  6  0  0  0
M  END
>  <CHROM.1>
70.82493117,-56.55380462,-90.39252520,-89.21639309,-61.45838831,-174.62896194
43.39308496,66.75899285,70.30172859,157.35279856,47.36454602,71.79667243
-177.15780084,58.24250493,-55.10319914,55.82165658,-0.14042907,3.46447139
3.06076358,2.96567902,0.50816977,-0.12040525

>  <Name>
lig.pdb

>  <RI>
3.33129e+07

>  <Rbt.Current_Directory>
/home/itssahil/PROJECTS/Mol_Feturizer/New_Systems/rnas/2n0j

>  <Rbt.Executable>
rbdock ($Id: //depot/dev/client3/rdock/2013.1/src/exe/rbdock.cxx#4 $)

>  <Rbt.Library>
libRbt.so (2013.1, Build901 2013/11/27)

>  <Rbt.Parameter_File>
/export/apps/rDock/src/rDock_2013.1_src/data/scripts/dock_solv.prm

>  <Rbt.Receptor>
prm/pocket_docking_4.prm

>  <SCORE>
-46.0438

>  <SCORE.INTER>
-44.0303

>  <SCORE.INTER.CONST>
1

>  <SCORE.INTER.POLAR>
-5.50919

>  <SCORE.INTER.ROT>
6

>  <SCORE.INTER.SOLV>
14.7455

>  <SCORE.INTER.VDW>
-23.5048

>  <SCORE.INTER.norm>
-1.42033

>  <SCORE.INTRA>
-2.33342

>  <SCORE.INTRA.DIHEDRAL>
-15.5002

>  <SCORE.INTRA.DIHEDRAL.0>
28.0161

>  <SCORE.INTRA.POLAR>
0.698114

>  <SCORE.INTRA.POLAR.0>
-1.05798

>  <SCORE.INTRA.REPUL>
0

>  <SCORE.INTRA.REPUL.0>
0

>  <SCORE.INTRA.SOLV>
1.18808

>  <SCORE.INTRA.SOLV.lig_0>
-42.5945

>  <SCORE.INTRA.VDW>
2.44904

>  <SCORE.INTRA.VDW.0>
-5.13869

>  <SCORE.INTRA.norm>
-0.0752716

>  <SCORE.RESTR>
0.319905

>  <SCORE.RESTR.CAVITY>
0.319905

>  <SCORE.RESTR.norm>
0.0103195

>  <SCORE.SYSTEM>
0

>  <SCORE.SYSTEM.CONST>
0

>  <SCORE.SYSTEM.DIHEDRAL>
0

>  <SCORE.SYSTEM.SOLV>
0

>  <SCORE.SYSTEM.norm>
0

>  <SCORE.heavy>
31

>  <SCORE.norm>
-1.48529

>  <RMSD>
6.750

$$$$
lig.pdb
 OpenBabel11021811453D
libRbt.so/2013.1/901 2013/11/27
 31 33  0  0  0  0  0  0  0  0999 V2000
   -4.6385    0.3350   -1.5566 O   0  0  0  0  0  0  0  0  0  0  0  0
   -3.6086   -0.2364   -0.7737 C   0  0  0  0  0  0  0  0  0  0  0  0
   -2.3541    0.6475   -0.7654 C   0  0  1  0  0  0  0  0  0  0  0  0
   -2.4948    1.7549    0.1102 O   0  0  0  0  0  0  0  0  0  0  0  0
   -1.2101    2.1788    0.5561 C   0  0  1  0  0  0  0  0  0  0  0  0
   -1.2237    2.3574    1.9673 O   0  0  0  0  0  0  0  0  0  0  0  0
   -0.2737    3.2578    2.5149 C   0  0  2  0  0  0  0  0  0  0  0  0
   -0.7862    4.6856    2.2679 C   0  0  1  0  0  0  0  0  0  0  0  0
   -1.9301    4.9286    3.0716 O   0  0  0  0  0  0  0  0  0  0  0  0
    0.2394    5.7834    2.5888 C   0  0  2  0  0  0  0  0  0  0  0  0
   -0.2831    7.1131    2.2382 N   0  0  0  0  0  0  0  0  0  0  0  0
    1.5278    5.5249    1.8166 C   0  0  0  0  0  0  0  0  0  0  0  0
    2.0514    4.1318    2.1439 C   0  0  2  0  0  0  0  0  0  0  0  0
    3.3177    3.9316    1.4311 N   0  0  0  0  0  0  0  0  0  0  0  0
    1.0049    3.0617    1.7652 C   0  0  1  0  0  0  0  0  0  0  0  0
    1.6069    1.8016    2.0988 O   0  0  0  0  0  0  0  0  0  0  0  0
    2.0046    1.6100    3.4522 C   0  0  1  0  0  0  0  0  0  0  0  0
    0.8743    1.6486    4.3191 O   0  0  0  0  0  0  0  0  0  0  0  0
   -0.0396    0.5591    4.2123 C   0  0  2  0  0  0  0  0  0  0  0  0
   -1.1824    0.7690    5.2146 C   0  0  0  0  0  0  0  0  0  0  0  0
   -1.5456   -0.4717    5.8845 N   0  0  0  0  0  0  0  0  0  0  0  0
    0.6669   -0.7789    4.4990 C   0  0  1  0  0  0  0  0  0  0  0  0
   -0.2460   -1.8487    4.3295 O   0  0  0  0  0  0  0  0  0  0  0  0
    1.8409   -0.9354    3.5245 C   0  0  2  0  0  0  0  0  0  0  0  0
    2.5646   -2.1153    3.8197 O   0  0  0  0  0  0  0  0  0  0  0  0
    2.7664    0.2870    3.5902 C   0  0  1  0  0  0  0  0  0  0  0  0
    3.8135    0.1835    2.5638 N   0  0  0  0  0  0  0  0  0  0  0  0
   -0.2215    1.0624    0.1893 C   0  0  2  0  0  0  0  0  0  0  0  0
    0.6182    1.4921   -0.8660 O   0  0  0  0  0  0  0  0  0  0  0  0
   -1.1424   -0.0910   -0.2057 C   0  0  2  0  0  0  0  0  0  0  0  0
   -0.5575   -0.9988   -1.1183 O   0  0  0  0  0  0  0  0  0  0  0  0
  2  1  1  0  0  0  0
  3  2  1  1  0  0  0
  3 30  1  0  0  0  0
  4  5  1  0  0  0  0
  4  3  1  0  0  0  0
  5 28  1  0  0  0  0
  5  6  1  1  0  0  0
  7  6  1  6  0  0  0
  8  7  1  0  0  0  0
  8  9  1  1  0  0  0
 10 11  1  6  0  0  0
 10  8  1  0  0  0  0
 12 10  1  0  0  0  0
 13 12  1  0  0  0  0
 13 15  1  0  0  0  0
 13 14  1  6  0  0  0
 15  7  1  0  0  0  0
 15 16  1  1  0  0  0
 17 16  1  6  0  0  0
 18 17  1  0  0  0  0
 19 20  1  1  0  0  0
 19 18  1  0  0  0  0
 20 21  1  0  0  0  0
 22 24  1  0  0  0  0
 22 19  1  0  0  0  0
 22 23  1  6  0  0  0
 24 25  1  1  0  0  0
 24 26  1  0  0  0  0
 26 17  1  0  0  0  0
 26 27  1  6  0  0  0
 28 29  1  6  0  0  0
 28 30  1  0  0  0  0
 30 31  1  6  0  0  0
M  END
>  <CHROM.1>
-55.80086722,77.84972897,-155.01728720,77.85694631,-173.03259080,-45.88128812
-2.16675718,-62.56069456,63.15138943,-138.33256007,-159.68138165,-176.92414726
-61.58114460,-45.20359075,88.18850335,162.94792289,0.03401823,1.64048725
2.08609764,2.13472533,-0.76641801,-0.16816745

>  <Name>
lig.pdb

>  <RI>
9.20816e+06

>  <Rbt.Current_Directory>
/home/itssahil/PROJECTS/Mol_Feturizer/New_Systems/rnas/2n0j

>  <Rbt.Executable>
rbdock ($Id: //depot/dev/client3/rdock/2013.1/src/exe/rbdock.cxx#4 $)

>  <Rbt.Library>
libRbt.so (2013.1, Build901 2013/11/27)

>  <Rbt.Parameter_File>
/export/apps/rDock/src/rDock_2013.1_src/data/scripts/dock_solv.prm

>  <Rbt.Receptor>
prm/blind_docking_100.prm

>  <SCORE>
-11.4458

>  <SCORE.INTER>
-23.4276

>  <SCORE.INTER.CONST>
1

>  <SCORE.INTER.POLAR>
-4.9871

>  <SCORE.INTER.ROT>
6

>  <SCORE.INTER.SOLV>
22.0916

>  <SCORE.INTER.VDW>
-13.9586

>  <SCORE.INTER.norm>
-0.755729

>  <SCORE.INTRA>
7.75008

>  <SCORE.INTRA.DIHEDRAL>
-7.83999

>  <SCORE.INTRA.DIHEDRAL.0>
28.0161

>  <SCORE.INTRA.POLAR>
0.375185

>  <SCORE.INTRA.POLAR.0>
-1.05798

>  <SCORE.INTRA.REPUL>
0.0778888

>  <SCORE.INTRA.REPUL.0>
0

>  <SCORE.INTRA.SOLV>
1.03538

>  <SCORE.INTRA.SOLV.lig_0>
-42.5945

>  <SCORE.INTRA.VDW>
9.48732

>  <SCORE.INTRA.VDW.0>
-5.13869

>  <SCORE.INTRA.norm>
0.250003

>  <SCORE.RESTR>
4.23171

>  <SCORE.RESTR.CAVITY>
4.23171

>  <SCORE.RESTR.norm>
0.136507

>  <SCORE.SYSTEM>
0

>  <SCORE.SYSTEM.CONST>
0

>  <SCORE.SYSTEM.DIHEDRAL>
0

>  <SCORE.SYSTEM.SOLV>
0

>  <SCORE.SYSTEM.norm>
0

>  <SCORE.heavy>
31

>  <SCORE.norm>
-0.369219

>  <RMSD>
6.755

$$$$
lig.pdb
 OpenBabel11021811453D
libRbt.so/2013.1/901 2013/11/27
 31 33  0  0  0  0  0  0  0  0999 V2000
    0.7255   -1.1019    6.4115 O   0  0  0  0  0  0  0  0  0  0  0  0
    1.6933   -0.8604    5.4089 C   0  0  0  0  0  0  0  0  0  0  0  0
    1.0669   -0.2048    4.1707 C   0  0  1  0  0  0  0  0  0  0  0  0
    0.3388    0.9661    4.5052 O   0  0  0  0  0  0  0  0  0  0  0  0
    0.2977    1.8413    3.3822 C   0  0  1  0  0  0  0  0  0  0  0  0
    0.6365    3.1623    3.7870 O   0  0  0  0  0  0  0  0  0  0  0  0
    0.4058    4.2048    2.8528 C   0  0  2  0  0  0  0  0  0  0  0  0
    1.7151    4.9951    2.7011 C   0  0  1  0  0  0  0  0  0  0  0  0
    2.6797    4.1983    2.0317 O   0  0  0  0  0  0  0  0  0  0  0  0
    1.5698    6.3013    1.9057 C   0  0  2  0  0  0  0  0  0  0  0  0
    2.8359    7.0502    1.8839 N   0  0  0  0  0  0  0  0  0  0  0  0
    0.4802    7.1650    2.5301 C   0  0  0  0  0  0  0  0  0  0  0  0
   -0.8238    6.3793    2.5937 C   0  0  2  0  0  0  0  0  0  0  0  0
   -1.8656    7.2513    3.1471 N   0  0  0  0  0  0  0  0  0  0  0  0
   -0.6395    5.0996    3.4376 C   0  0  1  0  0  0  0  0  0  0  0  0
   -1.9225    4.4549    3.4419 O   0  0  0  0  0  0  0  0  0  0  0  0
   -2.0890    3.3461    4.3190 C   0  0  1  0  0  0  0  0  0  0  0  0
   -1.9759    3.7582    5.6784 O   0  0  0  0  0  0  0  0  0  0  0  0
   -3.0284    4.5808    6.1774 C   0  0  2  0  0  0  0  0  0  0  0  0
   -2.7395    4.9214    7.6454 C   0  0  0  0  0  0  0  0  0  0  0  0
   -1.4566    5.5923    7.8000 N   0  0  0  0  0  0  0  0  0  0  0  0
   -4.3857    3.8619    6.0657 C   0  0  1  0  0  0  0  0  0  0  0  0
   -5.4205    4.7200    6.5123 O   0  0  0  0  0  0  0  0  0  0  0  0
   -4.6217    3.4789    4.5994 C   0  0  2  0  0  0  0  0  0  0  0  0
   -5.8216    2.7385    4.4768 O   0  0  0  0  0  0  0  0  0  0  0  0
   -3.4382    2.6686    4.0537 C   0  0  1  0  0  0  0  0  0  0  0  0
   -3.6176    2.4181    2.6164 N   0  0  0  0  0  0  0  0  0  0  0  0
    1.3417    1.3278    2.3799 C   0  0  2  0  0  0  0  0  0  0  0  0
    0.6917    0.7605    1.2577 O   0  0  0  0  0  0  0  0  0  0  0  0
    2.1273    0.3062    3.2006 C   0  0  2  0  0  0  0  0  0  0  0  0
    2.7238   -0.7117    2.4213 O   0  0  0  0  0  0  0  0  0  0  0  0
  2  1  1  0  0  0  0
  3  2  1  1  0  0  0
  3 30  1  0  0  0  0
  4  5  1  0  0  0  0
  4  3  1  0  0  0  0
  5 28  1  0  0  0  0
  5  6  1  1  0  0  0
  7  6  1  1  0  0  0
  8  7  1  0  0  0  0
  8  9  1  6  0  0  0
 10 11  1  1  0  0  0
 10  8  1  0  0  0  0
 12 10  1  0  0  0  0
 13 12  1  0  0  0  0
 13 15  1  0  0  0  0
 13 14  1  1  0  0  0
 15  7  1  0  0  0  0
 15 16  1  6  0  0  0
 17 16  1  6  0  0  0
 18 17  1  0  0  0  0
 19 20  1  1  0  0  0
 19 18  1  0  0  0  0
 20 21  1  0  0  0  0
 22 24  1  0  0  0  0
 22 19  1  0  0  0  0
 22 23  1  6  0  0  0
 24 25  1  1  0  0  0
 24 26  1  0  0  0  0
 26 17  1  0  0  0  0
 26 27  1  6  0  0  0
 28 29  1  6  0  0  0
 28 30  1  0  0  0  0
 30 31  1  6  0  0  0
M  END
>  <CHROM.1>
177.55714277,53.55186154,-168.59996772,-127.28669517,-65.59760761,57.62240959
96.37517067,68.37544818,64.45734149,57.90119416,-45.05081866,60.72570832
64.91899913,-54.41962663,177.59862002,166.14825793,-0.72958047,3.36812606
3.98539354,0.38427003,-0.50519311,2.90463890

>  <Name>
lig.pdb

>  <RI>
2.74555e+07

>  <Rbt.Current_Directory>
/home/itssahil/PROJECTS/Mol_Feturizer/New_Systems/rnas/2n0j

>  <Rbt.Executable>
rbdock ($Id: //depot/dev/client3/rdock/2013.1/src/exe/rbdock.cxx#4 $)

>  <Rbt.Library>
libRbt.so (2013.1, Build901 2013/11/27)

>  <Rbt.Parameter_File>
/export/apps/rDock/src/rDock_2013.1_src/data/scripts/dock_solv.prm

>  <Rbt.Receptor>
prm/pocket_docking_6.prm

>  <SCORE>
-46.6641

>  <SCORE.INTER>
-44.0986

>  <SCORE.INTER.CONST>
1

>  <SCORE.INTER.POLAR>
-5.45442

>  <SCORE.INTER.ROT>
6

>  <SCORE.INTER.SOLV>
15.7163

>  <SCORE.INTER.VDW>
-24.0564

>  <SCORE.INTER.norm>
-1.42253

>  <SCORE.INTRA>
-2.56556

>  <SCORE.INTRA.DIHEDRAL>
-15.2613

>  <SCORE.INTRA.DIHEDRAL.0>
28.0161

>  <SCORE.INTRA.POLAR>
0.95234

>  <SCORE.INTRA.POLAR.0>
-1.05798

>  <SCORE.INTRA.REPUL>
0

>  <SCORE.INTRA.REPUL.0>
0

>  <SCORE.INTRA.SOLV>
-0.580106

>  <SCORE.INTRA.SOLV.lig_0>
-42.5945

>  <SCORE.INTRA.VDW>
2.11718

>  <SCORE.INTRA.VDW.0>
-5.13869

>  <SCORE.INTRA.norm>
-0.0827601

>  <SCORE.RESTR>
0

>  <SCORE.RESTR.CAVITY>
0

>  <SCORE.RESTR.norm>
0

>  <SCORE.SYSTEM>
0

>  <SCORE.SYSTEM.CONST>
0

>  <SCORE.SYSTEM.DIHEDRAL>
0

>  <SCORE.SYSTEM.SOLV>
0

>  <SCORE.SYSTEM.norm>
0

>  <SCORE.heavy>
31

>  <SCORE.norm>
-1.50529

>  <RMSD>
6.758

$$$$
lig.pdb
 OpenBabel11021811453D
libRbt.so/2013.1/901 2013/11/27
 31 33  0  0  0  0  0  0  0  0999 V2000
   -1.3106    1.0589    1.3339 O   0  0  0  0  0  0  0  0  0  0  0  0
   -0.4659    0.0089    0.9049 C   0  0  0  0  0  0  0  0  0  0  0  0
    0.9710    0.2037    1.4075 C   0  0  1  0  0  0  0  0  0  0  0  0
    1.4409    1.5202    1.1646 O   0  0  0  0  0  0  0  0  0  0  0  0
    2.4483    1.8518    2.1153 C   0  0  1  0  0  0  0  0  0  0  0  0
    2.1875    3.1371    2.6665 O   0  0  0  0  0  0  0  0  0  0  0  0
    2.1203    4.2278    1.7618 C   0  0  2  0  0  0  0  0  0  0  0  0
    3.5595    4.6775    1.4638 C   0  0  1  0  0  0  0  0  0  0  0  0
    4.2201    3.6863    0.6927 O   0  0  0  0  0  0  0  0  0  0  0  0
    3.6545    5.9994    0.6869 C   0  0  2  0  0  0  0  0  0  0  0  0
    5.0558    6.4161    0.5229 N   0  0  0  0  0  0  0  0  0  0  0  0
    2.8852    7.0872    1.4271 C   0  0  0  0  0  0  0  0  0  0  0  0
    1.4428    6.6430    1.6371 C   0  0  2  0  0  0  0  0  0  0  0  0
    0.7138    7.7289    2.3012 N   0  0  0  0  0  0  0  0  0  0  0  0
    1.3970    5.3360    2.4576 C   0  0  1  0  0  0  0  0  0  0  0  0
    0.0032    5.0248    2.6060 O   0  0  0  0  0  0  0  0  0  0  0  0
   -0.5284    5.0395    3.9265 C   0  0  1  0  0  0  0  0  0  0  0  0
   -1.2902    6.2230    4.1492 O   0  0  0  0  0  0  0  0  0  0  0  0
   -2.5159    6.3288    3.4280 C   0  0  2  0  0  0  0  0  0  0  0  0
   -3.1942    7.6560    3.7928 C   0  0  0  0  0  0  0  0  0  0  0  0
   -3.3878    7.7844    5.2301 N   0  0  0  0  0  0  0  0  0  0  0  0
   -3.4529    5.1539    3.7646 C   0  0  1  0  0  0  0  0  0  0  0  0
   -4.6372    5.2496    2.9934 O   0  0  0  0  0  0  0  0  0  0  0  0
   -2.7288    3.8394    3.4482 C   0  0  2  0  0  0  0  0  0  0  0  0
   -3.5314    2.7377    3.8290 O   0  0  0  0  0  0  0  0  0  0  0  0
   -1.3723    3.7821    4.1636 C   0  0  1  0  0  0  0  0  0  0  0  0
   -0.6349    2.5789    3.7522 N   0  0  0  0  0  0  0  0  0  0  0  0
    2.3778    0.7931    3.2254 C   0  0  2  0  0  0  0  0  0  0  0  0
    3.5094   -0.0542    3.1534 O   0  0  0  0  0  0  0  0  0  0  0  0
    1.0652    0.0715    2.9242 C   0  0  2  0  0  0  0  0  0  0  0  0
    1.0334   -1.2658    3.3822 O   0  0  0  0  0  0  0  0  0  0  0  0
  2  1  1  0  0  0  0
  3  2  1  1  0  0  0
  3 30  1  0  0  0  0
  4  5  1  0  0  0  0
  4  3  1  0  0  0  0
  5 28  1  0  0  0  0
  5  6  1  1  0  0  0
  7  6  1  1  0  0  0
  8  7  1  0  0  0  0
  8  9  1  6  0  0  0
 10 11  1  1  0  0  0
 10  8  1  0  0  0  0
 12 10  1  0  0  0  0
 13 12  1  0  0  0  0
 13 15  1  0  0  0  0
 13 14  1  1  0  0  0
 15  7  1  0  0  0  0
 15 16  1  6  0  0  0
 17 16  1  6  0  0  0
 18 17  1  0  0  0  0
 19 20  1  1  0  0  0
 19 18  1  0  0  0  0
 20 21  1  0  0  0  0
 22 24  1  0  0  0  0
 22 19  1  0  0  0  0
 22 23  1  6  0  0  0
 24 25  1  1  0  0  0
 24 26  1  0  0  0  0
 26 17  1  0  0  0  0
 26 27  1  6  0  0  0
 28 29  1  6  0  0  0
 28 30  1  0  0  0  0
 30 31  1  6  0  0  0
M  END
>  <CHROM.1>
-178.86763824,-48.27167011,-58.69625019,-81.77355567,-158.79303555,-55.29824316
160.28401974,123.36325001,103.48100756,-55.47806309,-87.36054896,-71.74885634
-58.79683115,21.88100939,-179.34065160,177.85091361,0.33638650,3.87260952
2.60811459,0.65037303,-0.34923015,3.13163617

>  <Name>
lig.pdb

>  <RI>
3.32461e+07

>  <Rbt.Current_Directory>
/home/itssahil/PROJECTS/Mol_Feturizer/New_Systems/rnas/2n0j

>  <Rbt.Executable>
rbdock ($Id: //depot/dev/client3/rdock/2013.1/src/exe/rbdock.cxx#4 $)

>  <Rbt.Library>
libRbt.so (2013.1, Build901 2013/11/27)

>  <Rbt.Parameter_File>
/export/apps/rDock/src/rDock_2013.1_src/data/scripts/dock_solv.prm

>  <Rbt.Receptor>
prm/pocket_docking_7.prm

>  <SCORE>
-49.597

>  <SCORE.INTER>
-44.7096

>  <SCORE.INTER.CONST>
1

>  <SCORE.INTER.POLAR>
-4.24916

>  <SCORE.INTER.ROT>
6

>  <SCORE.INTER.SOLV>
18.2709

>  <SCORE.INTER.VDW>
-29.3328

>  <SCORE.INTER.norm>
-1.44225

>  <SCORE.INTRA>
-4.93661

>  <SCORE.INTRA.DIHEDRAL>
-4.28485

>  <SCORE.INTRA.DIHEDRAL.0>
28.0161

>  <SCORE.INTRA.POLAR>
-1.00518

>  <SCORE.INTRA.POLAR.0>
-1.05798

>  <SCORE.INTRA.REPUL>
0.00895366

>  <SCORE.INTRA.REPUL.0>
0

>  <SCORE.INTRA.SOLV>
2.42508

>  <SCORE.INTRA.SOLV.lig_0>
-42.5945

>  <SCORE.INTRA.VDW>
-0.633881

>  <SCORE.INTRA.VDW.0>
-5.13869

>  <SCORE.INTRA.norm>
-0.159246

>  <SCORE.RESTR>
0.0492268

>  <SCORE.RESTR.CAVITY>
0.0492268

>  <SCORE.RESTR.norm>
0.00158796

>  <SCORE.SYSTEM>
0

>  <SCORE.SYSTEM.CONST>
0

>  <SCORE.SYSTEM.DIHEDRAL>
0

>  <SCORE.SYSTEM.SOLV>
0

>  <SCORE.SYSTEM.norm>
0

>  <SCORE.heavy>
31

>  <SCORE.norm>
-1.5999

>  <RMSD>
6.758

$$$$
lig.pdb
 OpenBabel11021811453D
libRbt.so/2013.1/901 2013/11/27
 31 33  0  0  0  0  0  0  0  0999 V2000
    2.3039    9.3436    1.8293 O   0  0  0  0  0  0  0  0  0  0  0  0
    2.3029    8.1993    0.9983 C   0  0  0  0  0  0  0  0  0  0  0  0
    2.1131    6.9134    1.8142 C   0  0  1  0  0  0  0  0  0  0  0  0
    0.8192    6.8413    2.3918 O   0  0  0  0  0  0  0  0  0  0  0  0
    0.4631    5.4778    2.5992 C   0  0  1  0  0  0  0  0  0  0  0  0
   -0.8518    5.2426    2.1096 O   0  0  0  0  0  0  0  0  0  0  0  0
   -1.8772    5.0569    3.0724 C   0  0  2  0  0  0  0  0  0  0  0  0
   -1.9982    6.3569    3.8834 C   0  0  1  0  0  0  0  0  0  0  0  0
   -2.5360    7.3831    3.0642 O   0  0  0  0  0  0  0  0  0  0  0  0
   -2.9000    6.2409    5.1217 C   0  0  2  0  0  0  0  0  0  0  0  0
   -2.8916    7.4893    5.8999 N   0  0  0  0  0  0  0  0  0  0  0  0
   -2.4207    5.0919    6.0009 C   0  0  0  0  0  0  0  0  0  0  0  0
   -2.3872    3.8034    5.1881 C   0  0  2  0  0  0  0  0  0  0  0  0
   -1.9760    2.7069    6.0714 N   0  0  0  0  0  0  0  0  0  0  0  0
   -1.4367    3.9541    3.9808 C   0  0  1  0  0  0  0  0  0  0  0  0
   -1.4716    2.6880    3.3047 O   0  0  0  0  0  0  0  0  0  0  0  0
   -0.2209    2.0907    2.9798 C   0  0  1  0  0  0  0  0  0  0  0  0
    0.3187    1.4074    4.1079 O   0  0  0  0  0  0  0  0  0  0  0  0
   -0.3738    0.2323    4.5237 C   0  0  2  0  0  0  0  0  0  0  0  0
    0.3462   -0.3647    5.7402 C   0  0  0  0  0  0  0  0  0  0  0  0
    1.7663   -0.5579    5.4839 N   0  0  0  0  0  0  0  0  0  0  0  0
   -0.4248   -0.8050    3.3865 C   0  0  1  0  0  0  0  0  0  0  0  0
   -1.1669   -1.9372    3.8036 O   0  0  0  0  0  0  0  0  0  0  0  0
   -1.0935   -0.1640    2.1640 C   0  0  2  0  0  0  0  0  0  0  0  0
   -1.0768   -1.0644    1.0722 O   0  0  0  0  0  0  0  0  0  0  0  0
   -0.3886    1.1453    1.7849 C   0  0  1  0  0  0  0  0  0  0  0  0
   -1.1148    1.8127    0.6951 N   0  0  0  0  0  0  0  0  0  0  0  0
    1.4665    4.6302    1.8036 C   0  0  2  0  0  0  0  0  0  0  0  0
    2.3386    3.9579    2.6930 O   0  0  0  0  0  0  0  0  0  0  0  0
    2.1752    5.6684    0.9351 C   0  0  2  0  0  0  0  0  0  0  0  0
    3.4885    5.2983    0.5642 O   0  0  0  0  0  0  0  0  0  0  0  0
  2  1  1  0  0  0  0
  3  2  1  6  0  0  0
  3 30  1  0  0  0  0
  4  5  1  0  0  0  0
  4  3  1  0  0  0  0
  5 28  1  0  0  0  0
  5  6  1  6  0  0  0
  7  6  1  6  0  0  0
  8  7  1  0  0  0  0
  8  9  1  6  0  0  0
 10 11  1  1  0  0  0
 10  8  1  0  0  0  0
 12 10  1  0  0  0  0
 13 12  1  0  0  0  0
 13 15  1  0  0  0  0
 13 14  1  1  0  0  0
 15  7  1  0  0  0  0
 15 16  1  6  0  0  0
 17 16  1  1  0  0  0
 18 17  1  0  0  0  0
 19 20  1  1  0  0  0
 19 18  1  0  0  0  0
 20 21  1  0  0  0  0
 22 24  1  0  0  0  0
 22 19  1  0  0  0  0
 22 23  1  1  0  0  0
 24 25  1  6  0  0  0
 24 26  1  0  0  0  0
 26 17  1  0  0  0  0
 26 27  1  6  0  0  0
 28 29  1  1  0  0  0
 28 30  1  0  0  0  0
 30 31  1  1  0  0  0
M  END
>  <CHROM.1>
-55.52673961,67.30210700,-107.37996168,62.80233673,47.97093654,-68.36306209
179.30615358,108.71773679,81.69650036,-52.47788636,-58.47744930,-90.51415704
66.04705562,61.13775538,64.20990072,-44.06849759,-0.26385789,3.67210670,3.19306577
-1.38963811,-0.71361363,3.10053452

>  <Name>
lig.pdb

>  <RI>
0

>  <Rbt.Current_Directory>
/home/itssahil/PROJECTS/Mol_Feturizer/New_Systems/rnas/2n0j

>  <Rbt.Executable>
rbdock ($Id: //depot/dev/client3/rdock/2013.1/src/exe/rbdock.cxx#4 $)

>  <Rbt.Library>
libRbt.so (2013.1, Build901 2013/11/27)

>  <Rbt.Parameter_File>
/export/apps/rDock/src/rDock_2013.1_src/data/scripts/dock_solv.prm

>  <Rbt.Receptor>
prm/pocket_docking_5.prm

>  <SCORE>
-36.9947

>  <SCORE.INTER>
-39.6284

>  <SCORE.INTER.CONST>
1

>  <SCORE.INTER.POLAR>
-4.25105

>  <SCORE.INTER.ROT>
6

>  <SCORE.INTER.SOLV>
17.645

>  <SCORE.INTER.VDW>
-25.7304

>  <SCORE.INTER.norm>
-1.27834

>  <SCORE.INTRA>
2.46844

>  <SCORE.INTRA.DIHEDRAL>
-6.03034

>  <SCORE.INTRA.DIHEDRAL.0>
28.0161

>  <SCORE.INTRA.POLAR>
1.05494

>  <SCORE.INTRA.POLAR.0>
-1.05798

>  <SCORE.INTRA.REPUL>
0

>  <SCORE.INTRA.REPUL.0>
0

>  <SCORE.INTRA.SOLV>
0.339457

>  <SCORE.INTRA.SOLV.lig_0>
-42.5945

>  <SCORE.INTRA.VDW>
1.7271

>  <SCORE.INTRA.VDW.0>
-5.13869

>  <SCORE.INTRA.norm>
0.0796273

>  <SCORE.RESTR>
0.165305

>  <SCORE.RESTR.CAVITY>
0.165305

>  <SCORE.RESTR.norm>
0.00533243

>  <SCORE.SYSTEM>
0

>  <SCORE.SYSTEM.CONST>
0

>  <SCORE.SYSTEM.DIHEDRAL>
0

>  <SCORE.SYSTEM.SOLV>
0

>  <SCORE.SYSTEM.norm>
0

>  <SCORE.heavy>
31

>  <SCORE.norm>
-1.19338

>  <RMSD>
6.781

$$$$
lig.pdb
 OpenBabel11021811453D
libRbt.so/2013.1/901 2013/11/27
 31 33  0  0  0  0  0  0  0  0999 V2000
    3.9421    5.2914    2.3163 O   0  0  0  0  0  0  0  0  0  0  0  0
    3.7617    3.9286    1.9842 C   0  0  0  0  0  0  0  0  0  0  0  0
    2.2910    3.6161    1.6764 C   0  0  1  0  0  0  0  0  0  0  0  0
    2.1020    2.2523    1.3338 O   0  0  0  0  0  0  0  0  0  0  0  0
    0.7673    1.8620    1.6419 C   0  0  1  0  0  0  0  0  0  0  0  0
    0.7767    0.6295    2.3524 O   0  0  0  0  0  0  0  0  0  0  0  0
    1.3818    0.6268    3.6356 C   0  0  2  0  0  0  0  0  0  0  0  0
    2.7901    0.0296    3.4873 C   0  0  1  0  0  0  0  0  0  0  0  0
    3.6172    0.9289    2.7658 O   0  0  0  0  0  0  0  0  0  0  0  0
    3.4901   -0.2636    4.8231 C   0  0  2  0  0  0  0  0  0  0  0  0
    4.7882   -0.9208    4.6061 N   0  0  0  0  0  0  0  0  0  0  0  0
    2.6050   -1.1596    5.6815 C   0  0  0  0  0  0  0  0  0  0  0  0
    1.2437   -0.5026    5.8746 C   0  0  2  0  0  0  0  0  0  0  0  0
    0.4337   -1.3590    6.7476 N   0  0  0  0  0  0  0  0  0  0  0  0
    0.5620   -0.2675    4.5095 C   0  0  1  0  0  0  0  0  0  0  0  0
   -0.7061    0.3339    4.8125 O   0  0  0  0  0  0  0  0  0  0  0  0
   -1.7919   -0.5446    5.0882 C   0  0  1  0  0  0  0  0  0  0  0  0
   -2.4949   -0.1251    6.2546 O   0  0  0  0  0  0  0  0  0  0  0  0
   -3.2313    1.0910    6.1437 C   0  0  2  0  0  0  0  0  0  0  0  0
   -3.9184    1.3801    7.4849 C   0  0  0  0  0  0  0  0  0  0  0  0
   -3.9997    0.1876    8.3162 N   0  0  0  0  0  0  0  0  0  0  0  0
   -4.2872    0.9923    5.0269 C   0  0  1  0  0  0  0  0  0  0  0  0
   -4.9643    2.2297    4.8972 O   0  0  0  0  0  0  0  0  0  0  0  0
   -3.5816    0.6429    3.7107 C   0  0  2  0  0  0  0  0  0  0  0  0
   -4.5353    0.4588    2.6812 O   0  0  0  0  0  0  0  0  0  0  0  0
   -2.7242   -0.6194    3.8738 C   0  0  1  0  0  0  0  0  0  0  0  0
   -1.9557   -0.8699    2.6462 N   0  0  0  0  0  0  0  0  0  0  0  0
    0.1763    2.9640    2.5332 C   0  0  2  0  0  0  0  0  0  0  0  0
   -0.7967    3.6955    1.8109 O   0  0  0  0  0  0  0  0  0  0  0  0
    1.4030    3.7962    2.9035 C   0  0  2  0  0  0  0  0  0  0  0  0
    1.1061    5.1468    3.1980 O   0  0  0  0  0  0  0  0  0  0  0  0
  2  1  1  0  0  0  0
  3  2  1  1  0  0  0
  3 30  1  0  0  0  0
  4  5  1  0  0  0  0
  4  3  1  0  0  0  0
  5 28  1  0  0  0  0
  5  6  1  1  0  0  0
  7  6  1  6  0  0  0
  8  7  1  0  0  0  0
  8  9  1  6  0  0  0
 10 11  1  6  0  0  0
 10  8  1  0  0  0  0
 12 10  1  0  0  0  0
 13 12  1  0  0  0  0
 13 15  1  0  0  0  0
 13 14  1  1  0  0  0
 15  7  1  0  0  0  0
 15 16  1  1  0  0  0
 17 16  1  6  0  0  0
 18 17  1  0  0  0  0
 19 20  1  1  0  0  0
 19 18  1  0  0  0  0
 20 21  1  0  0  0  0
 22 24  1  0  0  0  0
 22 19  1  0  0  0  0
 22 23  1  6  0  0  0
 24 25  1  6  0  0  0
 24 26  1  0  0  0  0
 26 17  1  0  0  0  0
 26 27  1  6  0  0  0
 28 29  1  6  0  0  0
 28 30  1  0  0  0  0
 30 31  1  6  0  0  0
M  END
>  <CHROM.1>
-177.89581520,179.62591204,64.66430352,-100.58383367,171.57626576,71.32874222
-64.64868002,152.54122157,133.26981745,-18.45207646,69.61677613,-176.35318049
-58.86572419,67.75889793,62.71858259,-175.90700803,-0.06668395,1.15641396
4.02347942,0.46800195,0.15066308,-0.67556116

>  <Name>
lig.pdb

>  <RI>
3.32461e+07

>  <Rbt.Current_Directory>
/home/itssahil/PROJECTS/Mol_Feturizer/New_Systems/rnas/2n0j

>  <Rbt.Executable>
rbdock ($Id: //depot/dev/client3/rdock/2013.1/src/exe/rbdock.cxx#4 $)

>  <Rbt.Library>
libRbt.so (2013.1, Build901 2013/11/27)

>  <Rbt.Parameter_File>
/export/apps/rDock/src/rDock_2013.1_src/data/scripts/dock_solv.prm

>  <Rbt.Receptor>
prm/pocket_docking_7.prm

>  <SCORE>
-29.5958

>  <SCORE.INTER>
-28.459

>  <SCORE.INTER.CONST>
1

>  <SCORE.INTER.POLAR>
-2.69968

>  <SCORE.INTER.ROT>
6

>  <SCORE.INTER.SOLV>
18.0274

>  <SCORE.INTER.VDW>
-23.5828

>  <SCORE.INTER.norm>
-0.918032

>  <SCORE.INTRA>
-1.13685

>  <SCORE.INTRA.DIHEDRAL>
-7.1868

>  <SCORE.INTRA.DIHEDRAL.0>
28.0161

>  <SCORE.INTRA.POLAR>
-0.425527

>  <SCORE.INTRA.POLAR.0>
-1.05798

>  <SCORE.INTRA.REPUL>
0.0281746

>  <SCORE.INTRA.REPUL.0>
0

>  <SCORE.INTRA.SOLV>
1.31774

>  <SCORE.INTRA.SOLV.lig_0>
-42.5945

>  <SCORE.INTRA.VDW>
3.1036

>  <SCORE.INTRA.VDW.0>
-5.13869

>  <SCORE.INTRA.norm>
-0.0366725

>  <SCORE.RESTR>
0

>  <SCORE.RESTR.CAVITY>
0

>  <SCORE.RESTR.norm>
0

>  <SCORE.SYSTEM>
0

>  <SCORE.SYSTEM.CONST>
0

>  <SCORE.SYSTEM.DIHEDRAL>
0

>  <SCORE.SYSTEM.SOLV>
0

>  <SCORE.SYSTEM.norm>
0

>  <SCORE.heavy>
31

>  <SCORE.norm>
-0.954704

>  <RMSD>
6.781

$$$$
lig.pdb
 OpenBabel11021811453D
libRbt.so/2013.1/901 2013/11/27
 31 33  0  0  0  0  0  0  0  0999 V2000
   -1.6160   -2.6894    5.6237 O   0  0  0  0  0  0  0  0  0  0  0  0
   -2.4896   -1.5776    5.5974 C   0  0  0  0  0  0  0  0  0  0  0  0
   -2.2460   -0.7017    4.3609 C   0  0  1  0  0  0  0  0  0  0  0  0
   -3.0910    0.4380    4.3470 O   0  0  0  0  0  0  0  0  0  0  0  0
   -2.4751    1.4811    3.5978 C   0  0  1  0  0  0  0  0  0  0  0  0
   -2.5400    2.7015    4.3260 O   0  0  0  0  0  0  0  0  0  0  0  0
   -2.7413    3.8909    3.5791 C   0  0  2  0  0  0  0  0  0  0  0  0
   -1.5487    4.0501    2.6229 C   0  0  1  0  0  0  0  0  0  0  0  0
   -1.6048    3.0498    1.6180 O   0  0  0  0  0  0  0  0  0  0  0  0
   -1.4937    5.4104    1.9111 C   0  0  2  0  0  0  0  0  0  0  0  0
   -0.2788    5.5282    1.0901 N   0  0  0  0  0  0  0  0  0  0  0  0
   -1.5193    6.5318    2.9430 C   0  0  0  0  0  0  0  0  0  0  0  0
   -2.7545    6.3904    3.8240 C   0  0  2  0  0  0  0  0  0  0  0  0
   -2.7821    7.5113    4.7697 N   0  0  0  0  0  0  0  0  0  0  0  0
   -2.7436    5.0278    4.5500 C   0  0  1  0  0  0  0  0  0  0  0  0
   -3.9325    5.0125    5.3549 O   0  0  0  0  0  0  0  0  0  0  0  0
   -4.0011    4.0412    6.3934 C   0  0  1  0  0  0  0  0  0  0  0  0
   -2.9066    4.1892    7.2939 O   0  0  0  0  0  0  0  0  0  0  0  0
   -2.9106    5.3631    8.1034 C   0  0  2  0  0  0  0  0  0  0  0  0
   -1.6679    5.3504    9.0035 C   0  0  0  0  0  0  0  0  0  0  0  0
   -0.8322    4.1853    8.7509 N   0  0  0  0  0  0  0  0  0  0  0  0
   -4.1820    5.4269    8.9700 C   0  0  1  0  0  0  0  0  0  0  0  0
   -4.1908    6.6285    9.7202 O   0  0  0  0  0  0  0  0  0  0  0  0
   -5.4086    5.3767    8.0505 C   0  0  2  0  0  0  0  0  0  0  0  0
   -6.5945    5.3452    8.8223 O   0  0  0  0  0  0  0  0  0  0  0  0
   -5.3430    4.1538    7.1257 C   0  0  1  0  0  0  0  0  0  0  0  0
   -6.4553    4.1866    6.1654 N   0  0  0  0  0  0  0  0  0  0  0  0
   -1.0064    1.0789    3.3997 C   0  0  2  0  0  0  0  0  0  0  0  0
   -0.7819    0.7318    2.0459 O   0  0  0  0  0  0  0  0  0  0  0  0
   -0.8444   -0.0998    4.3582 C   0  0  2  0  0  0  0  0  0  0  0  0
    0.1657   -1.0112    3.9732 O   0  0  0  0  0  0  0  0  0  0  0  0
  2  1  1  0  0  0  0
  3  2  1  1  0  0  0
  3 30  1  0  0  0  0
  4  5  1  0  0  0  0
  4  3  1  0  0  0  0
  5 28  1  0  0  0  0
  5  6  1  1  0  0  0
  7  6  1  1  0  0  0
  8  7  1  0  0  0  0
  8  9  1  6  0  0  0
 10 11  1  1  0  0  0
 10  8  1  0  0  0  0
 12 10  1  0  0  0  0
 13 12  1  0  0  0  0
 13 15  1  0  0  0  0
 13 14  1  1  0  0  0
 15  7  1  0  0  0  0
 15 16  1  1  0  0  0
 17 16  1  6  0  0  0
 18 17  1  0  0  0  0
 19 20  1  1  0  0  0
 19 18  1  0  0  0  0
 20 21  1  0  0  0  0
 22 24  1  0  0  0  0
 22 19  1  0  0  0  0
 22 23  1  6  0  0  0
 24 25  1  1  0  0  0
 24 26  1  0  0  0  0
 26 17  1  0  0  0  0
 26 27  1  6  0  0  0
 28 29  1  6  0  0  0
 28 30  1  0  0  0  0
 30 31  1  6  0  0  0
M  END
>  <CHROM.1>
-63.45362785,-178.23899936,-143.71013667,-61.55086066,63.88519888,-73.69578160
-174.23359512,75.51145403,57.78146812,1.71213473,66.16982316,56.24228553
59.48930427,-172.43149505,-62.43655071,-177.35597299,-2.66273985,3.43518808
5.23875727,0.50890380,-1.10007536,2.81866670

>  <Name>
lig.pdb

>  <RI>
0

>  <Rbt.Current_Directory>
/home/itssahil/PROJECTS/Mol_Feturizer/New_Systems/rnas/2n0j

>  <Rbt.Executable>
rbdock ($Id: //depot/dev/client3/rdock/2013.1/src/exe/rbdock.cxx#4 $)

>  <Rbt.Library>
libRbt.so (2013.1, Build901 2013/11/27)

>  <Rbt.Parameter_File>
/export/apps/rDock/src/rDock_2013.1_src/data/scripts/dock_solv.prm

>  <Rbt.Receptor>
prm/pocket_docking_8.prm

>  <SCORE>
-35.9199

>  <SCORE.INTER>
-36.5833

>  <SCORE.INTER.CONST>
1

>  <SCORE.INTER.POLAR>
-5.00777

>  <SCORE.INTER.ROT>
6

>  <SCORE.INTER.SOLV>
14.3451

>  <SCORE.INTER.VDW>
-20.078

>  <SCORE.INTER.norm>
-1.18011

>  <SCORE.INTRA>
0.663479

>  <SCORE.INTRA.DIHEDRAL>
-15.4118

>  <SCORE.INTRA.DIHEDRAL.0>
28.0161

>  <SCORE.INTRA.POLAR>
1.00951

>  <SCORE.INTRA.POLAR.0>
-1.05798

>  <SCORE.INTRA.REPUL>
0

>  <SCORE.INTRA.REPUL.0>
0

>  <SCORE.INTRA.SOLV>
0.919508

>  <SCORE.INTRA.SOLV.lig_0>
-42.5945

>  <SCORE.INTRA.VDW>
4.47728

>  <SCORE.INTRA.VDW.0>
-5.13869

>  <SCORE.INTRA.norm>
0.0214025

>  <SCORE.RESTR>
0

>  <SCORE.RESTR.CAVITY>
0

>  <SCORE.RESTR.norm>
0

>  <SCORE.SYSTEM>
0

>  <SCORE.SYSTEM.CONST>
0

>  <SCORE.SYSTEM.DIHEDRAL>
0

>  <SCORE.SYSTEM.SOLV>
0

>  <SCORE.SYSTEM.norm>
0

>  <SCORE.heavy>
31

>  <SCORE.norm>
-1.15871

>  <RMSD>
6.785

$$$$
lig.pdb
 OpenBabel11021811453D
libRbt.so/2013.1/901 2013/11/27
 31 33  0  0  0  0  0  0  0  0999 V2000
   -1.2996   -1.4104    1.8719 O   0  0  0  0  0  0  0  0  0  0  0  0
   -0.3768   -1.3325    2.9408 C   0  0  0  0  0  0  0  0  0  0  0  0
    0.9276   -0.6498    2.5073 C   0  0  1  0  0  0  0  0  0  0  0  0
    0.7155    0.7012    2.1292 O   0  0  0  0  0  0  0  0  0  0  0  0
    1.9150    1.4453    2.3197 C   0  0  1  0  0  0  0  0  0  0  0  0
    1.6276    2.6559    3.0094 O   0  0  0  0  0  0  0  0  0  0  0  0
    1.6560    3.8549    2.2516 C   0  0  2  0  0  0  0  0  0  0  0  0
    3.0101    4.5363    2.5049 C   0  0  1  0  0  0  0  0  0  0  0  0
    4.0475    3.7761    1.9054 O   0  0  0  0  0  0  0  0  0  0  0  0
    3.1076    5.9637    1.9452 C   0  0  2  0  0  0  0  0  0  0  0  0
    4.3899    6.5868    2.3078 N   0  0  0  0  0  0  0  0  0  0  0  0
    1.9614    6.8084    2.4890 C   0  0  0  0  0  0  0  0  0  0  0  0
    0.6311    6.1457    2.1527 C   0  0  2  0  0  0  0  0  0  0  0  0
   -0.4530    7.0059    2.6388 N   0  0  0  0  0  0  0  0  0  0  0  0
    0.5631    4.7328    2.7715 C   0  0  1  0  0  0  0  0  0  0  0  0
   -0.7263    4.2164    2.4076 O   0  0  0  0  0  0  0  0  0  0  0  0
   -1.2944    3.2284    3.2607 C   0  0  1  0  0  0  0  0  0  0  0  0
   -1.8030    3.8237    4.4513 O   0  0  0  0  0  0  0  0  0  0  0  0
   -2.9512    4.6556    4.2993 C   0  0  2  0  0  0  0  0  0  0  0  0
   -3.3540    5.2029    5.6752 C   0  0  0  0  0  0  0  0  0  0  0  0
   -3.4202    6.6573    5.6777 N   0  0  0  0  0  0  0  0  0  0  0  0
   -4.1234    3.8656    3.6883 C   0  0  1  0  0  0  0  0  0  0  0  0
   -5.2313    4.7264    3.4933 O   0  0  0  0  0  0  0  0  0  0  0  0
   -3.6751    3.2790    2.3439 C   0  0  2  0  0  0  0  0  0  0  0  0
   -4.7025    2.4735    1.7975 O   0  0  0  0  0  0  0  0  0  0  0  0
   -2.3888    2.4592    2.5122 C   0  0  1  0  0  0  0  0  0  0  0  0
   -1.9007    2.0103    1.2003 N   0  0  0  0  0  0  0  0  0  0  0  0
    2.8469    0.5753    3.1758 C   0  0  2  0  0  0  0  0  0  0  0  0
    3.9234    0.1042    2.3867 O   0  0  0  0  0  0  0  0  0  0  0  0
    1.9215   -0.5402    3.6592 C   0  0  2  0  0  0  0  0  0  0  0  0
    2.5928   -1.7504    3.9489 O   0  0  0  0  0  0  0  0  0  0  0  0
  2  1  1  0  0  0  0
  3  2  1  1  0  0  0
  3 30  1  0  0  0  0
  4  5  1  0  0  0  0
  4  3  1  0  0  0  0
  5 28  1  0  0  0  0
  5  6  1  1  0  0  0
  7  6  1  1  0  0  0
  8  7  1  0  0  0  0
  8  9  1  6  0  0  0
 10 11  1  1  0  0  0
 10  8  1  0  0  0  0
 12 10  1  0  0  0  0
 13 12  1  0  0  0  0
 13 15  1  0  0  0  0
 13 14  1  1  0  0  0
 15  7  1  0  0  0  0
 15 16  1  6  0  0  0
 17 16  1  6  0  0  0
 18 17  1  0  0  0  0
 19 20  1  1  0  0  0
 19 18  1  0  0  0  0
 20 21  1  0  0  0  0
 22 24  1  0  0  0  0
 22 19  1  0  0  0  0
 22 23  1  6  0  0  0
 24 25  1  1  0  0  0
 24 26  1  0  0  0  0
 26 17  1  0  0  0  0
 26 27  1  6  0  0  0
 28 29  1  6  0  0  0
 28 30  1  0  0  0  0
 30 31  1  6  0  0  0
M  END
>  <CHROM.1>
-57.91328988,63.73119715,-106.10436067,-99.53325524,59.32865600,64.06716651
-64.36960192,85.14656130,75.91991969,124.62407595,71.83124713,-52.05405603
66.70437890,33.57753843,134.34966501,-177.55018742,-0.07474149,3.09001907
2.88806270,0.57336596,-0.13764716,-3.08418075

>  <Name>
lig.pdb

>  <RI>
0

>  <Rbt.Current_Directory>
/home/itssahil/PROJECTS/Mol_Feturizer/New_Systems/rnas/2n0j

>  <Rbt.Executable>
rbdock ($Id: //depot/dev/client3/rdock/2013.1/src/exe/rbdock.cxx#4 $)

>  <Rbt.Library>
libRbt.so (2013.1, Build901 2013/11/27)

>  <Rbt.Parameter_File>
/export/apps/rDock/src/rDock_2013.1_src/data/scripts/dock_solv.prm

>  <Rbt.Receptor>
prm/pocket_docking_5.prm

>  <SCORE>
-42.071

>  <SCORE.INTER>
-43.4076

>  <SCORE.INTER.CONST>
1

>  <SCORE.INTER.POLAR>
-4.64436

>  <SCORE.INTER.ROT>
6

>  <SCORE.INTER.SOLV>
19.0578

>  <SCORE.INTER.VDW>
-27.4098

>  <SCORE.INTER.norm>
-1.40025

>  <SCORE.INTRA>
1.33658

>  <SCORE.INTRA.DIHEDRAL>
1.53063

>  <SCORE.INTRA.DIHEDRAL.0>
28.0161

>  <SCORE.INTRA.POLAR>
0.057985

>  <SCORE.INTRA.POLAR.0>
-1.05798

>  <SCORE.INTRA.REPUL>
0

>  <SCORE.INTRA.REPUL.0>
0

>  <SCORE.INTRA.SOLV>
0.480143

>  <SCORE.INTRA.SOLV.lig_0>
-42.5945

>  <SCORE.INTRA.VDW>
0.13405

>  <SCORE.INTRA.VDW.0>
-5.13869

>  <SCORE.INTRA.norm>
0.0431156

>  <SCORE.RESTR>
0

>  <SCORE.RESTR.CAVITY>
0

>  <SCORE.RESTR.norm>
0

>  <SCORE.SYSTEM>
0

>  <SCORE.SYSTEM.CONST>
0

>  <SCORE.SYSTEM.DIHEDRAL>
0

>  <SCORE.SYSTEM.SOLV>
0

>  <SCORE.SYSTEM.norm>
0

>  <SCORE.heavy>
31

>  <SCORE.norm>
-1.35713

>  <RMSD>
6.786

$$$$
lig.pdb
 OpenBabel11021811453D
libRbt.so/2013.1/901 2013/11/27
 31 33  0  0  0  0  0  0  0  0999 V2000
   -0.5098   -0.4786    0.0064 O   0  0  0  0  0  0  0  0  0  0  0  0
   -0.2022   -0.8511    1.3357 C   0  0  0  0  0  0  0  0  0  0  0  0
    1.2016   -0.3806    1.7396 C   0  0  1  0  0  0  0  0  0  0  0  0
    1.3689    1.0138    1.5383 O   0  0  0  0  0  0  0  0  0  0  0  0
    2.3641    1.5099    2.4284 C   0  0  1  0  0  0  0  0  0  0  0  0
    1.8930    2.6887    3.0705 O   0  0  0  0  0  0  0  0  0  0  0  0
    1.9208    3.8909    2.3178 C   0  0  2  0  0  0  0  0  0  0  0  0
    3.2685    4.5794    2.5858 C   0  0  1  0  0  0  0  0  0  0  0  0
    4.3156    3.8278    1.9924 O   0  0  0  0  0  0  0  0  0  0  0  0
    3.3623    6.0095    2.0326 C   0  0  2  0  0  0  0  0  0  0  0  0
    4.6376    6.6389    2.4090 N   0  0  0  0  0  0  0  0  0  0  0  0
    2.2063    6.8452    2.5695 C   0  0  0  0  0  0  0  0  0  0  0  0
    0.8831    6.1759    2.2189 C   0  0  2  0  0  0  0  0  0  0  0  0
   -0.2105    7.0277    2.6988 N   0  0  0  0  0  0  0  0  0  0  0  0
    0.8181    4.7601    2.8314 C   0  0  1  0  0  0  0  0  0  0  0  0
   -0.4649    4.2375    2.4541 O   0  0  0  0  0  0  0  0  0  0  0  0
   -0.9150    3.0693    3.1319 C   0  0  1  0  0  0  0  0  0  0  0  0
   -1.3379    3.3868    4.4552 O   0  0  0  0  0  0  0  0  0  0  0  0
   -2.5269    4.1661    4.5672 C   0  0  2  0  0  0  0  0  0  0  0  0
   -2.8259    4.4057    6.0530 C   0  0  0  0  0  0  0  0  0  0  0  0
   -1.8428    5.2885    6.6645 N   0  0  0  0  0  0  0  0  0  0  0  0
   -3.7171    3.4481    3.9043 C   0  0  1  0  0  0  0  0  0  0  0  0
   -4.8710    4.2664    3.9769 O   0  0  0  0  0  0  0  0  0  0  0  0
   -3.3684    3.1664    2.4376 C   0  0  2  0  0  0  0  0  0  0  0  0
   -4.4082    2.4286    1.8231 O   0  0  0  0  0  0  0  0  0  0  0  0
   -2.0410    2.4034    2.3329 C   0  0  1  0  0  0  0  0  0  0  0  0
   -1.6552    2.2522    0.9227 N   0  0  0  0  0  0  0  0  0  0  0  0
    2.6072    0.4156    3.4780 C   0  0  2  0  0  0  0  0  0  0  0  0
    3.8782   -0.1726    3.2729 O   0  0  0  0  0  0  0  0  0  0  0  0
    1.4498   -0.5517    3.2350 C   0  0  2  0  0  0  0  0  0  0  0  0
    1.7322   -1.8836    3.6164 O   0  0  0  0  0  0  0  0  0  0  0  0
  2  1  1  0  0  0  0
  3  2  1  1  0  0  0
  3 30  1  0  0  0  0
  4  5  1  0  0  0  0
  4  3  1  0  0  0  0
  5 28  1  0  0  0  0
  5  6  1  1  0  0  0
  7  6  1  1  0  0  0
  8  7  1  0  0  0  0
  8  9  1  6  0  0  0
 10 11  1  1  0  0  0
 10  8  1  0  0  0  0
 12 10  1  0  0  0  0
 13 12  1  0  0  0  0
 13 15  1  0  0  0  0
 13 14  1  1  0  0  0
 15  7  1  0  0  0  0
 15 16  1  6  0  0  0
 17 16  1  6  0  0  0
 18 17  1  0  0  0  0
 19 20  1  1  0  0  0
 19 18  1  0  0  0  0
 20 21  1  0  0  0  0
 22 24  1  0  0  0  0
 22 19  1  0  0  0  0
 22 23  1  6  0  0  0
 24 25  1  1  0  0  0
 24 26  1  0  0  0  0
 26 17  1  0  0  0  0
 26 27  1  6  0  0  0
 28 29  1  6  0  0  0
 28 30  1  0  0  0  0
 30 31  1  6  0  0  0
M  END
>  <CHROM.1>
60.76277645,54.43677792,-77.75641142,-91.39701335,60.02212031,63.97266043
57.74556406,72.98849059,74.60685777,68.76378776,-58.88678716,-61.92760006
65.69511483,-19.38883434,-76.77623519,57.05164897,0.21879772,3.01065730,2.83311658
0.43350885,-0.16753665,-2.95458246

>  <Name>
lig.pdb

>  <RI>
3.32461e+07

>  <Rbt.Current_Directory>
/home/itssahil/PROJECTS/Mol_Feturizer/New_Systems/rnas/2n0j

>  <Rbt.Executable>
rbdock ($Id: //depot/dev/client3/rdock/2013.1/src/exe/rbdock.cxx#4 $)

>  <Rbt.Library>
libRbt.so (2013.1, Build901 2013/11/27)

>  <Rbt.Parameter_File>
/export/apps/rDock/src/rDock_2013.1_src/data/scripts/dock_solv.prm

>  <Rbt.Receptor>
prm/pocket_docking_7.prm

>  <SCORE>
-53.8073

>  <SCORE.INTER>
-47.3866

>  <SCORE.INTER.CONST>
1

>  <SCORE.INTER.POLAR>
-5.80758

>  <SCORE.INTER.ROT>
6

>  <SCORE.INTER.SOLV>
18.4483

>  <SCORE.INTER.VDW>
-25.9819

>  <SCORE.INTER.norm>
-1.5286

>  <SCORE.INTRA>
-6.42064

>  <SCORE.INTRA.DIHEDRAL>
-15.9118

>  <SCORE.INTRA.DIHEDRAL.0>
28.0161

>  <SCORE.INTRA.POLAR>
-0.0759947

>  <SCORE.INTRA.POLAR.0>
-1.05798

>  <SCORE.INTRA.REPUL>
0

>  <SCORE.INTRA.REPUL.0>
0

>  <SCORE.INTRA.SOLV>
0.238279

>  <SCORE.INTRA.SOLV.lig_0>
-42.5945

>  <SCORE.INTRA.VDW>
1.67452

>  <SCORE.INTRA.VDW.0>
-5.13869

>  <SCORE.INTRA.norm>
-0.207117

>  <SCORE.RESTR>
0

>  <SCORE.RESTR.CAVITY>
0

>  <SCORE.RESTR.norm>
0

>  <SCORE.SYSTEM>
0

>  <SCORE.SYSTEM.CONST>
0

>  <SCORE.SYSTEM.DIHEDRAL>
0

>  <SCORE.SYSTEM.SOLV>
0

>  <SCORE.SYSTEM.norm>
0

>  <SCORE.heavy>
31

>  <SCORE.norm>
-1.73572

>  <RMSD>
6.787

$$$$
lig.pdb
 OpenBabel11021811453D
libRbt.so/2013.1/901 2013/11/27
 31 33  0  0  0  0  0  0  0  0999 V2000
    1.4725    5.5647    3.4531 O   0  0  0  0  0  0  0  0  0  0  0  0
    0.1061    5.4265    3.1158 C   0  0  0  0  0  0  0  0  0  0  0  0
   -0.3337    3.9565    3.1472 C   0  0  1  0  0  0  0  0  0  0  0  0
   -1.7467    3.8283    3.1370 O   0  0  0  0  0  0  0  0  0  0  0  0
   -2.1091    2.5709    2.5745 C   0  0  1  0  0  0  0  0  0  0  0  0
   -3.1347    2.7532    1.6056 O   0  0  0  0  0  0  0  0  0  0  0  0
   -4.4742    2.5847    2.0416 C   0  0  2  0  0  0  0  0  0  0  0  0
   -4.6802    3.4777    3.2754 C   0  0  1  0  0  0  0  0  0  0  0  0
   -4.6589    4.8423    2.8869 O   0  0  0  0  0  0  0  0  0  0  0  0
   -6.0062    3.2328    4.0116 C   0  0  2  0  0  0  0  0  0  0  0  0
   -6.0916    4.0499    5.2319 N   0  0  0  0  0  0  0  0  0  0  0  0
   -6.1254    1.7584    4.3790 C   0  0  0  0  0  0  0  0  0  0  0  0
   -5.9955    0.9046    3.1236 C   0  0  2  0  0  0  0  0  0  0  0  0
   -6.1685   -0.5029    3.4984 N   0  0  0  0  0  0  0  0  0  0  0  0
   -4.6319    1.1533    2.4434 C   0  0  1  0  0  0  0  0  0  0  0  0
   -4.6142    0.2931    1.2939 O   0  0  0  0  0  0  0  0  0  0  0  0
   -3.3461    0.0178    0.7085 C   0  0  1  0  0  0  0  0  0  0  0  0
   -2.4810   -0.6075    1.6526 O   0  0  0  0  0  0  0  0  0  0  0  0
   -2.8262   -1.9355    2.0408 C   0  0  2  0  0  0  0  0  0  0  0  0
   -1.7898   -2.4429    3.0523 C   0  0  0  0  0  0  0  0  0  0  0  0
   -0.4286   -2.2231    2.5845 N   0  0  0  0  0  0  0  0  0  0  0  0
   -2.8641   -2.8714    0.8184 C   0  0  1  0  0  0  0  0  0  0  0  0
   -3.2656   -4.1689    1.2207 O   0  0  0  0  0  0  0  0  0  0  0  0
   -3.8615   -2.3094   -0.2023 C   0  0  2  0  0  0  0  0  0  0  0  0
   -3.8548   -3.1004   -1.3758 O   0  0  0  0  0  0  0  0  0  0  0  0
   -3.5258   -0.8509   -0.5417 C   0  0  1  0  0  0  0  0  0  0  0  0
   -4.5601   -0.2859   -1.4200 N   0  0  0  0  0  0  0  0  0  0  0  0
   -0.8525    2.0101    1.8928 C   0  0  2  0  0  0  0  0  0  0  0  0
   -0.3570    0.9084    2.6306 O   0  0  0  0  0  0  0  0  0  0  0  0
    0.0958    3.2080    1.8894 C   0  0  2  0  0  0  0  0  0  0  0  0
    1.4637    2.8503    1.8791 O   0  0  0  0  0  0  0  0  0  0  0  0
  2  1  1  0  0  0  0
  3  2  1  6  0  0  0
  3 30  1  0  0  0  0
  4  5  1  0  0  0  0
  4  3  1  0  0  0  0
  5 28  1  0  0  0  0
  5  6  1  6  0  0  0
  7  6  1  1  0  0  0
  8  7  1  0  0  0  0
  8  9  1  6  0  0  0
 10 11  1  1  0  0  0
 10  8  1  0  0  0  0
 12 10  1  0  0  0  0
 13 12  1  0  0  0  0
 13 15  1  0  0  0  0
 13 14  1  1  0  0  0
 15  7  1  0  0  0  0
 15 16  1  6  0  0  0
 17 16  1  1  0  0  0
 18 17  1  0  0  0  0
 19 20  1  1  0  0  0
 19 18  1  0  0  0  0
 20 21  1  0  0  0  0
 22 24  1  0  0  0  0
 22 19  1  0  0  0  0
 22 23  1  1  0  0  0
 24 25  1  6  0  0  0
 24 26  1  0  0  0  0
 26 17  1  0  0  0  0
 26 27  1  6  0  0  0
 28 29  1  1  0  0  0
 28 30  1  0  0  0  0
 30 31  1  1  0  0  0
M  END
>  <CHROM.1>
59.58589666,165.58174365,-94.72034033,52.63844408,179.72430972,-177.56800471
-55.68341639,77.33739171,59.61649434,-49.22639275,-49.29529927,-173.93507957
171.74028381,-175.37193760,-175.96583631,-80.63422408,-2.92566381,1.08903720
2.12447045,-1.28134030,-0.15487638,-2.72614744

>  <Name>
lig.pdb

>  <RI>
0

>  <Rbt.Current_Directory>
/home/itssahil/PROJECTS/Mol_Feturizer/New_Systems/rnas/2n0j

>  <Rbt.Executable>
rbdock ($Id: //depot/dev/client3/rdock/2013.1/src/exe/rbdock.cxx#4 $)

>  <Rbt.Library>
libRbt.so (2013.1, Build901 2013/11/27)

>  <Rbt.Parameter_File>
/export/apps/rDock/src/rDock_2013.1_src/data/scripts/dock_solv.prm

>  <Rbt.Receptor>
prm/pocket_docking_5.prm

>  <SCORE>
-30.8863

>  <SCORE.INTER>
-25.5459

>  <SCORE.INTER.CONST>
1

>  <SCORE.INTER.POLAR>
-3.45704

>  <SCORE.INTER.ROT>
6

>  <SCORE.INTER.SOLV>
14.5587

>  <SCORE.INTER.VDW>
-17.96

>  <SCORE.INTER.norm>
-0.824061

>  <SCORE.INTRA>
-5.34041

>  <SCORE.INTRA.DIHEDRAL>
-17.5443

>  <SCORE.INTRA.DIHEDRAL.0>
28.0161

>  <SCORE.INTRA.POLAR>
0.034078

>  <SCORE.INTRA.POLAR.0>
-1.05798

>  <SCORE.INTRA.REPUL>
0

>  <SCORE.INTRA.REPUL.0>
0

>  <SCORE.INTRA.SOLV>
1.67562

>  <SCORE.INTRA.SOLV.lig_0>
-42.5945

>  <SCORE.INTRA.VDW>
2.47806

>  <SCORE.INTRA.VDW.0>
-5.13869

>  <SCORE.INTRA.norm>
-0.172271

>  <SCORE.RESTR>
0

>  <SCORE.RESTR.CAVITY>
0

>  <SCORE.RESTR.norm>
0

>  <SCORE.SYSTEM>
0

>  <SCORE.SYSTEM.CONST>
0

>  <SCORE.SYSTEM.DIHEDRAL>
0

>  <SCORE.SYSTEM.SOLV>
0

>  <SCORE.SYSTEM.norm>
0

>  <SCORE.heavy>
31

>  <SCORE.norm>
-0.996333

>  <RMSD>
6.789

$$$$
lig.pdb
 OpenBabel11021811453D
libRbt.so/2013.1/901 2013/11/27
 31 33  0  0  0  0  0  0  0  0999 V2000
   -1.5816    0.0637    1.4610 O   0  0  0  0  0  0  0  0  0  0  0  0
   -0.4963   -0.5433    0.7874 C   0  0  0  0  0  0  0  0  0  0  0  0
    0.8428    0.0784    1.2066 C   0  0  1  0  0  0  0  0  0  0  0  0
    0.8296    1.4918    1.0838 O   0  0  0  0  0  0  0  0  0  0  0  0
    1.7673    2.0600    1.9929 C   0  0  1  0  0  0  0  0  0  0  0  0
    1.1608    3.1319    2.7049 O   0  0  0  0  0  0  0  0  0  0  0  0
    0.8445    4.3018    1.9673 C   0  0  2  0  0  0  0  0  0  0  0  0
    2.1155    5.1621    1.8874 C   0  0  1  0  0  0  0  0  0  0  0  0
    3.0706    4.5276    1.0516 O   0  0  0  0  0  0  0  0  0  0  0  0
    1.8826    6.5731    1.3261 C   0  0  2  0  0  0  0  0  0  0  0  0
    3.1187    7.3695    1.3694 N   0  0  0  0  0  0  0  0  0  0  0  0
    0.7981    7.2754    2.1345 C   0  0  0  0  0  0  0  0  0  0  0  0
   -0.4725    6.4342    2.1282 C   0  0  2  0  0  0  0  0  0  0  0  0
   -1.5133    7.1584    2.8657 N   0  0  0  0  0  0  0  0  0  0  0  0
   -0.1991    5.0432    2.7397 C   0  0  1  0  0  0  0  0  0  0  0  0
   -1.4566    4.3516    2.6973 O   0  0  0  0  0  0  0  0  0  0  0  0
   -1.6152    3.2383    3.5702 C   0  0  1  0  0  0  0  0  0  0  0  0
   -1.5045    3.6462    4.9311 O   0  0  0  0  0  0  0  0  0  0  0  0
   -2.5625    4.4596    5.4335 C   0  0  2  0  0  0  0  0  0  0  0  0
   -2.2755    4.7967    6.9028 C   0  0  0  0  0  0  0  0  0  0  0  0
   -1.7874    3.6373    7.6357 N   0  0  0  0  0  0  0  0  0  0  0  0
   -3.9148    3.7318    5.3195 C   0  0  1  0  0  0  0  0  0  0  0  0
   -4.9554    4.5810    5.7697 O   0  0  0  0  0  0  0  0  0  0  0  0
   -4.1486    3.3527    3.8519 C   0  0  2  0  0  0  0  0  0  0  0  0
   -5.3434    2.6044    3.7269 O   0  0  0  0  0  0  0  0  0  0  0  0
   -2.9597    2.5526    3.3028 C   0  0  1  0  0  0  0  0  0  0  0  0
   -3.1379    2.3062    1.8647 N   0  0  0  0  0  0  0  0  0  0  0  0
    2.1624    0.9487    2.9765 C   0  0  2  0  0  0  0  0  0  0  0  0
    3.4943    0.5389    2.7283 O   0  0  0  0  0  0  0  0  0  0  0  0
    1.1329   -0.1427    2.6877 C   0  0  2  0  0  0  0  0  0  0  0  0
    1.5869   -1.4470    2.9903 O   0  0  0  0  0  0  0  0  0  0  0  0
  2  1  1  0  0  0  0
  3  2  1  1  0  0  0
  3 30  1  0  0  0  0
  4  5  1  0  0  0  0
  4  3  1  0  0  0  0
  5 28  1  0  0  0  0
  5  6  1  1  0  0  0
  7  6  1  1  0  0  0
  8  7  1  0  0  0  0
  8  9  1  6  0  0  0
 10 11  1  1  0  0  0
 10  8  1  0  0  0  0
 12 10  1  0  0  0  0
 13 12  1  0  0  0  0
 13 15  1  0  0  0  0
 13 14  1  1  0  0  0
 15  7  1  0  0  0  0
 15 16  1  6  0  0  0
 17 16  1  6  0  0  0
 18 17  1  0  0  0  0
 19 20  1  1  0  0  0
 19 18  1  0  0  0  0
 20 21  1  0  0  0  0
 22 24  1  0  0  0  0
 22 19  1  0  0  0  0
 22 23  1  6  0  0  0
 24 25  1  1  0  0  0
 24 26  1  0  0  0  0
 26 17  1  0  0  0  0
 26 27  1  6  0  0  0
 28 29  1  6  0  0  0
 28 30  1  0  0  0  0
 30 31  1  6  0  0  0
M  END
>  <CHROM.1>
-167.32895974,-52.21392226,-68.66909577,-83.52344902,-68.65086576,-51.33015958
-174.21736747,79.17297865,61.66081470,-42.75723912,78.11299712,65.88603913
69.99864600,-56.87833273,-52.20540116,59.84500817,-0.50145136,3.31305252
3.01027036,-0.34634777,0.49827568,0.08895197

>  <Name>
lig.pdb

>  <RI>
0

>  <Rbt.Current_Directory>
/home/itssahil/PROJECTS/Mol_Feturizer/New_Systems/rnas/2n0j

>  <Rbt.Executable>
rbdock ($Id: //depot/dev/client3/rdock/2013.1/src/exe/rbdock.cxx#4 $)

>  <Rbt.Library>
libRbt.so (2013.1, Build901 2013/11/27)

>  <Rbt.Parameter_File>
/export/apps/rDock/src/rDock_2013.1_src/data/scripts/dock_solv.prm

>  <Rbt.Receptor>
prm/pocket_docking_8.prm

>  <SCORE>
-52.0864

>  <SCORE.INTER>
-44.3889

>  <SCORE.INTER.CONST>
1

>  <SCORE.INTER.POLAR>
-5.73381

>  <SCORE.INTER.ROT>
6

>  <SCORE.INTER.SOLV>
13.6313

>  <SCORE.INTER.VDW>
-22.6236

>  <SCORE.INTER.norm>
-1.4319

>  <SCORE.INTRA>
-7.69755

>  <SCORE.INTRA.DIHEDRAL>
-18.8336

>  <SCORE.INTRA.DIHEDRAL.0>
28.0161

>  <SCORE.INTRA.POLAR>
0.0363707

>  <SCORE.INTRA.POLAR.0>
-1.05798

>  <SCORE.INTRA.REPUL>
0

>  <SCORE.INTRA.REPUL.0>
0

>  <SCORE.INTRA.SOLV>
1.32106

>  <SCORE.INTRA.SOLV.lig_0>
-42.5945

>  <SCORE.INTRA.VDW>
0.935051

>  <SCORE.INTRA.VDW.0>
-5.13869

>  <SCORE.INTRA.norm>
-0.248308

>  <SCORE.RESTR>
0

>  <SCORE.RESTR.CAVITY>
0

>  <SCORE.RESTR.norm>
0

>  <SCORE.SYSTEM>
0

>  <SCORE.SYSTEM.CONST>
0

>  <SCORE.SYSTEM.DIHEDRAL>
0

>  <SCORE.SYSTEM.SOLV>
0

>  <SCORE.SYSTEM.norm>
0

>  <SCORE.heavy>
31

>  <SCORE.norm>
-1.68021

>  <RMSD>
6.790

$$$$
lig.pdb
 OpenBabel11021811453D
libRbt.so/2013.1/901 2013/11/27
 31 33  0  0  0  0  0  0  0  0999 V2000
    5.9716    5.6949   -0.1950 O   0  0  0  0  0  0  0  0  0  0  0  0
    5.4416    7.0053   -0.2408 C   0  0  0  0  0  0  0  0  0  0  0  0
    4.0446    7.0679    0.3914 C   0  0  1  0  0  0  0  0  0  0  0  0
    3.1413    6.1709   -0.2350 O   0  0  0  0  0  0  0  0  0  0  0  0
    2.1161    5.8048    0.6835 C   0  0  1  0  0  0  0  0  0  0  0  0
    1.9376    4.3935    0.6703 O   0  0  0  0  0  0  0  0  0  0  0  0
    2.0520    3.7150    1.9110 C   0  0  2  0  0  0  0  0  0  0  0  0
    2.8835    2.4443    1.6742 C   0  0  1  0  0  0  0  0  0  0  0  0
    4.2297    2.7983    1.3989 O   0  0  0  0  0  0  0  0  0  0  0  0
    2.9003    1.4756    2.8664 C   0  0  2  0  0  0  0  0  0  0  0  0
    3.6314    0.2428    2.5350 N   0  0  0  0  0  0  0  0  0  0  0  0
    1.4714    1.1263    3.2653 C   0  0  0  0  0  0  0  0  0  0  0  0
    0.6969    2.4029    3.5692 C   0  0  2  0  0  0  0  0  0  0  0  0
   -0.6554    2.0345    4.0021 N   0  0  0  0  0  0  0  0  0  0  0  0
    0.6712    3.3237    2.3302 C   0  0  1  0  0  0  0  0  0  0  0  0
   -0.0909    4.4752    2.7238 O   0  0  0  0  0  0  0  0  0  0  0  0
   -1.0497    4.9681    1.7941 C   0  0  1  0  0  0  0  0  0  0  0  0
   -2.0231    3.9703    1.4985 O   0  0  0  0  0  0  0  0  0  0  0  0
   -2.9144    3.6259    2.5570 C   0  0  2  0  0  0  0  0  0  0  0  0
   -3.8847    2.5467    2.0584 C   0  0  0  0  0  0  0  0  0  0  0  0
   -3.1770    1.3936    1.5204 N   0  0  0  0  0  0  0  0  0  0  0  0
   -3.7049    4.8596    3.0310 C   0  0  1  0  0  0  0  0  0  0  0  0
   -4.5388    4.5050    4.1198 O   0  0  0  0  0  0  0  0  0  0  0  0
   -2.7117    5.9444    3.4660 C   0  0  2  0  0  0  0  0  0  0  0  0
   -3.4060    7.1243    3.8251 O   0  0  0  0  0  0  0  0  0  0  0  0
   -1.7057    6.2391    2.3452 C   0  0  1  0  0  0  0  0  0  0  0  0
   -0.6849    7.1847    2.8186 N   0  0  0  0  0  0  0  0  0  0  0  0
    2.5869    6.2498    2.0758 C   0  0  2  0  0  0  0  0  0  0  0  0
    1.8149    7.3523    2.5141 O   0  0  0  0  0  0  0  0  0  0  0  0
    4.0561    6.5983    1.8427 C   0  0  2  0  0  0  0  0  0  0  0  0
    4.5633    7.5589    2.7478 O   0  0  0  0  0  0  0  0  0  0  0  0
  2  1  1  0  0  0  0
  3  2  1  6  0  0  0
  3 30  1  0  0  0  0
  4  5  1  0  0  0  0
  4  3  1  0  0  0  0
  5 28  1  0  0  0  0
  5  6  1  1  0  0  0
  7  6  1  6  0  0  0
  8  7  1  0  0  0  0
  8  9  1  1  0  0  0
 10 11  1  6  0  0  0
 10  8  1  0  0  0  0
 12 10  1  0  0  0  0
 13 12  1  0  0  0  0
 13 15  1  0  0  0  0
 13 14  1  6  0  0  0
 15  7  1  0  0  0  0
 15 16  1  1  0  0  0
 17 16  1  1  0  0  0
 18 17  1  0  0  0  0
 19 20  1  6  0  0  0
 19 18  1  0  0  0  0
 20 21  1  0  0  0  0
 22 24  1  0  0  0  0
 22 19  1  0  0  0  0
 22 23  1  1  0  0  0
 24 25  1  6  0  0  0
 24 26  1  0  0  0  0
 26 17  1  0  0  0  0
 26 27  1  1  0  0  0
 28 29  1  6  0  0  0
 28 30  1  0  0  0  0
 30 31  1  1  0  0  0
M  END
>  <CHROM.1>
176.77650919,-57.12986963,124.49386847,-136.50688361,-64.03169771,-43.54178953
53.01941795,102.88616657,59.95273282,54.81012898,-47.62825953,-179.82289562
175.06055823,154.46227474,-178.52493102,-175.83160031,0.76989621,4.53154888
2.12605126,0.20151726,0.24333302,-0.08569619

>  <Name>
lig.pdb

>  <RI>
2.74555e+07

>  <Rbt.Current_Directory>
/home/itssahil/PROJECTS/Mol_Feturizer/New_Systems/rnas/2n0j

>  <Rbt.Executable>
rbdock ($Id: //depot/dev/client3/rdock/2013.1/src/exe/rbdock.cxx#4 $)

>  <Rbt.Library>
libRbt.so (2013.1, Build901 2013/11/27)

>  <Rbt.Parameter_File>
/export/apps/rDock/src/rDock_2013.1_src/data/scripts/dock_solv.prm

>  <Rbt.Receptor>
prm/pocket_docking_6.prm

>  <SCORE>
-42.0035

>  <SCORE.INTER>
-44.2841

>  <SCORE.INTER.CONST>
1

>  <SCORE.INTER.POLAR>
-5.19819

>  <SCORE.INTER.ROT>
6

>  <SCORE.INTER.SOLV>
17.8048

>  <SCORE.INTER.VDW>
-25.7304

>  <SCORE.INTER.norm>
-1.42852

>  <SCORE.INTRA>
2.28064

>  <SCORE.INTRA.DIHEDRAL>
-5.85304

>  <SCORE.INTRA.DIHEDRAL.0>
28.0161

>  <SCORE.INTRA.POLAR>
0.35496

>  <SCORE.INTRA.POLAR.0>
-1.05798

>  <SCORE.INTRA.REPUL>
0

>  <SCORE.INTRA.REPUL.0>
0

>  <SCORE.INTRA.SOLV>
2.56133

>  <SCORE.INTRA.SOLV.lig_0>
-42.5945

>  <SCORE.INTRA.VDW>
2.71963

>  <SCORE.INTRA.VDW.0>
-5.13869

>  <SCORE.INTRA.norm>
0.0735689

>  <SCORE.RESTR>
0

>  <SCORE.RESTR.CAVITY>
0

>  <SCORE.RESTR.norm>
0

>  <SCORE.SYSTEM>
0

>  <SCORE.SYSTEM.CONST>
0

>  <SCORE.SYSTEM.DIHEDRAL>
0

>  <SCORE.SYSTEM.SOLV>
0

>  <SCORE.SYSTEM.norm>
0

>  <SCORE.heavy>
31

>  <SCORE.norm>
-1.35495

>  <RMSD>
6.794

$$$$
lig.pdb
 OpenBabel11021811453D
libRbt.so/2013.1/901 2013/11/27
 31 33  0  0  0  0  0  0  0  0999 V2000
   -1.2345   -0.0834    2.7760 O   0  0  0  0  0  0  0  0  0  0  0  0
   -0.5282   -0.5684    1.6507 C   0  0  0  0  0  0  0  0  0  0  0  0
    0.9396   -0.1209    1.6738 C   0  0  1  0  0  0  0  0  0  0  0  0
    1.0668    1.2803    1.4912 O   0  0  0  0  0  0  0  0  0  0  0  0
    2.2748    1.7338    2.0944 C   0  0  1  0  0  0  0  0  0  0  0  0
    2.0152    2.8854    2.8883 O   0  0  0  0  0  0  0  0  0  0  0  0
    1.9593    4.1345    2.2179 C   0  0  2  0  0  0  0  0  0  0  0  0
    3.2505    4.9003    2.5474 C   0  0  1  0  0  0  0  0  0  0  0  0
    4.3545    4.2692    1.9178 O   0  0  0  0  0  0  0  0  0  0  0  0
    3.2421    6.3675    2.0922 C   0  0  2  0  0  0  0  0  0  0  0  0
    4.4647    7.0618    2.5250 N   0  0  0  0  0  0  0  0  0  0  0  0
    2.0237    7.0780    2.6698 C   0  0  0  0  0  0  0  0  0  0  0  0
    0.7561    6.3386    2.2594 C   0  0  2  0  0  0  0  0  0  0  0  0
   -0.4008    7.0736    2.7819 N   0  0  0  0  0  0  0  0  0  0  0  0
    0.7917    4.8838    2.7752 C   0  0  1  0  0  0  0  0  0  0  0  0
   -0.4464    4.2952    2.3484 O   0  0  0  0  0  0  0  0  0  0  0  0
   -0.9760    3.2444    3.1497 C   0  0  1  0  0  0  0  0  0  0  0  0
   -1.3506    3.7318    4.4353 O   0  0  0  0  0  0  0  0  0  0  0  0
   -2.4724    4.6113    4.4738 C   0  0  2  0  0  0  0  0  0  0  0  0
   -2.7270    5.0287    5.9283 C   0  0  0  0  0  0  0  0  0  0  0  0
   -3.5395    6.2342    6.0081 N   0  0  0  0  0  0  0  0  0  0  0  0
   -3.7264    3.9255    3.9004 C   0  0  1  0  0  0  0  0  0  0  0  0
   -4.8108    4.8369    3.8952 O   0  0  0  0  0  0  0  0  0  0  0  0
   -3.4252    3.4644    2.4689 C   0  0  2  0  0  0  0  0  0  0  0  0
   -4.5300    2.7520    1.9445 O   0  0  0  0  0  0  0  0  0  0  0  0
   -2.1640    2.5908    2.4349 C   0  0  1  0  0  0  0  0  0  0  0  0
   -1.8147    2.2620    1.0455 N   0  0  0  0  0  0  0  0  0  0  0  0
    2.7787    0.5942    2.9920 C   0  0  2  0  0  0  0  0  0  0  0  0
    3.9361    0.0109    2.4231 O   0  0  0  0  0  0  0  0  0  0  0  0
    1.5843   -0.3575    3.0359 C   0  0  2  0  0  0  0  0  0  0  0  0
    1.9397   -1.7056    3.2710 O   0  0  0  0  0  0  0  0  0  0  0  0
  2  1  1  0  0  0  0
  3  2  1  1  0  0  0
  3 30  1  0  0  0  0
  4  5  1  0  0  0  0
  4  3  1  0  0  0  0
  5 28  1  0  0  0  0
  5  6  1  1  0  0  0
  7  6  1  1  0  0  0
  8  7  1  0  0  0  0
  8  9  1  6  0  0  0
 10 11  1  1  0  0  0
 10  8  1  0  0  0  0
 12 10  1  0  0  0  0
 13 12  1  0  0  0  0
 13 15  1  0  0  0  0
 13 14  1  1  0  0  0
 15  7  1  0  0  0  0
 15 16  1  6  0  0  0
 17 16  1  6  0  0  0
 18 17  1  0  0  0  0
 19 20  1  1  0  0  0
 19 18  1  0  0  0  0
 20 21  1  0  0  0  0
 22 24  1  0  0  0  0
 22 19  1  0  0  0  0
 22 23  1  6  0  0  0
 24 25  1  1  0  0  0
 24 26  1  0  0  0  0
 26 17  1  0  0  0  0
 26 27  1  6  0  0  0
 28 29  1  6  0  0  0
 28 30  1  0  0  0  0
 30 31  1  6  0  0  0
M  END
>  <CHROM.1>
-68.42539712,-67.73194337,-82.58892507,-105.80442083,-172.18249211,76.44373244
60.44329533,87.75846791,65.69029162,161.05208549,46.06654805,-176.97497441
167.97629228,24.34061172,-139.40401663,-67.61342033,0.08168933,3.30683505
2.84590953,0.45890255,-0.18633509,-3.00651219

>  <Name>
lig.pdb

>  <RI>
3.33129e+07

>  <Rbt.Current_Directory>
/home/itssahil/PROJECTS/Mol_Feturizer/New_Systems/rnas/2n0j

>  <Rbt.Executable>
rbdock ($Id: //depot/dev/client3/rdock/2013.1/src/exe/rbdock.cxx#4 $)

>  <Rbt.Library>
libRbt.so (2013.1, Build901 2013/11/27)

>  <Rbt.Parameter_File>
/export/apps/rDock/src/rDock_2013.1_src/data/scripts/dock_solv.prm

>  <Rbt.Receptor>
prm/pocket_docking_4.prm

>  <SCORE>
-46.0947

>  <SCORE.INTER>
-42.2742

>  <SCORE.INTER.CONST>
1

>  <SCORE.INTER.POLAR>
-5.242

>  <SCORE.INTER.ROT>
6

>  <SCORE.INTER.SOLV>
17.6573

>  <SCORE.INTER.VDW>
-24.1952

>  <SCORE.INTER.norm>
-1.36369

>  <SCORE.INTRA>
-3.99147

>  <SCORE.INTRA.DIHEDRAL>
-4.07015

>  <SCORE.INTRA.DIHEDRAL.0>
28.0161

>  <SCORE.INTRA.POLAR>
-0.86192

>  <SCORE.INTRA.POLAR.0>
-1.05798

>  <SCORE.INTRA.REPUL>
0

>  <SCORE.INTRA.REPUL.0>
0

>  <SCORE.INTRA.SOLV>
2.30366

>  <SCORE.INTRA.SOLV.lig_0>
-42.5945

>  <SCORE.INTRA.VDW>
-0.177698

>  <SCORE.INTRA.VDW.0>
-5.13869

>  <SCORE.INTRA.norm>
-0.128757

>  <SCORE.RESTR>
0.171018

>  <SCORE.RESTR.CAVITY>
0.171018

>  <SCORE.RESTR.norm>
0.0055167

>  <SCORE.SYSTEM>
0

>  <SCORE.SYSTEM.CONST>
0

>  <SCORE.SYSTEM.DIHEDRAL>
0

>  <SCORE.SYSTEM.SOLV>
0

>  <SCORE.SYSTEM.norm>
0

>  <SCORE.heavy>
31

>  <SCORE.norm>
-1.48693

>  <RMSD>
6.800

$$$$
lig.pdb
 OpenBabel11021811453D
libRbt.so/2013.1/901 2013/11/27
 31 33  0  0  0  0  0  0  0  0999 V2000
   -1.7263    0.4181    0.5001 O   0  0  0  0  0  0  0  0  0  0  0  0
   -0.5441    0.0227   -0.1678 C   0  0  0  0  0  0  0  0  0  0  0  0
    0.7071    0.3882    0.6423 C   0  0  1  0  0  0  0  0  0  0  0  0
    0.8848    1.7929    0.7333 O   0  0  0  0  0  0  0  0  0  0  0  0
    1.6206    2.1068    1.9118 C   0  0  1  0  0  0  0  0  0  0  0  0
    0.9789    3.1645    2.6140 O   0  0  0  0  0  0  0  0  0  0  0  0
    0.6854    4.3434    1.8813 C   0  0  2  0  0  0  0  0  0  0  0  0
    1.9866    5.1516    1.7548 C   0  0  1  0  0  0  0  0  0  0  0  0
    2.8870    4.4759    0.8910 O   0  0  0  0  0  0  0  0  0  0  0  0
    1.7919    6.5686    1.1942 C   0  0  2  0  0  0  0  0  0  0  0  0
    3.0597    7.3147    1.1924 N   0  0  0  0  0  0  0  0  0  0  0  0
    0.7640    7.3171    2.0346 C   0  0  0  0  0  0  0  0  0  0  0  0
   -0.5388    6.5278    2.0748 C   0  0  2  0  0  0  0  0  0  0  0  0
   -1.5245    7.2962    2.8427 N   0  0  0  0  0  0  0  0  0  0  0  0
   -0.3012    5.1292    2.6841 C   0  0  1  0  0  0  0  0  0  0  0  0
   -1.5862    4.4887    2.6870 O   0  0  0  0  0  0  0  0  0  0  0  0
   -1.7456    3.3570    3.5358 C   0  0  1  0  0  0  0  0  0  0  0  0
   -1.5768    3.7249    4.9021 O   0  0  0  0  0  0  0  0  0  0  0  0
   -2.5937    4.5528    5.4623 C   0  0  2  0  0  0  0  0  0  0  0  0
   -2.2470    4.8423    6.9288 C   0  0  0  0  0  0  0  0  0  0  0  0
   -1.8231    3.6385    7.6295 N   0  0  0  0  0  0  0  0  0  0  0  0
   -3.9690    3.8651    5.3771 C   0  0  1  0  0  0  0  0  0  0  0  0
   -4.9693    4.7297    5.8854 O   0  0  0  0  0  0  0  0  0  0  0  0
   -4.2637    3.5321    3.9092 C   0  0  2  0  0  0  0  0  0  0  0  0
   -5.4825    2.8201    3.8068 O   0  0  0  0  0  0  0  0  0  0  0  0
   -3.1173    2.7153    3.2980 C   0  0  1  0  0  0  0  0  0  0  0  0
   -3.3516    2.5127    1.8611 N   0  0  0  0  0  0  0  0  0  0  0  0
    1.6267    0.8418    2.7824 C   0  0  2  0  0  0  0  0  0  0  0  0
    2.9231    0.2737    2.7950 O   0  0  0  0  0  0  0  0  0  0  0  0
    0.5871   -0.0457    2.0997 C   0  0  2  0  0  0  0  0  0  0  0  0
    0.7999   -1.4289    2.3012 O   0  0  0  0  0  0  0  0  0  0  0  0
  2  1  1  0  0  0  0
  3  2  1  6  0  0  0
  3 30  1  0  0  0  0
  4  5  1  0  0  0  0
  4  3  1  0  0  0  0
  5 28  1  0  0  0  0
  5  6  1  1  0  0  0
  7  6  1  1  0  0  0
  8  7  1  0  0  0  0
  8  9  1  6  0  0  0
 10 11  1  1  0  0  0
 10  8  1  0  0  0  0
 12 10  1  0  0  0  0
 13 12  1  0  0  0  0
 13 15  1  0  0  0  0
 13 14  1  1  0  0  0
 15  7  1  0  0  0  0
 15 16  1  6  0  0  0
 17 16  1  6  0  0  0
 18 17  1  0  0  0  0
 19 20  1  1  0  0  0
 19 18  1  0  0  0  0
 20 21  1  0  0  0  0
 22 24  1  0  0  0  0
 22 19  1  0  0  0  0
 22 23  1  6  0  0  0
 24 25  1  1  0  0  0
 24 26  1  0  0  0  0
 26 17  1  0  0  0  0
 26 27  1  6  0  0  0
 28 29  1  6  0  0  0
 28 30  1  0  0  0  0
 30 31  1  6  0  0  0
M  END
>  <CHROM.1>
-178.77125471,-66.95102541,-52.82207320,-78.40726736,-70.90235102,-58.63657358
171.83124615,77.02304446,62.81748071,-45.29533344,-162.82530429,65.99029256
59.84352417,68.10921010,65.32989465,-19.65983155,-0.66360046,3.41553647,2.84797119
0.43627066,-0.56145123,-2.94334576

>  <Name>
lig.pdb

>  <RI>
3.33129e+07

>  <Rbt.Current_Directory>
/home/itssahil/PROJECTS/Mol_Feturizer/New_Systems/rnas/2n0j

>  <Rbt.Executable>
rbdock ($Id: //depot/dev/client3/rdock/2013.1/src/exe/rbdock.cxx#4 $)

>  <Rbt.Library>
libRbt.so (2013.1, Build901 2013/11/27)

>  <Rbt.Parameter_File>
/export/apps/rDock/src/rDock_2013.1_src/data/scripts/dock_solv.prm

>  <Rbt.Receptor>
prm/pocket_docking_4.prm

>  <SCORE>
-45.9852

>  <SCORE.INTER>
-40.601

>  <SCORE.INTER.CONST>
1

>  <SCORE.INTER.POLAR>
-4.85236

>  <SCORE.INTER.ROT>
6

>  <SCORE.INTER.SOLV>
13.9535

>  <SCORE.INTER.VDW>
-23.144

>  <SCORE.INTER.norm>
-1.30971

>  <SCORE.INTRA>
-5.38414

>  <SCORE.INTRA.DIHEDRAL>
-16.258

>  <SCORE.INTRA.DIHEDRAL.0>
28.0161

>  <SCORE.INTRA.POLAR>
0.0213203

>  <SCORE.INTRA.POLAR.0>
-1.05798

>  <SCORE.INTRA.REPUL>
0

>  <SCORE.INTRA.REPUL.0>
0

>  <SCORE.INTRA.SOLV>
0.976493

>  <SCORE.INTRA.SOLV.lig_0>
-42.5945

>  <SCORE.INTRA.VDW>
2.18412

>  <SCORE.INTRA.VDW.0>
-5.13869

>  <SCORE.INTRA.norm>
-0.173682

>  <SCORE.RESTR>
0

>  <SCORE.RESTR.CAVITY>
0

>  <SCORE.RESTR.norm>
0

>  <SCORE.SYSTEM>
0

>  <SCORE.SYSTEM.CONST>
0

>  <SCORE.SYSTEM.DIHEDRAL>
0

>  <SCORE.SYSTEM.SOLV>
0

>  <SCORE.SYSTEM.norm>
0

>  <SCORE.heavy>
31

>  <SCORE.norm>
-1.48339

>  <RMSD>
6.806

$$$$
lig.pdb
 OpenBabel11021811453D
libRbt.so/2013.1/901 2013/11/27
 31 33  0  0  0  0  0  0  0  0999 V2000
   -1.2710   -0.4274    2.2654 O   0  0  0  0  0  0  0  0  0  0  0  0
   -0.4730   -0.4679    1.0985 C   0  0  0  0  0  0  0  0  0  0  0  0
    0.8945    0.1887    1.3310 C   0  0  1  0  0  0  0  0  0  0  0  0
    0.8531    1.5886    1.1039 O   0  0  0  0  0  0  0  0  0  0  0  0
    1.8717    2.2276    1.8674 C   0  0  1  0  0  0  0  0  0  0  0  0
    1.3284    3.3484    2.5546 O   0  0  0  0  0  0  0  0  0  0  0  0
    0.9633    4.4734    1.7710 C   0  0  2  0  0  0  0  0  0  0  0  0
    2.2296    5.3132    1.5401 C   0  0  1  0  0  0  0  0  0  0  0  0
    3.1136    4.6175    0.6753 O   0  0  0  0  0  0  0  0  0  0  0  0
    1.9626    6.6888    0.9103 C   0  0  2  0  0  0  0  0  0  0  0  0
    3.2032    7.4729    0.8086 N   0  0  0  0  0  0  0  0  0  0  0  0
    0.9478    7.4520    1.7534 C   0  0  0  0  0  0  0  0  0  0  0  0
   -0.3245    6.6259    1.8973 C   0  0  2  0  0  0  0  0  0  0  0  0
   -1.3011    7.4060    2.6651 N   0  0  0  0  0  0  0  0  0  0  0  0
   -0.0132    5.2729    2.5727 C   0  0  1  0  0  0  0  0  0  0  0  0
   -1.2744    4.5937    2.6702 O   0  0  0  0  0  0  0  0  0  0  0  0
   -1.3421    3.4723    3.5446 C   0  0  1  0  0  0  0  0  0  0  0  0
   -1.3179    3.8933    4.9058 O   0  0  0  0  0  0  0  0  0  0  0  0
   -2.4711    4.5919    5.3701 C   0  0  2  0  0  0  0  0  0  0  0  0
   -2.2678    4.9614    6.8455 C   0  0  0  0  0  0  0  0  0  0  0  0
   -1.8002    3.8246    7.6257 N   0  0  0  0  0  0  0  0  0  0  0  0
   -3.7349    3.7249    5.2187 C   0  0  1  0  0  0  0  0  0  0  0  0
   -4.8729    4.4607    5.6311 O   0  0  0  0  0  0  0  0  0  0  0  0
   -3.8811    3.3191    3.7468 C   0  0  2  0  0  0  0  0  0  0  0  0
   -4.9857    2.4485    3.5893 O   0  0  0  0  0  0  0  0  0  0  0  0
   -2.5977    2.6476    3.2397 C   0  0  1  0  0  0  0  0  0  0  0  0
   -2.7034    2.3798    1.7983 N   0  0  0  0  0  0  0  0  0  0  0  0
    2.3769    1.1959    2.8865 C   0  0  2  0  0  0  0  0  0  0  0  0
    3.6813    0.7731    2.5354 O   0  0  0  0  0  0  0  0  0  0  0  0
    1.3358    0.0820    2.7872 C   0  0  2  0  0  0  0  0  0  0  0  0
    1.8328   -1.1939    3.1395 O   0  0  0  0  0  0  0  0  0  0  0  0
  2  1  1  0  0  0  0
  3  2  1  1  0  0  0
  3 30  1  0  0  0  0
  4  5  1  0  0  0  0
  4  3  1  0  0  0  0
  5 28  1  0  0  0  0
  5  6  1  1  0  0  0
  7  6  1  1  0  0  0
  8  7  1  0  0  0  0
  8  9  1  6  0  0  0
 10 11  1  1  0  0  0
 10  8  1  0  0  0  0
 12 10  1  0  0  0  0
 13 12  1  0  0  0  0
 13 15  1  0  0  0  0
 13 14  1  1  0  0  0
 15  7  1  0  0  0  0
 15 16  1  6  0  0  0
 17 16  1  6  0  0  0
 18 17  1  0  0  0  0
 19 20  1  1  0  0  0
 19 18  1  0  0  0  0
 20 21  1  0  0  0  0
 22 24  1  0  0  0  0
 22 19  1  0  0  0  0
 22 23  1  6  0  0  0
 24 25  1  1  0  0  0
 24 26  1  0  0  0  0
 26 17  1  0  0  0  0
 26 27  1  6  0  0  0
 28 29  1  6  0  0  0
 28 30  1  0  0  0  0
 30 31  1  6  0  0  0
M  END
>  <CHROM.1>
55.82506818,-86.77577758,-70.52133026,-83.53165289,-171.25092784,-179.48751275
40.21296568,74.38541528,72.46726171,-48.06359556,-56.60714597,58.41819473
-61.25229519,168.33089696,-60.13898005,57.66441603,-0.33174250,3.42969947
2.92511622,0.15340932,-0.54684825,3.13613646

>  <Name>
lig.pdb

>  <RI>
3.33129e+07

>  <Rbt.Current_Directory>
/home/itssahil/PROJECTS/Mol_Feturizer/New_Systems/rnas/2n0j

>  <Rbt.Executable>
rbdock ($Id: //depot/dev/client3/rdock/2013.1/src/exe/rbdock.cxx#4 $)

>  <Rbt.Library>
libRbt.so (2013.1, Build901 2013/11/27)

>  <Rbt.Parameter_File>
/export/apps/rDock/src/rDock_2013.1_src/data/scripts/dock_solv.prm

>  <Rbt.Receptor>
prm/pocket_docking_4.prm

>  <SCORE>
-50.0076

>  <SCORE.INTER>
-46.7446

>  <SCORE.INTER.CONST>
1

>  <SCORE.INTER.POLAR>
-6.25856

>  <SCORE.INTER.ROT>
6

>  <SCORE.INTER.SOLV>
14.1715

>  <SCORE.INTER.VDW>
-22.6251

>  <SCORE.INTER.norm>
-1.50789

>  <SCORE.INTRA>
-3.27387

>  <SCORE.INTRA.DIHEDRAL>
-18.6236

>  <SCORE.INTRA.DIHEDRAL.0>
28.0161

>  <SCORE.INTRA.POLAR>
1.05798

>  <SCORE.INTRA.POLAR.0>
-1.05798

>  <SCORE.INTRA.REPUL>
0

>  <SCORE.INTRA.REPUL.0>
0

>  <SCORE.INTRA.SOLV>
1.20827

>  <SCORE.INTRA.SOLV.lig_0>
-42.5945

>  <SCORE.INTRA.VDW>
1.83666

>  <SCORE.INTRA.VDW.0>
-5.13869

>  <SCORE.INTRA.norm>
-0.105609

>  <SCORE.RESTR>
0.0109179

>  <SCORE.RESTR.CAVITY>
0.0109179

>  <SCORE.RESTR.norm>
0.000352189

>  <SCORE.SYSTEM>
0

>  <SCORE.SYSTEM.CONST>
0

>  <SCORE.SYSTEM.DIHEDRAL>
0

>  <SCORE.SYSTEM.SOLV>
0

>  <SCORE.SYSTEM.norm>
0

>  <SCORE.heavy>
31

>  <SCORE.norm>
-1.61315

>  <RMSD>
6.809

$$$$
lig.pdb
 OpenBabel11021811453D
libRbt.so/2013.1/901 2013/11/27
 31 33  0  0  0  0  0  0  0  0999 V2000
   -0.3871   -1.5531    3.4052 O   0  0  0  0  0  0  0  0  0  0  0  0
   -0.2461   -0.8254    2.2008 C   0  0  0  0  0  0  0  0  0  0  0  0
    1.1786   -0.2780    2.0395 C   0  0  1  0  0  0  0  0  0  0  0  0
    1.1791    1.0648    1.5815 O   0  0  0  0  0  0  0  0  0  0  0  0
    2.3743    1.7141    2.0041 C   0  0  1  0  0  0  0  0  0  0  0  0
    2.0605    2.9784    2.5760 O   0  0  0  0  0  0  0  0  0  0  0  0
    2.1506    4.1125    1.7284 C   0  0  2  0  0  0  0  0  0  0  0  0
    3.6396    4.4561    1.5638 C   0  0  1  0  0  0  0  0  0  0  0  0
    4.2796    3.4516    0.7926 O   0  0  0  0  0  0  0  0  0  0  0  0
    3.8988    5.8010    0.8680 C   0  0  2  0  0  0  0  0  0  0  0  0
    5.3369    6.1086    0.8322 N   0  0  0  0  0  0  0  0  0  0  0  0
    3.1606    6.9120    1.6054 C   0  0  0  0  0  0  0  0  0  0  0  0
    1.6758    6.5783    1.6824 C   0  0  2  0  0  0  0  0  0  0  0  0
    0.9836    7.6877    2.3470 N   0  0  0  0  0  0  0  0  0  0  0  0
    1.4632    5.2421    2.4261 C   0  0  1  0  0  0  0  0  0  0  0  0
    0.0420    5.0397    2.4525 O   0  0  0  0  0  0  0  0  0  0  0  0
   -0.4771    4.2143    3.4897 C   0  0  1  0  0  0  0  0  0  0  0  0
   -1.0504    5.0079    4.5252 O   0  0  0  0  0  0  0  0  0  0  0  0
   -2.2481    5.7072    4.1936 C   0  0  2  0  0  0  0  0  0  0  0  0
   -2.7167    6.5001    5.4210 C   0  0  0  0  0  0  0  0  0  0  0  0
   -3.2206    7.8153    5.0520 N   0  0  0  0  0  0  0  0  0  0  0  0
   -3.3511    4.7268    3.7533 C   0  0  1  0  0  0  0  0  0  0  0  0
   -4.5097    5.4480    3.3739 O   0  0  0  0  0  0  0  0  0  0  0  0
   -2.8352    3.9053    2.5653 C   0  0  2  0  0  0  0  0  0  0  0  0
   -3.7942    2.9335    2.1925 O   0  0  0  0  0  0  0  0  0  0  0  0
   -1.5009    3.2309    2.9113 C   0  0  1  0  0  0  0  0  0  0  0  0
   -0.9553    2.5534    1.7265 N   0  0  0  0  0  0  0  0  0  0  0  0
    3.0166    0.8138    3.0695 C   0  0  2  0  0  0  0  0  0  0  0  0
    4.1880    0.2140    2.5486 O   0  0  0  0  0  0  0  0  0  0  0  0
    1.9094   -0.1936    3.3757 C   0  0  2  0  0  0  0  0  0  0  0  0
    2.3875   -1.4395    3.8428 O   0  0  0  0  0  0  0  0  0  0  0  0
  2  1  1  0  0  0  0
  3  2  1  1  0  0  0
  3 30  1  0  0  0  0
  4  5  1  0  0  0  0
  4  3  1  0  0  0  0
  5 28  1  0  0  0  0
  5  6  1  1  0  0  0
  7  6  1  1  0  0  0
  8  7  1  0  0  0  0
  8  9  1  6  0  0  0
 10 11  1  1  0  0  0
 10  8  1  0  0  0  0
 12 10  1  0  0  0  0
 13 12  1  0  0  0  0
 13 15  1  0  0  0  0
 13 14  1  1  0  0  0
 15  7  1  0  0  0  0
 15 16  1  6  0  0  0
 17 16  1  6  0  0  0
 18 17  1  0  0  0  0
 19 20  1  1  0  0  0
 19 18  1  0  0  0  0
 20 21  1  0  0  0  0
 22 24  1  0  0  0  0
 22 19  1  0  0  0  0
 22 23  1  6  0  0  0
 24 25  1  1  0  0  0
 24 26  1  0  0  0  0
 26 17  1  0  0  0  0
 26 27  1  6  0  0  0
 28 29  1  6  0  0  0
 28 30  1  0  0  0  0
 30 31  1  6  0  0  0
M  END
>  <CHROM.1>
-67.75256182,-136.42965961,-95.87326163,-76.57199188,-78.34848285,-57.00758844
40.23233036,83.55649524,101.92217034,139.94128007,-36.84952772,-67.20382598
149.66039063,-60.59591727,-50.02731868,61.39651022,0.55616665,3.52942205
2.64888706,0.71837544,-0.30375847,3.10605875

>  <Name>
lig.pdb

>  <RI>
3.32461e+07

>  <Rbt.Current_Directory>
/home/itssahil/PROJECTS/Mol_Feturizer/New_Systems/rnas/2n0j

>  <Rbt.Executable>
rbdock ($Id: //depot/dev/client3/rdock/2013.1/src/exe/rbdock.cxx#4 $)

>  <Rbt.Library>
libRbt.so (2013.1, Build901 2013/11/27)

>  <Rbt.Parameter_File>
/export/apps/rDock/src/rDock_2013.1_src/data/scripts/dock_solv.prm

>  <Rbt.Receptor>
prm/pocket_docking_7.prm

>  <SCORE>
-62.9079

>  <SCORE.INTER>
-67.0913

>  <SCORE.INTER.CONST>
1

>  <SCORE.INTER.POLAR>
-8.5863

>  <SCORE.INTER.ROT>
6

>  <SCORE.INTER.SOLV>
19.9293

>  <SCORE.INTER.VDW>
-30.3496

>  <SCORE.INTER.norm>
-2.16424

>  <SCORE.INTRA>
4.18339

>  <SCORE.INTRA.DIHEDRAL>
2.89396

>  <SCORE.INTRA.DIHEDRAL.0>
28.0161

>  <SCORE.INTRA.POLAR>
0.0381824

>  <SCORE.INTRA.POLAR.0>
-1.05798

>  <SCORE.INTRA.REPUL>
0

>  <SCORE.INTRA.REPUL.0>
0

>  <SCORE.INTRA.SOLV>
1.4006

>  <SCORE.INTRA.SOLV.lig_0>
-42.5945

>  <SCORE.INTRA.VDW>
1.90629

>  <SCORE.INTRA.VDW.0>
-5.13869

>  <SCORE.INTRA.norm>
0.134948

>  <SCORE.RESTR>
0

>  <SCORE.RESTR.CAVITY>
0

>  <SCORE.RESTR.norm>
0

>  <SCORE.SYSTEM>
0

>  <SCORE.SYSTEM.CONST>
0

>  <SCORE.SYSTEM.DIHEDRAL>
0

>  <SCORE.SYSTEM.SOLV>
0

>  <SCORE.SYSTEM.norm>
0

>  <SCORE.heavy>
31

>  <SCORE.norm>
-2.02929

>  <RMSD>
6.810

$$$$
lig.pdb
 OpenBabel11021811453D
libRbt.so/2013.1/901 2013/11/27
 31 33  0  0  0  0  0  0  0  0999 V2000
   -4.5805    0.4984    9.2038 O   0  0  0  0  0  0  0  0  0  0  0  0
   -5.6616    0.6268    8.3010 C   0  0  0  0  0  0  0  0  0  0  0  0
   -5.7768    2.0598    7.7639 C   0  0  1  0  0  0  0  0  0  0  0  0
   -4.7377    2.3647    6.8472 O   0  0  0  0  0  0  0  0  0  0  0  0
   -5.1735    3.3825    5.9511 C   0  0  1  0  0  0  0  0  0  0  0  0
   -4.8638    3.0123    4.6129 O   0  0  0  0  0  0  0  0  0  0  0  0
   -3.5065    3.1107    4.2118 C   0  0  2  0  0  0  0  0  0  0  0  0
   -3.2529    4.5613    3.7717 C   0  0  1  0  0  0  0  0  0  0  0  0
   -3.2963    5.4183    4.9017 O   0  0  0  0  0  0  0  0  0  0  0  0
   -1.8963    4.7793    3.0846 C   0  0  2  0  0  0  0  0  0  0  0  0
   -1.7635    6.1638    2.6053 N   0  0  0  0  0  0  0  0  0  0  0  0
   -1.7554    3.8198    1.9088 C   0  0  0  0  0  0  0  0  0  0  0  0
   -1.9340    2.3859    2.3925 C   0  0  2  0  0  0  0  0  0  0  0  0
   -1.7393    1.4830    1.2530 N   0  0  0  0  0  0  0  0  0  0  0  0
   -3.3259    2.2052    3.0359 C   0  0  1  0  0  0  0  0  0  0  0  0
   -3.3879    0.8275    3.4352 O   0  0  0  0  0  0  0  0  0  0  0  0
   -4.6553    0.3275    3.8479 C   0  0  1  0  0  0  0  0  0  0  0  0
   -5.6501    0.6060    2.8664 O   0  0  0  0  0  0  0  0  0  0  0  0
   -5.5357   -0.1026    1.6342 C   0  0  2  0  0  0  0  0  0  0  0  0
   -6.6841    0.3210    0.7088 C   0  0  0  0  0  0  0  0  0  0  0  0
   -6.4649    1.6481    0.1515 N   0  0  0  0  0  0  0  0  0  0  0  0
   -5.5891   -1.6235    1.8697 C   0  0  1  0  0  0  0  0  0  0  0  0
   -5.4149   -2.3051    0.6402 O   0  0  0  0  0  0  0  0  0  0  0  0
   -4.4702   -2.0112    2.8444 C   0  0  2  0  0  0  0  0  0  0  0  0
   -4.5471   -3.3910    3.1499 O   0  0  0  0  0  0  0  0  0  0  0  0
   -4.5570   -1.1761    4.1291 C   0  0  1  0  0  0  0  0  0  0  0  0
   -3.4078   -1.4659    4.9984 N   0  0  0  0  0  0  0  0  0  0  0  0
   -6.6964    3.4955    6.1132 C   0  0  2  0  0  0  0  0  0  0  0  0
   -7.0210    4.7085    6.7666 O   0  0  0  0  0  0  0  0  0  0  0  0
   -7.0435    2.2563    6.9369 C   0  0  2  0  0  0  0  0  0  0  0  0
   -8.2149    2.4008    7.7154 O   0  0  0  0  0  0  0  0  0  0  0  0
  2  1  1  0  0  0  0
  3  2  1  6  0  0  0
  3 30  1  0  0  0  0
  4  5  1  0  0  0  0
  4  3  1  0  0  0  0
  5 28  1  0  0  0  0
  5  6  1  6  0  0  0
  7  6  1  6  0  0  0
  8  7  1  0  0  0  0
  8  9  1  1  0  0  0
 10 11  1  6  0  0  0
 10  8  1  0  0  0  0
 12 10  1  0  0  0  0
 13 12  1  0  0  0  0
 13 15  1  0  0  0  0
 13 14  1  6  0  0  0
 15  7  1  0  0  0  0
 15 16  1  1  0  0  0
 17 16  1  6  0  0  0
 18 17  1  0  0  0  0
 19 20  1  6  0  0  0
 19 18  1  0  0  0  0
 20 21  1  0  0  0  0
 22 24  1  0  0  0  0
 22 19  1  0  0  0  0
 22 23  1  6  0  0  0
 24 25  1  1  0  0  0
 24 26  1  0  0  0  0
 26 17  1  0  0  0  0
 26 27  1  1  0  0  0
 28 29  1  1  0  0  0
 28 30  1  0  0  0  0
 30 31  1  1  0  0  0
M  END
>  <CHROM.1>
174.50526184,72.21429491,-74.76079420,-84.64526913,-82.25510391,51.20339250
-61.53282228,69.89120234,52.22258062,74.84251275,-164.68935064,-62.78546821
-58.30517174,-149.93618253,59.02516583,63.22807860,-4.60807734,1.62199324
4.12330587,1.81408621,1.01528283,0.68370720

>  <Name>
lig.pdb

>  <RI>
3.32461e+07

>  <Rbt.Current_Directory>
/home/itssahil/PROJECTS/Mol_Feturizer/New_Systems/rnas/2n0j

>  <Rbt.Executable>
rbdock ($Id: //depot/dev/client3/rdock/2013.1/src/exe/rbdock.cxx#4 $)

>  <Rbt.Library>
libRbt.so (2013.1, Build901 2013/11/27)

>  <Rbt.Parameter_File>
/export/apps/rDock/src/rDock_2013.1_src/data/scripts/dock_solv.prm

>  <Rbt.Receptor>
prm/pocket_docking_7.prm

>  <SCORE>
-27.4319

>  <SCORE.INTER>
-23.1966

>  <SCORE.INTER.CONST>
1

>  <SCORE.INTER.POLAR>
-4.10687

>  <SCORE.INTER.ROT>
6

>  <SCORE.INTER.SOLV>
12.1379

>  <SCORE.INTER.VDW>
-13.4208

>  <SCORE.INTER.norm>
-0.748278

>  <SCORE.INTRA>
-4.2385

>  <SCORE.INTRA.DIHEDRAL>
-17.039

>  <SCORE.INTRA.DIHEDRAL.0>
28.0161

>  <SCORE.INTRA.POLAR>
0.880792

>  <SCORE.INTRA.POLAR.0>
-1.05798

>  <SCORE.INTRA.REPUL>
0

>  <SCORE.INTRA.REPUL.0>
0

>  <SCORE.INTRA.SOLV>
-1.20538

>  <SCORE.INTRA.SOLV.lig_0>
-42.5945

>  <SCORE.INTRA.VDW>
1.889

>  <SCORE.INTRA.VDW.0>
-5.13869

>  <SCORE.INTRA.norm>
-0.136726

>  <SCORE.RESTR>
0.00323687

>  <SCORE.RESTR.CAVITY>
0.00323687

>  <SCORE.RESTR.norm>
0.000104415

>  <SCORE.SYSTEM>
0

>  <SCORE.SYSTEM.CONST>
0

>  <SCORE.SYSTEM.DIHEDRAL>
0

>  <SCORE.SYSTEM.SOLV>
0

>  <SCORE.SYSTEM.norm>
0

>  <SCORE.heavy>
31

>  <SCORE.norm>
-0.884899

>  <RMSD>
6.810

$$$$
lig.pdb
 OpenBabel11021811453D
libRbt.so/2013.1/901 2013/11/27
 31 33  0  0  0  0  0  0  0  0999 V2000
    3.3257    4.7244    0.8913 O   0  0  0  0  0  0  0  0  0  0  0  0
    3.0300    5.8984    1.6223 C   0  0  0  0  0  0  0  0  0  0  0  0
    1.5228    6.1874    1.6340 C   0  0  1  0  0  0  0  0  0  0  0  0
    0.7923    5.1531    2.2740 O   0  0  0  0  0  0  0  0  0  0  0  0
   -0.4231    5.6794    2.7981 C   0  0  1  0  0  0  0  0  0  0  0  0
   -0.5971    5.2457    4.1418 O   0  0  0  0  0  0  0  0  0  0  0  0
   -1.9269    5.0218    4.5825 C   0  0  2  0  0  0  0  0  0  0  0  0
   -2.2422    6.0647    5.6665 C   0  0  1  0  0  0  0  0  0  0  0  0
   -2.3323    7.3530    5.0786 O   0  0  0  0  0  0  0  0  0  0  0  0
   -3.5592    5.8111    6.4156 C   0  0  2  0  0  0  0  0  0  0  0  0
   -3.7474    6.7884    7.4989 N   0  0  0  0  0  0  0  0  0  0  0  0
   -3.5565    4.4026    6.9979 C   0  0  0  0  0  0  0  0  0  0  0  0
   -3.3198    3.3881    5.8858 C   0  0  2  0  0  0  0  0  0  0  0  0
   -3.3767    2.0416    6.4648 N   0  0  0  0  0  0  0  0  0  0  0  0
   -1.9671    3.6571    5.1919 C   0  0  1  0  0  0  0  0  0  0  0  0
   -1.8443    2.6417    4.1842 O   0  0  0  0  0  0  0  0  0  0  0  0
   -0.5305    2.3300    3.7333 C   0  0  1  0  0  0  0  0  0  0  0  0
    0.0767    1.3609    4.5835 O   0  0  0  0  0  0  0  0  0  0  0  0
   -0.4777    0.0479    4.5395 C   0  0  2  0  0  0  0  0  0  0  0  0
    0.2980   -0.8520    5.5107 C   0  0  0  0  0  0  0  0  0  0  0  0
    0.0283   -0.5047    6.8986 N   0  0  0  0  0  0  0  0  0  0  0  0
   -0.4001   -0.5324    3.1151 C   0  0  1  0  0  0  0  0  0  0  0  0
   -1.0088   -1.8111    3.0848 O   0  0  0  0  0  0  0  0  0  0  0  0
   -1.1300    0.4160    2.1558 C   0  0  2  0  0  0  0  0  0  0  0  0
   -1.0013   -0.0450    0.8240 O   0  0  0  0  0  0  0  0  0  0  0  0
   -0.5790    1.8429    2.2807 C   0  0  1  0  0  0  0  0  0  0  0  0
   -1.3701    2.7640    1.4523 N   0  0  0  0  0  0  0  0  0  0  0  0
   -0.2961    7.2094    2.7647 C   0  0  2  0  0  0  0  0  0  0  0  0
   -1.1473    7.7402    1.7661 O   0  0  0  0  0  0  0  0  0  0  0  0
    1.1873    7.4210    2.4662 C   0  0  2  0  0  0  0  0  0  0  0  0
    1.4670    8.6426    1.8115 O   0  0  0  0  0  0  0  0  0  0  0  0
  2  1  1  0  0  0  0
  3  2  1  1  0  0  0
  3 30  1  0  0  0  0
  4  5  1  0  0  0  0
  4  3  1  0  0  0  0
  5 28  1  0  0  0  0
  5  6  1  1  0  0  0
  7  6  1  1  0  0  0
  8  7  1  0  0  0  0
  8  9  1  6  0  0  0
 10 11  1  1  0  0  0
 10  8  1  0  0  0  0
 12 10  1  0  0  0  0
 13 12  1  0  0  0  0
 13 15  1  0  0  0  0
 13 14  1  1  0  0  0
 15  7  1  0  0  0  0
 15 16  1  6  0  0  0
 17 16  1  1  0  0  0
 18 17  1  0  0  0  0
 19 20  1  1  0  0  0
 19 18  1  0  0  0  0
 20 21  1  0  0  0  0
 22 24  1  0  0  0  0
 22 19  1  0  0  0  0
 22 23  1  1  0  0  0
 24 25  1  6  0  0  0
 24 26  1  0  0  0  0
 26 17  1  0  0  0  0
 26 27  1  6  0  0  0
 28 29  1  6  0  0  0
 28 30  1  0  0  0  0
 30 31  1  6  0  0  0
M  END
>  <CHROM.1>
-59.34107382,62.40289635,-146.86880145,-114.05868999,-167.99076692,-132.60121459
-175.17343984,81.91277082,85.69657496,70.26788653,52.20201542,60.87571283
172.03715867,-3.46832086,56.25374781,77.20774559,-0.81348668,3.74135533,3.80563155
-1.38089724,-0.85957346,3.11117069

>  <Name>
lig.pdb

>  <RI>
0

>  <Rbt.Current_Directory>
/home/itssahil/PROJECTS/Mol_Feturizer/New_Systems/rnas/2n0j

>  <Rbt.Executable>
rbdock ($Id: //depot/dev/client3/rdock/2013.1/src/exe/rbdock.cxx#4 $)

>  <Rbt.Library>
libRbt.so (2013.1, Build901 2013/11/27)

>  <Rbt.Parameter_File>
/export/apps/rDock/src/rDock_2013.1_src/data/scripts/dock_solv.prm

>  <Rbt.Receptor>
prm/pocket_docking_5.prm

>  <SCORE>
-36.5105

>  <SCORE.INTER>
-40.5281

>  <SCORE.INTER.CONST>
1

>  <SCORE.INTER.POLAR>
-5.35381

>  <SCORE.INTER.ROT>
6

>  <SCORE.INTER.SOLV>
17.2398

>  <SCORE.INTER.VDW>
-22.5193

>  <SCORE.INTER.norm>
-1.30736

>  <SCORE.INTRA>
3.94561

>  <SCORE.INTRA.DIHEDRAL>
-1.84188

>  <SCORE.INTRA.DIHEDRAL.0>
28.0161

>  <SCORE.INTRA.POLAR>
0.887185

>  <SCORE.INTRA.POLAR.0>
-1.05798

>  <SCORE.INTRA.REPUL>
0

>  <SCORE.INTRA.REPUL.0>
0

>  <SCORE.INTRA.SOLV>
-0.232445

>  <SCORE.INTRA.SOLV.lig_0>
-42.5945

>  <SCORE.INTRA.VDW>
1.96634

>  <SCORE.INTRA.VDW.0>
-5.13869

>  <SCORE.INTRA.norm>
0.127278

>  <SCORE.RESTR>
0.0719535

>  <SCORE.RESTR.CAVITY>
0.0719535

>  <SCORE.RESTR.norm>
0.00232108

>  <SCORE.SYSTEM>
0

>  <SCORE.SYSTEM.CONST>
0

>  <SCORE.SYSTEM.DIHEDRAL>
0

>  <SCORE.SYSTEM.SOLV>
0

>  <SCORE.SYSTEM.norm>
0

>  <SCORE.heavy>
31

>  <SCORE.norm>
-1.17776

>  <RMSD>
6.817

$$$$
lig.pdb
 OpenBabel11021811453D
libRbt.so/2013.1/901 2013/11/27
 31 33  0  0  0  0  0  0  0  0999 V2000
   -0.9346    0.5659    2.9937 O   0  0  0  0  0  0  0  0  0  0  0  0
   -0.1362   -0.4185    2.3664 C   0  0  0  0  0  0  0  0  0  0  0  0
    1.2599    0.1225    2.0293 C   0  0  1  0  0  0  0  0  0  0  0  0
    1.2015    1.4331    1.4892 O   0  0  0  0  0  0  0  0  0  0  0  0
    2.4262    2.1125    1.7483 C   0  0  1  0  0  0  0  0  0  0  0  0
    2.1582    3.4097    2.2672 O   0  0  0  0  0  0  0  0  0  0  0  0
    2.1293    4.4840    1.3410 C   0  0  2  0  0  0  0  0  0  0  0  0
    3.5642    5.0151    1.1959 C   0  0  1  0  0  0  0  0  0  0  0  0
    4.3629    4.0562    0.5207 O   0  0  0  0  0  0  0  0  0  0  0  0
    3.6686    6.3313    0.4105 C   0  0  2  0  0  0  0  0  0  0  0  0
    5.0529    6.8288    0.3950 N   0  0  0  0  0  0  0  0  0  0  0  0
    2.7598    7.3798    1.0413 C   0  0  0  0  0  0  0  0  0  0  0  0
    1.3311    6.8529    1.0984 C   0  0  2  0  0  0  0  0  0  0  0  0
    0.4710    7.9011    1.6581 N   0  0  0  0  0  0  0  0  0  0  0  0
    1.2699    5.5551    1.9324 C   0  0  1  0  0  0  0  0  0  0  0  0
   -0.1114    5.1632    1.9313 O   0  0  0  0  0  0  0  0  0  0  0  0
   -0.5402    4.2927    2.9729 C   0  0  1  0  0  0  0  0  0  0  0  0
   -0.9265    5.0379    4.1244 O   0  0  0  0  0  0  0  0  0  0  0  0
   -2.1133    5.8187    4.0011 C   0  0  2  0  0  0  0  0  0  0  0  0
   -2.3712    6.5441    5.3285 C   0  0  0  0  0  0  0  0  0  0  0  0
   -3.0887    7.7950    5.1279 N   0  0  0  0  0  0  0  0  0  0  0  0
   -3.3203    4.9294    3.6492 C   0  0  1  0  0  0  0  0  0  0  0  0
   -4.4733    5.7337    3.4747 O   0  0  0  0  0  0  0  0  0  0  0  0
   -3.0123    4.1704    2.3525 C   0  0  2  0  0  0  0  0  0  0  0  0
   -4.0675    3.2775    2.0488 O   0  0  0  0  0  0  0  0  0  0  0  0
   -1.6869    3.4064    2.4736 C   0  0  1  0  0  0  0  0  0  0  0  0
   -1.3404    2.7890    1.1854 N   0  0  0  0  0  0  0  0  0  0  0  0
    3.1801    1.2848    2.7994 C   0  0  2  0  0  0  0  0  0  0  0  0
    4.3000    0.6570    2.2033 O   0  0  0  0  0  0  0  0  0  0  0  0
    2.1190    0.2952    3.2779 C   0  0  2  0  0  0  0  0  0  0  0  0
    2.6536   -0.9165    3.7731 O   0  0  0  0  0  0  0  0  0  0  0  0
  2  1  1  0  0  0  0
  3  2  1  1  0  0  0
  3 30  1  0  0  0  0
  4  5  1  0  0  0  0
  4  3  1  0  0  0  0
  5 28  1  0  0  0  0
  5  6  1  1  0  0  0
  7  6  1  1  0  0  0
  8  7  1  0  0  0  0
  8  9  1  6  0  0  0
 10 11  1  1  0  0  0
 10  8  1  0  0  0  0
 12 10  1  0  0  0  0
 13 12  1  0  0  0  0
 13 15  1  0  0  0  0
 13 14  1  1  0  0  0
 15  7  1  0  0  0  0
 15 16  1  6  0  0  0
 17 16  1  6  0  0  0
 18 17  1  0  0  0  0
 19 20  1  1  0  0  0
 19 18  1  0  0  0  0
 20 21  1  0  0  0  0
 22 24  1  0  0  0  0
 22 19  1  0  0  0  0
 22 23  1  6  0  0  0
 24 25  1  1  0  0  0
 24 26  1  0  0  0  0
 26 17  1  0  0  0  0
 26 27  1  6  0  0  0
 28 29  1  6  0  0  0
 28 30  1  0  0  0  0
 30 31  1  6  0  0  0
M  END
>  <CHROM.1>
-67.68695716,-42.86099673,-94.80437417,-87.69741132,-75.66336332,175.66296626
169.70830207,80.41629342,86.99643377,151.53367550,-32.30170302,50.62342684
63.99320326,-29.20527535,146.80537984,59.85240498,0.49242251,3.93064291,2.36562916
0.50833097,-0.32745450,3.04211835

>  <Name>
lig.pdb

>  <RI>
0

>  <Rbt.Current_Directory>
/home/itssahil/PROJECTS/Mol_Feturizer/New_Systems/rnas/2n0j

>  <Rbt.Executable>
rbdock ($Id: //depot/dev/client3/rdock/2013.1/src/exe/rbdock.cxx#4 $)

>  <Rbt.Library>
libRbt.so (2013.1, Build901 2013/11/27)

>  <Rbt.Parameter_File>
/export/apps/rDock/src/rDock_2013.1_src/data/scripts/dock_solv.prm

>  <Rbt.Receptor>
prm/pocket_docking_5.prm

>  <SCORE>
-53.9031

>  <SCORE.INTER>
-53.2465

>  <SCORE.INTER.CONST>
1

>  <SCORE.INTER.POLAR>
-7.40777

>  <SCORE.INTER.ROT>
6

>  <SCORE.INTER.SOLV>
19.9349

>  <SCORE.INTER.VDW>
-25.05

>  <SCORE.INTER.norm>
-1.71763

>  <SCORE.INTRA>
-0.674035

>  <SCORE.INTRA.DIHEDRAL>
-1.96733

>  <SCORE.INTRA.DIHEDRAL.0>
28.0161

>  <SCORE.INTRA.POLAR>
-0.240988

>  <SCORE.INTRA.POLAR.0>
-1.05798

>  <SCORE.INTRA.REPUL>
0

>  <SCORE.INTRA.REPUL.0>
0

>  <SCORE.INTRA.SOLV>
2.20982

>  <SCORE.INTRA.SOLV.lig_0>
-42.5945

>  <SCORE.INTRA.VDW>
0.0240791

>  <SCORE.INTRA.VDW.0>
-5.13869

>  <SCORE.INTRA.norm>
-0.0217431

>  <SCORE.RESTR>
0.0174648

>  <SCORE.RESTR.CAVITY>
0.0174648

>  <SCORE.RESTR.norm>
0.000563382

>  <SCORE.SYSTEM>
0

>  <SCORE.SYSTEM.CONST>
0

>  <SCORE.SYSTEM.DIHEDRAL>
0

>  <SCORE.SYSTEM.SOLV>
0

>  <SCORE.SYSTEM.norm>
0

>  <SCORE.heavy>
31

>  <SCORE.norm>
-1.73881

>  <RMSD>
6.821

$$$$
lig.pdb
 OpenBabel11021811453D
libRbt.so/2013.1/901 2013/11/27
 31 33  0  0  0  0  0  0  0  0999 V2000
   -1.4234   -2.0367    8.9168 O   0  0  0  0  0  0  0  0  0  0  0  0
   -1.5655   -2.1064    7.5114 C   0  0  0  0  0  0  0  0  0  0  0  0
   -0.2310   -1.8481    6.7989 C   0  0  1  0  0  0  0  0  0  0  0  0
   -0.3621   -1.9271    5.3884 O   0  0  0  0  0  0  0  0  0  0  0  0
    0.6446   -1.1323    4.7690 C   0  0  1  0  0  0  0  0  0  0  0  0
    0.0621   -0.3163    3.7596 O   0  0  0  0  0  0  0  0  0  0  0  0
    0.8498   -0.0468    2.6108 C   0  0  2  0  0  0  0  0  0  0  0  0
    1.7939    1.1166    2.9536 C   0  0  1  0  0  0  0  0  0  0  0  0
    2.7666    0.6826    3.8912 O   0  0  0  0  0  0  0  0  0  0  0  0
    2.5484    1.6883    1.7437 C   0  0  2  0  0  0  0  0  0  0  0  0
    3.3558    2.8563    2.1285 N   0  0  0  0  0  0  0  0  0  0  0  0
    1.5539    2.0931    0.6621 C   0  0  0  0  0  0  0  0  0  0  0  0
    0.6862    0.8973    0.2893 C   0  0  2  0  0  0  0  0  0  0  0  0
   -0.2223    1.3002   -0.7896 N   0  0  0  0  0  0  0  0  0  0  0  0
   -0.0836    0.3856    1.5259 C   0  0  1  0  0  0  0  0  0  0  0  0
   -0.8718   -0.7191    1.0570 O   0  0  0  0  0  0  0  0  0  0  0  0
   -2.1797   -0.8607    1.6010 C   0  0  1  0  0  0  0  0  0  0  0  0
   -3.1648   -0.4505    0.6565 O   0  0  0  0  0  0  0  0  0  0  0  0
   -3.3230   -1.2825   -0.4908 C   0  0  2  0  0  0  0  0  0  0  0  0
   -4.4188   -0.6901   -1.3870 C   0  0  0  0  0  0  0  0  0  0  0  0
   -4.2349    0.7402   -1.5881 N   0  0  0  0  0  0  0  0  0  0  0  0
   -3.7040   -2.7167   -0.0794 C   0  0  1  0  0  0  0  0  0  0  0  0
   -3.7979   -3.5365   -1.2308 O   0  0  0  0  0  0  0  0  0  0  0  0
   -2.6243   -3.2626    0.8634 C   0  0  2  0  0  0  0  0  0  0  0  0
   -2.9897   -4.5480    1.3294 O   0  0  0  0  0  0  0  0  0  0  0  0
   -2.4058   -2.3099    2.0465 C   0  0  1  0  0  0  0  0  0  0  0  0
   -1.2833   -2.7786    2.8716 N   0  0  0  0  0  0  0  0  0  0  0  0
    1.2454   -0.2415    5.8661 C   0  0  2  0  0  0  0  0  0  0  0  0
    2.5587   -0.6735    6.1697 O   0  0  0  0  0  0  0  0  0  0  0  0
    0.2680   -0.4247    7.0260 C   0  0  2  0  0  0  0  0  0  0  0  0
    0.8509   -0.2219    8.2982 O   0  0  0  0  0  0  0  0  0  0  0  0
  2  1  1  0  0  0  0
  3  2  1  1  0  0  0
  3 30  1  0  0  0  0
  4  5  1  0  0  0  0
  4  3  1  0  0  0  0
  5 28  1  0  0  0  0
  5  6  1  6  0  0  0
  7  6  1  1  0  0  0
  8  7  1  0  0  0  0
  8  9  1  1  0  0  0
 10 11  1  1  0  0  0
 10  8  1  0  0  0  0
 12 10  1  0  0  0  0
 13 12  1  0  0  0  0
 13 15  1  0  0  0  0
 13 14  1  6  0  0  0
 15  7  1  0  0  0  0
 15 16  1  6  0  0  0
 17 16  1  6  0  0  0
 18 17  1  0  0  0  0
 19 20  1  6  0  0  0
 19 18  1  0  0  0  0
 20 21  1  0  0  0  0
 22 24  1  0  0  0  0
 22 19  1  0  0  0  0
 22 23  1  6  0  0  0
 24 25  1  1  0  0  0
 24 26  1  0  0  0  0
 26 17  1  0  0  0  0
 26 27  1  6  0  0  0
 28 29  1  1  0  0  0
 28 30  1  0  0  0  0
 30 31  1  1  0  0  0
M  END
>  <CHROM.1>
51.23713750,179.51131656,-146.21852471,-82.24396022,-116.71213508,74.01579954
-178.45753099,97.23384840,104.84782826,47.33590648,-57.18902252,-72.14141110
168.52351542,-60.98659107,-56.78724119,-178.80621663,-0.63292914,-0.72381763
2.76766255,0.88539803,0.67717539,1.93208232

>  <Name>
lig.pdb

>  <RI>
0

>  <Rbt.Current_Directory>
/home/itssahil/PROJECTS/Mol_Feturizer/New_Systems/rnas/2n0j

>  <Rbt.Executable>
rbdock ($Id: //depot/dev/client3/rdock/2013.1/src/exe/rbdock.cxx#4 $)

>  <Rbt.Library>
libRbt.so (2013.1, Build901 2013/11/27)

>  <Rbt.Parameter_File>
/export/apps/rDock/src/rDock_2013.1_src/data/scripts/dock_solv.prm

>  <Rbt.Receptor>
prm/blind_docking_40.prm

>  <SCORE>
-21.3232

>  <SCORE.INTER>
-26.2296

>  <SCORE.INTER.CONST>
1

>  <SCORE.INTER.POLAR>
-2.45367

>  <SCORE.INTER.ROT>
6

>  <SCORE.INTER.SOLV>
24.7584

>  <SCORE.INTER.VDW>
-25.1603

>  <SCORE.INTER.norm>
-0.846115

>  <SCORE.INTRA>
1.74342

>  <SCORE.INTRA.DIHEDRAL>
-0.305954

>  <SCORE.INTRA.DIHEDRAL.0>
28.0161

>  <SCORE.INTRA.POLAR>
-0.432862

>  <SCORE.INTRA.POLAR.0>
-1.05798

>  <SCORE.INTRA.REPUL>
0

>  <SCORE.INTRA.REPUL.0>
0

>  <SCORE.INTRA.SOLV>
1.5418

>  <SCORE.INTRA.SOLV.lig_0>
-42.5945

>  <SCORE.INTRA.VDW>
2.59723

>  <SCORE.INTRA.VDW.0>
-5.13869

>  <SCORE.INTRA.norm>
0.0562393

>  <SCORE.RESTR>
3.16292

>  <SCORE.RESTR.CAVITY>
3.16292

>  <SCORE.RESTR.norm>
0.10203

>  <SCORE.SYSTEM>
0

>  <SCORE.SYSTEM.CONST>
0

>  <SCORE.SYSTEM.DIHEDRAL>
0

>  <SCORE.SYSTEM.SOLV>
0

>  <SCORE.SYSTEM.norm>
0

>  <SCORE.heavy>
31

>  <SCORE.norm>
-0.687846

>  <RMSD>
6.832

$$$$
lig.pdb
 OpenBabel11021811453D
libRbt.so/2013.1/901 2013/11/27
 31 33  0  0  0  0  0  0  0  0999 V2000
    4.1567    4.9775   -0.0844 O   0  0  0  0  0  0  0  0  0  0  0  0
    4.1490    6.2037    0.6202 C   0  0  0  0  0  0  0  0  0  0  0  0
    2.7193    6.7183    0.8353 C   0  0  1  0  0  0  0  0  0  0  0  0
    1.8079    5.6583    1.0777 O   0  0  0  0  0  0  0  0  0  0  0  0
    0.7040    6.1407    1.8376 C   0  0  1  0  0  0  0  0  0  0  0  0
    0.4431    5.2590    2.9230 O   0  0  0  0  0  0  0  0  0  0  0  0
   -0.9134    5.0752    3.2959 C   0  0  2  0  0  0  0  0  0  0  0  0
   -1.4157    6.3965    3.8992 C   0  0  1  0  0  0  0  0  0  0  0  0
   -1.5134    7.3802    2.8812 O   0  0  0  0  0  0  0  0  0  0  0  0
   -2.7939    6.2948    4.5703 C   0  0  2  0  0  0  0  0  0  0  0  0
   -3.1661    7.5672    5.2078 N   0  0  0  0  0  0  0  0  0  0  0  0
   -2.7748    5.1886    5.6186 C   0  0  0  0  0  0  0  0  0  0  0  0
   -2.3489    3.8762    4.9720 C   0  0  2  0  0  0  0  0  0  0  0  0
   -2.3923    2.8207    5.9898 N   0  0  0  0  0  0  0  0  0  0  0  0
   -0.9427    4.0151    4.3499 C   0  0  1  0  0  0  0  0  0  0  0  0
   -0.6418    2.7274    3.7906 O   0  0  0  0  0  0  0  0  0  0  0  0
    0.0820    2.7049    2.5649 C   0  0  1  0  0  0  0  0  0  0  0  0
    1.2031    1.8303    2.6585 O   0  0  0  0  0  0  0  0  0  0  0  0
    0.9102    0.4381    2.7552 C   0  0  2  0  0  0  0  0  0  0  0  0
    2.2285   -0.3421    2.8449 C   0  0  0  0  0  0  0  0  0  0  0  0
    2.8902   -0.1357    4.1253 N   0  0  0  0  0  0  0  0  0  0  0  0
    0.1037   -0.0385    1.5329 C   0  0  1  0  0  0  0  0  0  0  0  0
   -0.2248   -1.4085    1.6801 O   0  0  0  0  0  0  0  0  0  0  0  0
   -1.1781    0.7976    1.4313 C   0  0  2  0  0  0  0  0  0  0  0  0
   -1.8995    0.4428    0.2665 O   0  0  0  0  0  0  0  0  0  0  0  0
   -0.8480    2.2962    1.4169 C   0  0  1  0  0  0  0  0  0  0  0  0
   -2.0869    3.0866    1.4482 N   0  0  0  0  0  0  0  0  0  0  0  0
    1.1068    7.5192    2.3812 C   0  0  2  0  0  0  0  0  0  0  0  0
    0.3744    8.5309    1.7152 O   0  0  0  0  0  0  0  0  0  0  0  0
    2.6064    7.5732    2.0936 C   0  0  2  0  0  0  0  0  0  0  0  0
    3.1086    8.8856    1.9371 O   0  0  0  0  0  0  0  0  0  0  0  0
  2  1  1  0  0  0  0
  3  2  1  1  0  0  0
  3 30  1  0  0  0  0
  4  5  1  0  0  0  0
  4  3  1  0  0  0  0
  5 28  1  0  0  0  0
  5  6  1  1  0  0  0
  7  6  1  1  0  0  0
  8  7  1  0  0  0  0
  8  9  1  6  0  0  0
 10 11  1  1  0  0  0
 10  8  1  0  0  0  0
 12 10  1  0  0  0  0
 13 12  1  0  0  0  0
 13 15  1  0  0  0  0
 13 14  1  1  0  0  0
 15  7  1  0  0  0  0
 15 16  1  6  0  0  0
 17 16  1  1  0  0  0
 18 17  1  0  0  0  0
 19 20  1  6  0  0  0
 19 18  1  0  0  0  0
 20 21  1  0  0  0  0
 22 24  1  0  0  0  0
 22 19  1  0  0  0  0
 22 23  1  1  0  0  0
 24 25  1  6  0  0  0
 24 26  1  0  0  0  0
 26 17  1  0  0  0  0
 26 27  1  1  0  0  0
 28 29  1  6  0  0  0
 28 30  1  0  0  0  0
 30 31  1  6  0  0  0
M  END
>  <CHROM.1>
-178.53505051,36.43675877,-144.62930900,-68.38753472,66.94218765,-69.69434580
-172.45725731,22.38571123,129.41847754,70.60692312,-159.05291320,-83.14852735
63.27442374,171.69788736,-56.71589773,-177.03110609,0.11770176,4.13852066
2.65637540,-1.43875800,-0.55748100,-3.07112632

>  <Name>
lig.pdb

>  <RI>
3.33129e+07

>  <Rbt.Current_Directory>
/home/itssahil/PROJECTS/Mol_Feturizer/New_Systems/rnas/2n0j

>  <Rbt.Executable>
rbdock ($Id: //depot/dev/client3/rdock/2013.1/src/exe/rbdock.cxx#4 $)

>  <Rbt.Library>
libRbt.so (2013.1, Build901 2013/11/27)

>  <Rbt.Parameter_File>
/export/apps/rDock/src/rDock_2013.1_src/data/scripts/dock_solv.prm

>  <Rbt.Receptor>
prm/pocket_docking_4.prm

>  <SCORE>
-39.8948

>  <SCORE.INTER>
-48.8276

>  <SCORE.INTER.CONST>
1

>  <SCORE.INTER.POLAR>
-5.77135

>  <SCORE.INTER.ROT>
6

>  <SCORE.INTER.SOLV>
17.8117

>  <SCORE.INTER.VDW>
-26.8511

>  <SCORE.INTER.norm>
-1.57508

>  <SCORE.INTRA>
8.9075

>  <SCORE.INTRA.DIHEDRAL>
-4.66606

>  <SCORE.INTRA.DIHEDRAL.0>
28.0161

>  <SCORE.INTRA.POLAR>
1.03624

>  <SCORE.INTRA.POLAR.0>
-1.05798

>  <SCORE.INTRA.REPUL>
0

>  <SCORE.INTRA.REPUL.0>
0

>  <SCORE.INTRA.SOLV>
0.818445

>  <SCORE.INTRA.SOLV.lig_0>
-42.5945

>  <SCORE.INTRA.VDW>
7.30809

>  <SCORE.INTRA.VDW.0>
-5.13869

>  <SCORE.INTRA.norm>
0.287339

>  <SCORE.RESTR>
0.0252514

>  <SCORE.RESTR.CAVITY>
0.0252514

>  <SCORE.RESTR.norm>
0.000814561

>  <SCORE.SYSTEM>
0

>  <SCORE.SYSTEM.CONST>
0

>  <SCORE.SYSTEM.DIHEDRAL>
0

>  <SCORE.SYSTEM.SOLV>
0

>  <SCORE.SYSTEM.norm>
0

>  <SCORE.heavy>
31

>  <SCORE.norm>
-1.28693

>  <RMSD>
6.837

$$$$
lig.pdb
 OpenBabel11021811453D
libRbt.so/2013.1/901 2013/11/27
 31 33  0  0  0  0  0  0  0  0999 V2000
    1.1052    0.6818    1.3003 O   0  0  0  0  0  0  0  0  0  0  0  0
    1.6174    0.1806    2.5196 C   0  0  0  0  0  0  0  0  0  0  0  0
    0.7421    0.5972    3.7094 C   0  0  1  0  0  0  0  0  0  0  0  0
   -0.3886    1.3476    3.2953 O   0  0  0  0  0  0  0  0  0  0  0  0
   -1.4363    1.1999    4.2488 C   0  0  1  0  0  0  0  0  0  0  0  0
   -2.6577    0.9046    3.5819 O   0  0  0  0  0  0  0  0  0  0  0  0
   -3.1296    1.8581    2.6433 C   0  0  2  0  0  0  0  0  0  0  0  0
   -3.0198    3.2470    3.2923 C   0  0  1  0  0  0  0  0  0  0  0  0
   -1.6534    3.6057    3.4256 O   0  0  0  0  0  0  0  0  0  0  0  0
   -3.7107    4.3659    2.4980 C   0  0  2  0  0  0  0  0  0  0  0  0
   -3.6493    5.6441    3.2237 N   0  0  0  0  0  0  0  0  0  0  0  0
   -5.1674    3.9943    2.2474 C   0  0  0  0  0  0  0  0  0  0  0  0
   -5.2385    2.6502    1.5330 C   0  0  2  0  0  0  0  0  0  0  0  0
   -6.6462    2.3445    1.2563 N   0  0  0  0  0  0  0  0  0  0  0  0
   -4.5704    1.5515    2.3875 C   0  0  1  0  0  0  0  0  0  0  0  0
   -4.7102    0.3392    1.6310 O   0  0  0  0  0  0  0  0  0  0  0  0
   -3.8811    0.1907    0.4834 C   0  0  1  0  0  0  0  0  0  0  0  0
   -2.7834   -0.6736    0.7639 O   0  0  0  0  0  0  0  0  0  0  0  0
   -3.1007   -2.0480    0.9733 C   0  0  2  0  0  0  0  0  0  0  0  0
   -1.8051   -2.8193    1.2581 C   0  0  0  0  0  0  0  0  0  0  0  0
   -0.7352   -1.9327    1.6927 N   0  0  0  0  0  0  0  0  0  0  0  0
   -3.8015   -2.6430   -0.2622 C   0  0  1  0  0  0  0  0  0  0  0  0
   -4.1585   -3.9901   -0.0082 O   0  0  0  0  0  0  0  0  0  0  0  0
   -5.0590   -1.8173   -0.5612 C   0  0  2  0  0  0  0  0  0  0  0  0
   -5.6788   -2.2856   -1.7443 O   0  0  0  0  0  0  0  0  0  0  0  0
   -4.7107   -0.3289   -0.6963 C   0  0  1  0  0  0  0  0  0  0  0  0
   -5.9378    0.4646   -0.8551 N   0  0  0  0  0  0  0  0  0  0  0  0
   -1.0491    0.0230    5.1562 C   0  0  2  0  0  0  0  0  0  0  0  0
   -0.7011    0.5021    6.4418 O   0  0  0  0  0  0  0  0  0  0  0  0
    0.1255   -0.6088    4.4108 C   0  0  2  0  0  0  0  0  0  0  0  0
    1.0271   -1.3004    5.2522 O   0  0  0  0  0  0  0  0  0  0  0  0
  2  1  1  0  0  0  0
  3  2  1  6  0  0  0
  3 30  1  0  0  0  0
  4  5  1  0  0  0  0
  4  3  1  0  0  0  0
  5 28  1  0  0  0  0
  5  6  1  6  0  0  0
  7  6  1  1  0  0  0
  8  7  1  0  0  0  0
  8  9  1  6  0  0  0
 10 11  1  1  0  0  0
 10  8  1  0  0  0  0
 12 10  1  0  0  0  0
 13 12  1  0  0  0  0
 13 15  1  0  0  0  0
 13 14  1  1  0  0  0
 15  7  1  0  0  0  0
 15 16  1  6  0  0  0
 17 16  1  1  0  0  0
 18 17  1  0  0  0  0
 19 20  1  6  0  0  0
 19 18  1  0  0  0  0
 20 21  1  0  0  0  0
 22 24  1  0  0  0  0
 22 19  1  0  0  0  0
 22 23  1  1  0  0  0
 24 25  1  6  0  0  0
 24 26  1  0  0  0  0
 26 17  1  0  0  0  0
 26 27  1  1  0  0  0
 28 29  1  1  0  0  0
 28 30  1  0  0  0  0
 30 31  1  1  0  0  0
M  END
>  <CHROM.1>
-177.60305126,1.80118578,-59.67238438,-46.30064032,-120.76251482,33.12232144
-150.09311004,-47.19805168,101.94378170,19.93516083,-21.65219594,-61.95532693
-177.70700934,41.05579255,62.36787302,178.32223223,-2.72631696,0.48427053
2.09934774,-0.57325677,0.57597562,-2.67176168

>  <Name>
lig.pdb

>  <RI>
2.74555e+07

>  <Rbt.Current_Directory>
/home/itssahil/PROJECTS/Mol_Feturizer/New_Systems/rnas/2n0j

>  <Rbt.Executable>
rbdock ($Id: //depot/dev/client3/rdock/2013.1/src/exe/rbdock.cxx#4 $)

>  <Rbt.Library>
libRbt.so (2013.1, Build901 2013/11/27)

>  <Rbt.Parameter_File>
/export/apps/rDock/src/rDock_2013.1_src/data/scripts/dock_solv.prm

>  <Rbt.Receptor>
prm/pocket_docking_6.prm

>  <SCORE>
-25.6533

>  <SCORE.INTER>
-37.1979

>  <SCORE.INTER.CONST>
1

>  <SCORE.INTER.POLAR>
-6.33349

>  <SCORE.INTER.ROT>
6

>  <SCORE.INTER.SOLV>
15.6469

>  <SCORE.INTER.VDW>
-16.5026

>  <SCORE.INTER.norm>
-1.19993

>  <SCORE.INTRA>
11.5446

>  <SCORE.INTRA.DIHEDRAL>
2.66869

>  <SCORE.INTRA.DIHEDRAL.0>
28.0161

>  <SCORE.INTRA.POLAR>
0.710618

>  <SCORE.INTRA.POLAR.0>
-1.05798

>  <SCORE.INTRA.REPUL>
0.0367482

>  <SCORE.INTRA.REPUL.0>
0

>  <SCORE.INTRA.SOLV>
2.11641

>  <SCORE.INTRA.SOLV.lig_0>
-42.5945

>  <SCORE.INTRA.VDW>
6.55223

>  <SCORE.INTRA.VDW.0>
-5.13869

>  <SCORE.INTRA.norm>
0.372407

>  <SCORE.RESTR>
0

>  <SCORE.RESTR.CAVITY>
0

>  <SCORE.RESTR.norm>
0

>  <SCORE.SYSTEM>
0

>  <SCORE.SYSTEM.CONST>
0

>  <SCORE.SYSTEM.DIHEDRAL>
0

>  <SCORE.SYSTEM.SOLV>
0

>  <SCORE.SYSTEM.norm>
0

>  <SCORE.heavy>
31

>  <SCORE.norm>
-0.827526

>  <RMSD>
6.845

$$$$
lig.pdb
 OpenBabel11021811453D
libRbt.so/2013.1/901 2013/11/27
 31 33  0  0  0  0  0  0  0  0999 V2000
   -1.8426    0.1321   -0.5167 O   0  0  0  0  0  0  0  0  0  0  0  0
   -0.5596   -0.4139   -0.7532 C   0  0  0  0  0  0  0  0  0  0  0  0
    0.2700   -0.4767    0.5364 C   0  0  1  0  0  0  0  0  0  0  0  0
    0.6891    0.8117    0.9573 O   0  0  0  0  0  0  0  0  0  0  0  0
    0.8974    0.8106    2.3663 C   0  0  1  0  0  0  0  0  0  0  0  0
    0.2608    1.9415    2.9492 O   0  0  0  0  0  0  0  0  0  0  0  0
    0.3980    3.1813    2.2733 C   0  0  2  0  0  0  0  0  0  0  0  0
    1.8367    3.6760    2.4912 C   0  0  1  0  0  0  0  0  0  0  0  0
    2.7410    2.8440    1.7816 O   0  0  0  0  0  0  0  0  0  0  0  0
    2.0804    5.1190    2.0238 C   0  0  2  0  0  0  0  0  0  0  0  0
    3.4463    5.5566    2.3508 N   0  0  0  0  0  0  0  0  0  0  0  0
    1.0758    6.0518    2.6899 C   0  0  0  0  0  0  0  0  0  0  0  0
   -0.3412    5.5787    2.3893 C   0  0  2  0  0  0  0  0  0  0  0  0
   -1.2853    6.5237    2.9954 N   0  0  0  0  0  0  0  0  0  0  0  0
   -0.5510    4.1422    2.9147 C   0  0  1  0  0  0  0  0  0  0  0  0
   -1.9108    3.8113    2.5940 O   0  0  0  0  0  0  0  0  0  0  0  0
   -2.5008    2.7288    3.3058 C   0  0  1  0  0  0  0  0  0  0  0  0
   -3.0192    3.1722    4.5569 O   0  0  0  0  0  0  0  0  0  0  0  0
   -4.1564    4.0307    4.4995 C   0  0  2  0  0  0  0  0  0  0  0  0
   -4.5720    4.4014    5.9294 C   0  0  0  0  0  0  0  0  0  0  0  0
   -6.0183    4.3724    6.0942 N   0  0  0  0  0  0  0  0  0  0  0  0
   -5.3285    3.3402    3.7777 C   0  0  1  0  0  0  0  0  0  0  0  0
   -6.4245    4.2325    3.6817 O   0  0  0  0  0  0  0  0  0  0  0  0
   -4.8682    2.9260    2.3744 C   0  0  2  0  0  0  0  0  0  0  0  0
   -5.8966    2.2101    1.7165 O   0  0  0  0  0  0  0  0  0  0  0  0
   -3.5931    2.0757    2.4513 C   0  0  1  0  0  0  0  0  0  0  0  0
   -3.0920    1.7934    1.0986 N   0  0  0  0  0  0  0  0  0  0  0  0
    0.2576   -0.4754    2.9094 C   0  0  2  0  0  0  0  0  0  0  0  0
    1.2677   -1.3778    3.3204 O   0  0  0  0  0  0  0  0  0  0  0  0
   -0.5531   -0.9815    1.7173 C   0  0  2  0  0  0  0  0  0  0  0  0
   -0.7502   -2.3816    1.7169 O   0  0  0  0  0  0  0  0  0  0  0  0
  2  1  1  0  0  0  0
  3  2  1  6  0  0  0
  3 30  1  0  0  0  0
  4  5  1  0  0  0  0
  4  3  1  0  0  0  0
  5 28  1  0  0  0  0
  5  6  1  1  0  0  0
  7  6  1  1  0  0  0
  8  7  1  0  0  0  0
  8  9  1  6  0  0  0
 10 11  1  1  0  0  0
 10  8  1  0  0  0  0
 12 10  1  0  0  0  0
 13 12  1  0  0  0  0
 13 15  1  0  0  0  0
 13 14  1  1  0  0  0
 15  7  1  0  0  0  0
 15 16  1  6  0  0  0
 17 16  1  6  0  0  0
 18 17  1  0  0  0  0
 19 20  1  1  0  0  0
 19 18  1  0  0  0  0
 20 21  1  0  0  0  0
 22 24  1  0  0  0  0
 22 19  1  0  0  0  0
 22 23  1  6  0  0  0
 24 25  1  1  0  0  0
 24 26  1  0  0  0  0
 26 17  1  0  0  0  0
 26 27  1  6  0  0  0
 28 29  1  6  0  0  0
 28 30  1  0  0  0  0
 30 31  1  1  0  0  0
M  END
>  <CHROM.1>
-174.31255452,-71.91865255,-42.95998320,-73.29213469,56.51513731,64.74197314
-47.37283107,77.91402430,84.18331067,-138.25281501,-173.75066943,-178.99806637
58.68263478,49.43695459,179.26091372,37.59233272,-1.38917482,2.54655842,2.54409524
0.50236735,-0.21171337,-2.79737140

>  <Name>
lig.pdb

>  <RI>
0

>  <Rbt.Current_Directory>
/home/itssahil/PROJECTS/Mol_Feturizer/New_Systems/rnas/2n0j

>  <Rbt.Executable>
rbdock ($Id: //depot/dev/client3/rdock/2013.1/src/exe/rbdock.cxx#4 $)

>  <Rbt.Library>
libRbt.so (2013.1, Build901 2013/11/27)

>  <Rbt.Parameter_File>
/export/apps/rDock/src/rDock_2013.1_src/data/scripts/dock_solv.prm

>  <Rbt.Receptor>
prm/pocket_docking_5.prm

>  <SCORE>
-44.0824

>  <SCORE.INTER>
-44.1535

>  <SCORE.INTER.CONST>
1

>  <SCORE.INTER.POLAR>
-5.78716

>  <SCORE.INTER.ROT>
6

>  <SCORE.INTER.SOLV>
17.1524

>  <SCORE.INTER.VDW>
-23.4626

>  <SCORE.INTER.norm>
-1.42431

>  <SCORE.INTRA>
0.0711126

>  <SCORE.INTRA.DIHEDRAL>
-13.6327

>  <SCORE.INTRA.DIHEDRAL.0>
28.0161

>  <SCORE.INTRA.POLAR>
0.495237

>  <SCORE.INTRA.POLAR.0>
-1.05798

>  <SCORE.INTRA.REPUL>
0

>  <SCORE.INTRA.REPUL.0>
0

>  <SCORE.INTRA.SOLV>
2.67048

>  <SCORE.INTRA.SOLV.lig_0>
-42.5945

>  <SCORE.INTRA.VDW>
3.86839

>  <SCORE.INTRA.VDW.0>
-5.13869

>  <SCORE.INTRA.norm>
0.00229396

>  <SCORE.RESTR>
0

>  <SCORE.RESTR.CAVITY>
0

>  <SCORE.RESTR.norm>
0

>  <SCORE.SYSTEM>
0

>  <SCORE.SYSTEM.CONST>
0

>  <SCORE.SYSTEM.DIHEDRAL>
0

>  <SCORE.SYSTEM.SOLV>
0

>  <SCORE.SYSTEM.norm>
0

>  <SCORE.heavy>
31

>  <SCORE.norm>
-1.42201

>  <RMSD>
6.853

$$$$
lig.pdb
 OpenBabel11021811453D
libRbt.so/2013.1/901 2013/11/27
 31 33  0  0  0  0  0  0  0  0999 V2000
   -0.9730   -0.4064    0.2893 O   0  0  0  0  0  0  0  0  0  0  0  0
   -0.4425   -0.7608    1.5515 C   0  0  0  0  0  0  0  0  0  0  0  0
    1.0151   -0.3028    1.6960 C   0  0  1  0  0  0  0  0  0  0  0  0
    1.1516    1.0947    1.4931 O   0  0  0  0  0  0  0  0  0  0  0  0
    2.2983    1.5700    2.1917 C   0  0  1  0  0  0  0  0  0  0  0  0
    1.9627    2.7375    2.9321 O   0  0  0  0  0  0  0  0  0  0  0  0
    1.9772    3.9728    2.2344 C   0  0  2  0  0  0  0  0  0  0  0  0
    3.3174    4.6632    2.5336 C   0  0  1  0  0  0  0  0  0  0  0  0
    4.3725    3.9507    1.9073 O   0  0  0  0  0  0  0  0  0  0  0  0
    3.3953    6.1178    2.0456 C   0  0  2  0  0  0  0  0  0  0  0  0
    4.6637    6.7434    2.4504 N   0  0  0  0  0  0  0  0  0  0  0  0
    2.2303    6.9156    2.6194 C   0  0  0  0  0  0  0  0  0  0  0  0
    0.9145    6.2483    2.2385 C   0  0  2  0  0  0  0  0  0  0  0  0
   -0.1883    7.0656    2.7560 N   0  0  0  0  0  0  0  0  0  0  0  0
    0.8651    4.8058    2.7865 C   0  0  1  0  0  0  0  0  0  0  0  0
   -0.4121    4.2866    2.3856 O   0  0  0  0  0  0  0  0  0  0  0  0
   -1.0222    3.3288    3.2441 C   0  0  1  0  0  0  0  0  0  0  0  0
   -1.4820    3.9478    4.4425 O   0  0  0  0  0  0  0  0  0  0  0  0
   -2.5848    4.8416    4.3073 C   0  0  2  0  0  0  0  0  0  0  0  0
   -2.9392    5.4063    5.6894 C   0  0  0  0  0  0  0  0  0  0  0  0
   -4.2573    4.9700    6.1274 N   0  0  0  0  0  0  0  0  0  0  0  0
   -3.8063    4.1184    3.7101 C   0  0  1  0  0  0  0  0  0  0  0  0
   -4.8680    5.0390    3.5314 O   0  0  0  0  0  0  0  0  0  0  0  0
   -3.4083    3.5119    2.3588 C   0  0  2  0  0  0  0  0  0  0  0  0
   -4.4853    2.7652    1.8243 O   0  0  0  0  0  0  0  0  0  0  0  0
   -2.1666    2.6226    2.5085 C   0  0  1  0  0  0  0  0  0  0  0  0
   -1.7210    2.1513    1.1895 N   0  0  0  0  0  0  0  0  0  0  0  0
    2.7247    0.4546    3.1572 C   0  0  2  0  0  0  0  0  0  0  0  0
    3.9314   -0.1336    2.7084 O   0  0  0  0  0  0  0  0  0  0  0  0
    1.5357   -0.5040    3.1157 C   0  0  2  0  0  0  0  0  0  0  0  0
    1.8750   -1.8440    3.4130 O   0  0  0  0  0  0  0  0  0  0  0  0
  2  1  1  0  0  0  0
  3  2  1  1  0  0  0
  3 30  1  0  0  0  0
  4  5  1  0  0  0  0
  4  3  1  0  0  0  0
  5 28  1  0  0  0  0
  5  6  1  1  0  0  0
  7  6  1  1  0  0  0
  8  7  1  0  0  0  0
  8  9  1  6  0  0  0
 10 11  1  1  0  0  0
 10  8  1  0  0  0  0
 12 10  1  0  0  0  0
 13 12  1  0  0  0  0
 13 15  1  0  0  0  0
 13 14  1  1  0  0  0
 15  7  1  0  0  0  0
 15 16  1  6  0  0  0
 17 16  1  6  0  0  0
 18 17  1  0  0  0  0
 19 20  1  1  0  0  0
 19 18  1  0  0  0  0
 20 21  1  0  0  0  0
 22 24  1  0  0  0  0
 22 19  1  0  0  0  0
 22 23  1  6  0  0  0
 24 25  1  1  0  0  0
 24 26  1  0  0  0  0
 26 17  1  0  0  0  0
 26 27  1  6  0  0  0
 28 29  1  6  0  0  0
 28 30  1  0  0  0  0
 30 31  1  6  0  0  0
M  END
>  <CHROM.1>
65.98891738,56.70173991,-83.32997038,-98.51542569,63.27830379,-55.92652677
-179.88684739,90.25423972,71.37497650,-114.46555307,57.08879085,172.94218378
168.54636983,-99.67332762,62.04399775,63.03267282,0.09123144,3.18949771,2.74147539
0.46059974,-0.15712563,-2.96992822

>  <Name>
lig.pdb

>  <RI>
0

>  <Rbt.Current_Directory>
/home/itssahil/PROJECTS/Mol_Feturizer/New_Systems/rnas/2n0j

>  <Rbt.Executable>
rbdock ($Id: //depot/dev/client3/rdock/2013.1/src/exe/rbdock.cxx#4 $)

>  <Rbt.Library>
libRbt.so (2013.1, Build901 2013/11/27)

>  <Rbt.Parameter_File>
/export/apps/rDock/src/rDock_2013.1_src/data/scripts/dock_solv.prm

>  <Rbt.Receptor>
prm/pocket_docking_5.prm

>  <SCORE>
-49.7923

>  <SCORE.INTER>
-46.3945

>  <SCORE.INTER.CONST>
1

>  <SCORE.INTER.POLAR>
-5.77998

>  <SCORE.INTER.ROT>
6

>  <SCORE.INTER.SOLV>
18.483

>  <SCORE.INTER.VDW>
-25.4241

>  <SCORE.INTER.norm>
-1.4966

>  <SCORE.INTRA>
-3.39783

>  <SCORE.INTRA.DIHEDRAL>
-6.82678

>  <SCORE.INTRA.DIHEDRAL.0>
28.0161

>  <SCORE.INTRA.POLAR>
-0.771345

>  <SCORE.INTRA.POLAR.0>
-1.05798

>  <SCORE.INTRA.REPUL>
0

>  <SCORE.INTRA.REPUL.0>
0

>  <SCORE.INTRA.SOLV>
1.70283

>  <SCORE.INTRA.SOLV.lig_0>
-42.5945

>  <SCORE.INTRA.VDW>
1.78672

>  <SCORE.INTRA.VDW.0>
-5.13869

>  <SCORE.INTRA.norm>
-0.109607

>  <SCORE.RESTR>
0

>  <SCORE.RESTR.CAVITY>
0

>  <SCORE.RESTR.norm>
0

>  <SCORE.SYSTEM>
0

>  <SCORE.SYSTEM.CONST>
0

>  <SCORE.SYSTEM.DIHEDRAL>
0

>  <SCORE.SYSTEM.SOLV>
0

>  <SCORE.SYSTEM.norm>
0

>  <SCORE.heavy>
31

>  <SCORE.norm>
-1.6062

>  <RMSD>
6.854

$$$$
lig.pdb
 OpenBabel11021811453D
libRbt.so/2013.1/901 2013/11/27
 31 33  0  0  0  0  0  0  0  0999 V2000
    2.7357    5.3186    0.5598 O   0  0  0  0  0  0  0  0  0  0  0  0
    3.3254    5.1371    1.8323 C   0  0  0  0  0  0  0  0  0  0  0  0
    2.7923    3.8744    2.5228 C   0  0  1  0  0  0  0  0  0  0  0  0
    1.4155    3.9908    2.8451 O   0  0  0  0  0  0  0  0  0  0  0  0
    0.8265    2.6952    2.9034 C   0  0  1  0  0  0  0  0  0  0  0  0
   -0.3898    2.6844    2.1656 O   0  0  0  0  0  0  0  0  0  0  0  0
   -1.5312    3.2492    2.7910 C   0  0  2  0  0  0  0  0  0  0  0  0
   -1.4206    4.7776    2.6735 C   0  0  1  0  0  0  0  0  0  0  0  0
   -1.5948    5.1669    1.3201 O   0  0  0  0  0  0  0  0  0  0  0  0
   -2.4568    5.5466    3.5072 C   0  0  2  0  0  0  0  0  0  0  0  0
   -2.2306    6.9978    3.4232 N   0  0  0  0  0  0  0  0  0  0  0  0
   -2.3758    5.1040    4.9634 C   0  0  0  0  0  0  0  0  0  0  0  0
   -2.5676    3.5950    5.0524 C   0  0  2  0  0  0  0  0  0  0  0  0
   -2.5397    3.2053    6.4663 N   0  0  0  0  0  0  0  0  0  0  0  0
   -1.4794    2.8658    4.2352 C   0  0  1  0  0  0  0  0  0  0  0  0
   -1.7470    1.4652    4.4039 O   0  0  0  0  0  0  0  0  0  0  0  0
   -2.9787    0.9727    3.8872 C   0  0  1  0  0  0  0  0  0  0  0  0
   -2.9430    0.9225    2.4635 O   0  0  0  0  0  0  0  0  0  0  0  0
   -2.0707   -0.0480    1.8886 C   0  0  2  0  0  0  0  0  0  0  0  0
   -2.1652    0.0425    0.3597 C   0  0  0  0  0  0  0  0  0  0  0  0
   -1.7754    1.3582   -0.1268 N   0  0  0  0  0  0  0  0  0  0  0  0
   -2.4487   -1.4673    2.3517 C   0  0  1  0  0  0  0  0  0  0  0  0
   -1.5336   -2.4059    1.8151 O   0  0  0  0  0  0  0  0  0  0  0  0
   -2.4056   -1.5137    3.8842 C   0  0  2  0  0  0  0  0  0  0  0  0
   -2.8334   -2.7817    4.3449 O   0  0  0  0  0  0  0  0  0  0  0  0
   -3.2815   -0.4060    4.4848 C   0  0  1  0  0  0  0  0  0  0  0  0
   -3.1314   -0.3804    5.9468 N   0  0  0  0  0  0  0  0  0  0  0  0
    1.8260    1.7230    2.2599 C   0  0  2  0  0  0  0  0  0  0  0  0
    2.4004    0.8964    3.2551 O   0  0  0  0  0  0  0  0  0  0  0  0
    2.8355    2.6608    1.5998 C   0  0  2  0  0  0  0  0  0  0  0  0
    4.1253    2.0991    1.4581 O   0  0  0  0  0  0  0  0  0  0  0  0
  2  1  1  0  0  0  0
  3  2  1  6  0  0  0
  3 30  1  0  0  0  0
  4  5  1  0  0  0  0
  4  3  1  0  0  0  0
  5 28  1  0  0  0  0
  5  6  1  6  0  0  0
  7  6  1  6  0  0  0
  8  7  1  0  0  0  0
  8  9  1  6  0  0  0
 10 11  1  1  0  0  0
 10  8  1  0  0  0  0
 12 10  1  0  0  0  0
 13 12  1  0  0  0  0
 13 15  1  0  0  0  0
 13 14  1  1  0  0  0
 15  7  1  0  0  0  0
 15 16  1  6  0  0  0
 17 16  1  1  0  0  0
 18 17  1  0  0  0  0
 19 20  1  6  0  0  0
 19 18  1  0  0  0  0
 20 21  1  0  0  0  0
 22 24  1  0  0  0  0
 22 19  1  0  0  0  0
 22 23  1  6  0  0  0
 24 25  1  1  0  0  0
 24 26  1  0  0  0  0
 26 17  1  0  0  0  0
 26 27  1  1  0  0  0
 28 29  1  1  0  0  0
 28 30  1  0  0  0  0
 30 31  1  1  0  0  0
M  END
>  <CHROM.1>
179.91701261,-66.34161204,-78.55253254,78.55640319,50.63083409,-172.97474082
-55.46595195,-56.83403461,72.61645027,60.24326835,155.67707784,56.36999557
-60.87786159,-69.84566244,-53.31017498,-63.21152042,-0.80760220,2.17114778
2.94291387,-0.78313785,-0.50619884,-2.99929809

>  <Name>
lig.pdb

>  <RI>
3.50357e+07

>  <Rbt.Current_Directory>
/home/itssahil/PROJECTS/Mol_Feturizer/New_Systems/rnas/2n0j

>  <Rbt.Executable>
rbdock ($Id: //depot/dev/client3/rdock/2013.1/src/exe/rbdock.cxx#4 $)

>  <Rbt.Library>
libRbt.so (2013.1, Build901 2013/11/27)

>  <Rbt.Parameter_File>
/export/apps/rDock/src/rDock_2013.1_src/data/scripts/dock_solv.prm

>  <Rbt.Receptor>
prm/pocket_docking_3.prm

>  <SCORE>
-45.1892

>  <SCORE.INTER>
-39.1697

>  <SCORE.INTER.CONST>
1

>  <SCORE.INTER.POLAR>
-4.94507

>  <SCORE.INTER.ROT>
6

>  <SCORE.INTER.SOLV>
16.4261

>  <SCORE.INTER.VDW>
-22.705

>  <SCORE.INTER.norm>
-1.26354

>  <SCORE.INTRA>
-6.01942

>  <SCORE.INTRA.DIHEDRAL>
-21.1047

>  <SCORE.INTRA.DIHEDRAL.0>
28.0161

>  <SCORE.INTRA.POLAR>
0.0574284

>  <SCORE.INTRA.POLAR.0>
-1.05798

>  <SCORE.INTRA.REPUL>
1.62775e-05

>  <SCORE.INTRA.REPUL.0>
0

>  <SCORE.INTRA.SOLV>
0.701704

>  <SCORE.INTRA.SOLV.lig_0>
-42.5945

>  <SCORE.INTRA.VDW>
3.98674

>  <SCORE.INTRA.VDW.0>
-5.13869

>  <SCORE.INTRA.norm>
-0.194175

>  <SCORE.RESTR>
0

>  <SCORE.RESTR.CAVITY>
0

>  <SCORE.RESTR.norm>
0

>  <SCORE.SYSTEM>
0

>  <SCORE.SYSTEM.CONST>
0

>  <SCORE.SYSTEM.DIHEDRAL>
0

>  <SCORE.SYSTEM.SOLV>
0

>  <SCORE.SYSTEM.norm>
0

>  <SCORE.heavy>
31

>  <SCORE.norm>
-1.45771

>  <RMSD>
6.856

$$$$
lig.pdb
 OpenBabel11021811453D
libRbt.so/2013.1/901 2013/11/27
 31 33  0  0  0  0  0  0  0  0999 V2000
    5.1697    3.6064    2.3321 O   0  0  0  0  0  0  0  0  0  0  0  0
    5.2364    4.4540    1.2020 C   0  0  0  0  0  0  0  0  0  0  0  0
    3.9910    5.3443    1.0941 C   0  0  1  0  0  0  0  0  0  0  0  0
    2.8063    4.5783    0.9440 O   0  0  0  0  0  0  0  0  0  0  0  0
    1.6932    5.3165    1.4389 C   0  0  1  0  0  0  0  0  0  0  0  0
    0.9070    4.4914    2.2904 O   0  0  0  0  0  0  0  0  0  0  0  0
   -0.4981    4.6855    2.2625 C   0  0  2  0  0  0  0  0  0  0  0  0
   -0.7960    6.0419    2.9212 C   0  0  1  0  0  0  0  0  0  0  0  0
   -0.3300    7.0910    2.0871 O   0  0  0  0  0  0  0  0  0  0  0  0
   -2.2880    6.2960    3.1847 C   0  0  2  0  0  0  0  0  0  0  0  0
   -2.4891    7.5646    3.9018 N   0  0  0  0  0  0  0  0  0  0  0  0
   -2.8670    5.1509    4.0073 C   0  0  0  0  0  0  0  0  0  0  0  0
   -2.6243    3.8292    3.2890 C   0  0  2  0  0  0  0  0  0  0  0  0
   -3.2386    2.7533    4.0745 N   0  0  0  0  0  0  0  0  0  0  0  0
   -1.1114    3.5982    3.0853 C   0  0  1  0  0  0  0  0  0  0  0  0
   -1.0029    2.3297    2.4216 O   0  0  0  0  0  0  0  0  0  0  0  0
    0.0399    2.1853    1.4633 C   0  0  1  0  0  0  0  0  0  0  0  0
    1.2814    1.9133    2.1077 O   0  0  0  0  0  0  0  0  0  0  0  0
    1.3983    0.6400    2.7390 C   0  0  2  0  0  0  0  0  0  0  0  0
    2.7912    0.5255    3.3727 C   0  0  0  0  0  0  0  0  0  0  0  0
    3.8381    0.9406    2.4500 N   0  0  0  0  0  0  0  0  0  0  0  0
    1.1928   -0.4973    1.7213 C   0  0  1  0  0  0  0  0  0  0  0  0
    1.2553   -1.7487    2.3821 O   0  0  0  0  0  0  0  0  0  0  0  0
   -0.1799   -0.3246    1.0593 C   0  0  2  0  0  0  0  0  0  0  0  0
   -0.3627   -1.3048    0.0549 O   0  0  0  0  0  0  0  0  0  0  0  0
   -0.3204    1.0821    0.4619 C   0  0  1  0  0  0  0  0  0  0  0  0
   -1.6824    1.2774   -0.0552 N   0  0  0  0  0  0  0  0  0  0  0  0
    2.2627    6.4922    2.2459 C   0  0  2  0  0  0  0  0  0  0  0  0
    2.0456    7.7040    1.5475 O   0  0  0  0  0  0  0  0  0  0  0  0
    3.7411    6.1297    2.3777 C   0  0  2  0  0  0  0  0  0  0  0  0
    4.5895    7.2499    2.5339 O   0  0  0  0  0  0  0  0  0  0  0  0
  2  1  1  0  0  0  0
  3  2  1  1  0  0  0
  3 30  1  0  0  0  0
  4  5  1  0  0  0  0
  4  3  1  0  0  0  0
  5 28  1  0  0  0  0
  5  6  1  1  0  0  0
  7  6  1  1  0  0  0
  8  7  1  0  0  0  0
  8  9  1  6  0  0  0
 10 11  1  1  0  0  0
 10  8  1  0  0  0  0
 12 10  1  0  0  0  0
 13 12  1  0  0  0  0
 13 15  1  0  0  0  0
 13 14  1  1  0  0  0
 15  7  1  0  0  0  0
 15 16  1  6  0  0  0
 17 16  1  1  0  0  0
 18 17  1  0  0  0  0
 19 20  1  6  0  0  0
 19 18  1  0  0  0  0
 20 21  1  0  0  0  0
 22 24  1  0  0  0  0
 22 19  1  0  0  0  0
 22 23  1  1  0  0  0
 24 25  1  6  0  0  0
 24 26  1  0  0  0  0
 26 17  1  0  0  0  0
 26 27  1  1  0  0  0
 28 29  1  6  0  0  0
 28 30  1  0  0  0  0
 30 31  1  6  0  0  0
M  END
>  <CHROM.1>
175.68267499,-61.33868017,-144.70788299,-70.21573470,62.53251150,76.00181956
71.80704755,23.88321730,80.62098768,-47.31415203,70.08515468,-81.45766165
179.74531195,146.88308748,-173.63322507,-59.20997980,0.80984501,3.52176851
2.15626081,-1.41950818,-0.15523434,-2.99859853

>  <Name>
lig.pdb

>  <RI>
3.33129e+07

>  <Rbt.Current_Directory>
/home/itssahil/PROJECTS/Mol_Feturizer/New_Systems/rnas/2n0j

>  <Rbt.Executable>
rbdock ($Id: //depot/dev/client3/rdock/2013.1/src/exe/rbdock.cxx#4 $)

>  <Rbt.Library>
libRbt.so (2013.1, Build901 2013/11/27)

>  <Rbt.Parameter_File>
/export/apps/rDock/src/rDock_2013.1_src/data/scripts/dock_solv.prm

>  <Rbt.Receptor>
prm/pocket_docking_4.prm

>  <SCORE>
-49.0285

>  <SCORE.INTER>
-54.1297

>  <SCORE.INTER.CONST>
1

>  <SCORE.INTER.POLAR>
-6.6476

>  <SCORE.INTER.ROT>
6

>  <SCORE.INTER.SOLV>
18.3909

>  <SCORE.INTER.VDW>
-27.6581

>  <SCORE.INTER.norm>
-1.74612

>  <SCORE.INTRA>
5.1012

>  <SCORE.INTRA.DIHEDRAL>
-9.77623

>  <SCORE.INTRA.DIHEDRAL.0>
28.0161

>  <SCORE.INTRA.POLAR>
0.310708

>  <SCORE.INTRA.POLAR.0>
-1.05798

>  <SCORE.INTRA.REPUL>
0.370031

>  <SCORE.INTRA.REPUL.0>
0

>  <SCORE.INTRA.SOLV>
2.42187

>  <SCORE.INTRA.SOLV.lig_0>
-42.5945

>  <SCORE.INTRA.VDW>
5.87181

>  <SCORE.INTRA.VDW.0>
-5.13869

>  <SCORE.INTRA.norm>
0.164555

>  <SCORE.RESTR>
0

>  <SCORE.RESTR.CAVITY>
0

>  <SCORE.RESTR.norm>
0

>  <SCORE.SYSTEM>
0

>  <SCORE.SYSTEM.CONST>
0

>  <SCORE.SYSTEM.DIHEDRAL>
0

>  <SCORE.SYSTEM.SOLV>
0

>  <SCORE.SYSTEM.norm>
0

>  <SCORE.heavy>
31

>  <SCORE.norm>
-1.58157

>  <RMSD>
6.870

$$$$
lig.pdb
 OpenBabel11021811453D
libRbt.so/2013.1/901 2013/11/27
 31 33  0  0  0  0  0  0  0  0999 V2000
   -0.7714   -1.5574    0.4971 O   0  0  0  0  0  0  0  0  0  0  0  0
   -0.2609   -0.2767    0.1819 C   0  0  0  0  0  0  0  0  0  0  0  0
    0.8181    0.1591    1.1824 C   0  0  1  0  0  0  0  0  0  0  0  0
    1.0855    1.5499    1.0976 O   0  0  0  0  0  0  0  0  0  0  0  0
    1.5809    2.0191    2.3478 C   0  0  1  0  0  0  0  0  0  0  0  0
    0.8937    3.2064    2.7244 O   0  0  0  0  0  0  0  0  0  0  0  0
    0.8813    4.2718    1.7877 C   0  0  2  0  0  0  0  0  0  0  0  0
    2.2918    4.8814    1.7540 C   0  0  1  0  0  0  0  0  0  0  0  0
    3.1947    3.9646    1.1560 O   0  0  0  0  0  0  0  0  0  0  0  0
    2.3871    6.1967    0.9659 C   0  0  2  0  0  0  0  0  0  0  0  0
    3.7385    6.7706    1.0577 N   0  0  0  0  0  0  0  0  0  0  0  0
    1.3733    7.1965    1.5097 C   0  0  0  0  0  0  0  0  0  0  0  0
   -0.0240    6.5910    1.4562 C   0  0  2  0  0  0  0  0  0  0  0  0
   -0.9835    7.5927    1.9331 N   0  0  0  0  0  0  0  0  0  0  0  0
   -0.0814    5.2967    2.2960 C   0  0  1  0  0  0  0  0  0  0  0  0
   -1.4342    4.8283    2.1868 O   0  0  0  0  0  0  0  0  0  0  0  0
   -2.3756    5.3382    3.1251 C   0  0  1  0  0  0  0  0  0  0  0  0
   -3.7080    5.0639    2.7009 O   0  0  0  0  0  0  0  0  0  0  0  0
   -4.1080    3.6953    2.7244 C   0  0  2  0  0  0  0  0  0  0  0  0
   -5.5606    3.5937    2.2407 C   0  0  0  0  0  0  0  0  0  0  0  0
   -6.4671    4.3452    3.0971 N   0  0  0  0  0  0  0  0  0  0  0  0
   -3.9892    3.1140    4.1456 C   0  0  1  0  0  0  0  0  0  0  0  0
   -4.3353    1.7405    4.1319 O   0  0  0  0  0  0  0  0  0  0  0  0
   -2.5432    3.2832    4.6283 C   0  0  2  0  0  0  0  0  0  0  0  0
   -2.4214    2.8376    5.9661 O   0  0  0  0  0  0  0  0  0  0  0  0
   -2.1012    4.7482    4.5130 C   0  0  1  0  0  0  0  0  0  0  0  0
   -0.6777    4.8748    4.8569 N   0  0  0  0  0  0  0  0  0  0  0  0
    1.3025    0.9157    3.3789 C   0  0  2  0  0  0  0  0  0  0  0  0
    2.5175    0.2983    3.7614 O   0  0  0  0  0  0  0  0  0  0  0  0
    0.3610   -0.0232    2.6263 C   0  0  2  0  0  0  0  0  0  0  0  0
    0.4147   -1.3627    3.0756 O   0  0  0  0  0  0  0  0  0  0  0  0
  2  1  1  0  0  0  0
  3  2  1  6  0  0  0
  3 30  1  0  0  0  0
  4  5  1  0  0  0  0
  4  3  1  0  0  0  0
  5 28  1  0  0  0  0
  5  6  1  1  0  0  0
  7  6  1  1  0  0  0
  8  7  1  0  0  0  0
  8  9  1  6  0  0  0
 10 11  1  1  0  0  0
 10  8  1  0  0  0  0
 12 10  1  0  0  0  0
 13 12  1  0  0  0  0
 13 15  1  0  0  0  0
 13 14  1  1  0  0  0
 15  7  1  0  0  0  0
 15 16  1  6  0  0  0
 17 16  1  6  0  0  0
 18 17  1  0  0  0  0
 19 20  1  1  0  0  0
 19 18  1  0  0  0  0
 20 21  1  0  0  0  0
 22 24  1  0  0  0  0
 22 19  1  0  0  0  0
 22 23  1  6  0  0  0
 24 25  1  1  0  0  0
 24 26  1  0  0  0  0
 26 17  1  0  0  0  0
 26 27  1  6  0  0  0
 28 29  1  6  0  0  0
 28 30  1  0  0  0  0
 30 31  1  1  0  0  0
M  END
>  <CHROM.1>
160.73783103,-164.61885016,-54.17368846,-72.35704846,-168.26597099,-175.63837990
54.40303713,151.78747463,165.31561720,-60.64966264,-71.60940953,-65.57952205
173.87993113,166.77401452,77.81685834,-53.47543559,-0.61910517,3.36605509
2.57098822,0.11705050,-0.29150674,3.11429823

>  <Name>
lig.pdb

>  <RI>
2.74555e+07

>  <Rbt.Current_Directory>
/home/itssahil/PROJECTS/Mol_Feturizer/New_Systems/rnas/2n0j

>  <Rbt.Executable>
rbdock ($Id: //depot/dev/client3/rdock/2013.1/src/exe/rbdock.cxx#4 $)

>  <Rbt.Library>
libRbt.so (2013.1, Build901 2013/11/27)

>  <Rbt.Parameter_File>
/export/apps/rDock/src/rDock_2013.1_src/data/scripts/dock_solv.prm

>  <Rbt.Receptor>
prm/pocket_docking_6.prm

>  <SCORE>
-44.7071

>  <SCORE.INTER>
-39.456

>  <SCORE.INTER.CONST>
1

>  <SCORE.INTER.POLAR>
-4.76766

>  <SCORE.INTER.ROT>
6

>  <SCORE.INTER.SOLV>
18.1549

>  <SCORE.INTER.VDW>
-24.0634

>  <SCORE.INTER.norm>
-1.27278

>  <SCORE.INTRA>
-5.25104

>  <SCORE.INTRA.DIHEDRAL>
-16.4762

>  <SCORE.INTRA.DIHEDRAL.0>
28.0161

>  <SCORE.INTRA.POLAR>
-0.586258

>  <SCORE.INTRA.POLAR.0>
-1.05798

>  <SCORE.INTRA.REPUL>
0.000788747

>  <SCORE.INTRA.REPUL.0>
0

>  <SCORE.INTRA.SOLV>
0.686221

>  <SCORE.INTRA.SOLV.lig_0>
-42.5945

>  <SCORE.INTRA.VDW>
4.63329

>  <SCORE.INTRA.VDW.0>
-5.13869

>  <SCORE.INTRA.norm>
-0.169388

>  <SCORE.RESTR>
0

>  <SCORE.RESTR.CAVITY>
0

>  <SCORE.RESTR.norm>
0

>  <SCORE.SYSTEM>
0

>  <SCORE.SYSTEM.CONST>
0

>  <SCORE.SYSTEM.DIHEDRAL>
0

>  <SCORE.SYSTEM.SOLV>
0

>  <SCORE.SYSTEM.norm>
0

>  <SCORE.heavy>
31

>  <SCORE.norm>
-1.44216

>  <RMSD>
6.872

$$$$
lig.pdb
 OpenBabel11021811453D
libRbt.so/2013.1/901 2013/11/27
 31 33  0  0  0  0  0  0  0  0999 V2000
   -3.9504   -1.1066    5.4093 O   0  0  0  0  0  0  0  0  0  0  0  0
   -2.6174   -1.4242    5.7589 C   0  0  0  0  0  0  0  0  0  0  0  0
   -1.6177   -0.8276    4.7589 C   0  0  1  0  0  0  0  0  0  0  0  0
   -2.0290    0.4507    4.3008 O   0  0  0  0  0  0  0  0  0  0  0  0
   -0.8891    1.2051    3.9003 C   0  0  1  0  0  0  0  0  0  0  0  0
   -0.9517    2.5099    4.4636 O   0  0  0  0  0  0  0  0  0  0  0  0
   -1.5852    3.5182    3.6922 C   0  0  2  0  0  0  0  0  0  0  0  0
   -0.5436    4.0805    2.7119 C   0  0  1  0  0  0  0  0  0  0  0  0
   -0.2321    3.1024    1.7322 O   0  0  0  0  0  0  0  0  0  0  0  0
   -1.0023    5.3434    1.9670 C   0  0  2  0  0  0  0  0  0  0  0  0
    0.0763    5.8795    1.1224 N   0  0  0  0  0  0  0  0  0  0  0  0
   -1.4345    6.4046    2.9721 C   0  0  0  0  0  0  0  0  0  0  0  0
   -2.5227    5.8407    3.8776 C   0  0  2  0  0  0  0  0  0  0  0  0
   -2.9571    6.8983    4.7966 N   0  0  0  0  0  0  0  0  0  0  0  0
   -2.0019    4.6007    4.6356 C   0  0  1  0  0  0  0  0  0  0  0  0
   -3.0944    4.1689    5.4612 O   0  0  0  0  0  0  0  0  0  0  0  0
   -2.7763    3.3590    6.5878 C   0  0  1  0  0  0  0  0  0  0  0  0
   -2.5087    4.1682    7.7299 O   0  0  0  0  0  0  0  0  0  0  0  0
   -3.6221    4.8679    8.2816 C   0  0  2  0  0  0  0  0  0  0  0  0
   -3.1479    5.6784    9.4952 C   0  0  0  0  0  0  0  0  0  0  0  0
   -2.4237    6.8757    9.0933 N   0  0  0  0  0  0  0  0  0  0  0  0
   -4.7288    3.8863    8.7096 C   0  0  1  0  0  0  0  0  0  0  0  0
   -5.8455    4.6072    9.1992 O   0  0  0  0  0  0  0  0  0  0  0  0
   -5.1413    3.0475    7.4935 C   0  0  2  0  0  0  0  0  0  0  0  0
   -6.0961    2.0748    7.8745 O   0  0  0  0  0  0  0  0  0  0  0  0
   -3.9173    2.3723    6.8603 C   0  0  1  0  0  0  0  0  0  0  0  0
   -4.3065    1.6775    5.6250 N   0  0  0  0  0  0  0  0  0  0  0  0
    0.3444    0.4696    4.4442 C   0  0  2  0  0  0  0  0  0  0  0  0
    1.0574   -0.1266    3.3767 O   0  0  0  0  0  0  0  0  0  0  0  0
   -0.2643   -0.5501    5.4055 C   0  0  2  0  0  0  0  0  0  0  0  0
    0.5289   -1.7068    5.5845 O   0  0  0  0  0  0  0  0  0  0  0  0
  2  1  1  0  0  0  0
  3  2  1  1  0  0  0
  3 30  1  0  0  0  0
  4  5  1  0  0  0  0
  4  3  1  0  0  0  0
  5 28  1  0  0  0  0
  5  6  1  1  0  0  0
  7  6  1  1  0  0  0
  8  7  1  0  0  0  0
  8  9  1  6  0  0  0
 10 11  1  1  0  0  0
 10  8  1  0  0  0  0
 12 10  1  0  0  0  0
 13 12  1  0  0  0  0
 13 15  1  0  0  0  0
 13 14  1  1  0  0  0
 15  7  1  0  0  0  0
 15 16  1  1  0  0  0
 17 16  1  6  0  0  0
 18 17  1  0  0  0  0
 19 20  1  1  0  0  0
 19 18  1  0  0  0  0
 20 21  1  0  0  0  0
 22 24  1  0  0  0  0
 22 19  1  0  0  0  0
 22 23  1  6  0  0  0
 24 25  1  1  0  0  0
 24 26  1  0  0  0  0
 26 17  1  0  0  0  0
 26 27  1  6  0  0  0
 28 29  1  6  0  0  0
 28 30  1  0  0  0  0
 30 31  1  6  0  0  0
M  END
>  <CHROM.1>
-178.42399600,36.86021337,-91.17537756,-84.20596304,-169.36870421,54.07268313
39.43995963,80.46336212,89.04364803,76.08430567,131.78233909,65.18726873
170.62625581,-85.37702335,59.53763026,42.26183837,-2.27468336,2.94029534
5.39446815,0.47574882,-0.91944011,2.99728679

>  <Name>
lig.pdb

>  <RI>
3.33129e+07

>  <Rbt.Current_Directory>
/home/itssahil/PROJECTS/Mol_Feturizer/New_Systems/rnas/2n0j

>  <Rbt.Executable>
rbdock ($Id: //depot/dev/client3/rdock/2013.1/src/exe/rbdock.cxx#4 $)

>  <Rbt.Library>
libRbt.so (2013.1, Build901 2013/11/27)

>  <Rbt.Parameter_File>
/export/apps/rDock/src/rDock_2013.1_src/data/scripts/dock_solv.prm

>  <Rbt.Receptor>
prm/pocket_docking_4.prm

>  <SCORE>
-29.6703

>  <SCORE.INTER>
-27.8616

>  <SCORE.INTER.CONST>
1

>  <SCORE.INTER.POLAR>
-4.26329

>  <SCORE.INTER.ROT>
6

>  <SCORE.INTER.SOLV>
13.1478

>  <SCORE.INTER.VDW>
-16.346

>  <SCORE.INTER.norm>
-0.898761

>  <SCORE.INTRA>
-2.52346

>  <SCORE.INTRA.DIHEDRAL>
-5.34665

>  <SCORE.INTRA.DIHEDRAL.0>
28.0161

>  <SCORE.INTRA.POLAR>
-0.453947

>  <SCORE.INTRA.POLAR.0>
-1.05798

>  <SCORE.INTRA.REPUL>
0.081514

>  <SCORE.INTRA.REPUL.0>
0

>  <SCORE.INTRA.SOLV>
0.948216

>  <SCORE.INTRA.SOLV.lig_0>
-42.5945

>  <SCORE.INTRA.VDW>
0.811608

>  <SCORE.INTRA.VDW.0>
-5.13869

>  <SCORE.INTRA.norm>
-0.0814019

>  <SCORE.RESTR>
0.714783

>  <SCORE.RESTR.CAVITY>
0.714783

>  <SCORE.RESTR.norm>
0.0230575

>  <SCORE.SYSTEM>
0

>  <SCORE.SYSTEM.CONST>
0

>  <SCORE.SYSTEM.DIHEDRAL>
0

>  <SCORE.SYSTEM.SOLV>
0

>  <SCORE.SYSTEM.norm>
0

>  <SCORE.heavy>
31

>  <SCORE.norm>
-0.957105

>  <RMSD>
6.883

$$$$
lig.pdb
 OpenBabel11021811453D
libRbt.so/2013.1/901 2013/11/27
 31 33  0  0  0  0  0  0  0  0999 V2000
    0.8754    8.1675    1.4621 O   0  0  0  0  0  0  0  0  0  0  0  0
    1.7816    7.9041    2.5154 C   0  0  0  0  0  0  0  0  0  0  0  0
    1.8545    6.4040    2.8310 C   0  0  1  0  0  0  0  0  0  0  0  0
    0.5853    5.8768    3.1834 O   0  0  0  0  0  0  0  0  0  0  0  0
    0.5451    4.4851    2.8830 C   0  0  1  0  0  0  0  0  0  0  0  0
   -0.6532    4.1773    2.1807 O   0  0  0  0  0  0  0  0  0  0  0  0
   -1.8556    4.1502    2.9332 C   0  0  2  0  0  0  0  0  0  0  0  0
   -1.8705    5.3939    3.8360 C   0  0  1  0  0  0  0  0  0  0  0  0
   -2.0375    6.5585    3.0427 O   0  0  0  0  0  0  0  0  0  0  0  0
   -2.9914    5.3920    4.8866 C   0  0  2  0  0  0  0  0  0  0  0  0
   -2.8855    6.5605    5.7740 N   0  0  0  0  0  0  0  0  0  0  0  0
   -2.9157    4.1160    5.7167 C   0  0  0  0  0  0  0  0  0  0  0  0
   -2.9826    2.9018    4.7984 C   0  0  2  0  0  0  0  0  0  0  0  0
   -2.9631    1.6910    5.6263 N   0  0  0  0  0  0  0  0  0  0  0  0
   -1.8137    2.9256    3.7900 C   0  0  1  0  0  0  0  0  0  0  0  0
   -1.9675    1.7390    2.9965 O   0  0  0  0  0  0  0  0  0  0  0  0
   -1.1223    0.6363    3.3068 C   0  0  1  0  0  0  0  0  0  0  0  0
   -1.8775   -0.4347    3.8667 O   0  0  0  0  0  0  0  0  0  0  0  0
   -2.7769   -1.1012    2.9833 C   0  0  2  0  0  0  0  0  0  0  0  0
   -3.4955   -2.2165    3.7541 C   0  0  0  0  0  0  0  0  0  0  0  0
   -4.4222   -1.6788    4.7399 N   0  0  0  0  0  0  0  0  0  0  0  0
   -2.0220   -1.6998    1.7818 C   0  0  1  0  0  0  0  0  0  0  0  0
   -2.9422   -2.3045    0.8908 O   0  0  0  0  0  0  0  0  0  0  0  0
   -1.2641   -0.5751    1.0655 C   0  0  2  0  0  0  0  0  0  0  0  0
   -0.4893   -1.1073    0.0075 O   0  0  0  0  0  0  0  0  0  0  0  0
   -0.3675    0.1872    2.0505 C   0  0  1  0  0  0  0  0  0  0  0  0
    0.2535    1.3389    1.3808 N   0  0  0  0  0  0  0  0  0  0  0  0
    1.7562    4.1884    1.9867 C   0  0  2  0  0  0  0  0  0  0  0  0
    2.7148    3.4370    2.7079 O   0  0  0  0  0  0  0  0  0  0  0  0
    2.2475    5.5842    1.6062 C   0  0  2  0  0  0  0  0  0  0  0  0
    3.6277    5.6384    1.3038 O   0  0  0  0  0  0  0  0  0  0  0  0
  2  1  1  0  0  0  0
  3  2  1  6  0  0  0
  3 30  1  0  0  0  0
  4  5  1  0  0  0  0
  4  3  1  0  0  0  0
  5 28  1  0  0  0  0
  5  6  1  6  0  0  0
  7  6  1  6  0  0  0
  8  7  1  0  0  0  0
  8  9  1  6  0  0  0
 10 11  1  1  0  0  0
 10  8  1  0  0  0  0
 12 10  1  0  0  0  0
 13 12  1  0  0  0  0
 13 15  1  0  0  0  0
 13 14  1  1  0  0  0
 15  7  1  0  0  0  0
 15 16  1  6  0  0  0
 17 16  1  6  0  0  0
 18 17  1  0  0  0  0
 19 20  1  1  0  0  0
 19 18  1  0  0  0  0
 20 21  1  0  0  0  0
 22 24  1  0  0  0  0
 22 19  1  0  0  0  0
 22 23  1  6  0  0  0
 24 25  1  6  0  0  0
 24 26  1  0  0  0  0
 26 17  1  0  0  0  0
 26 27  1  6  0  0  0
 28 29  1  1  0  0  0
 28 30  1  0  0  0  0
 30 31  1  1  0  0  0
M  END
>  <CHROM.1>
-178.18687292,-58.22668065,-74.48126158,45.35592061,53.50918550,-69.46990022
75.79744051,137.52570680,111.09358813,69.31929221,-148.47682998,62.31048498
-63.69067450,85.86383533,-177.09048712,-174.54972576,-0.94471902,2.85337394
2.94868160,-1.02748253,-0.63640617,-2.81542253

>  <Name>
lig.pdb

>  <RI>
2.67765e+07

>  <Rbt.Current_Directory>
/home/itssahil/PROJECTS/Mol_Feturizer/New_Systems/rnas/2n0j

>  <Rbt.Executable>
rbdock ($Id: //depot/dev/client3/rdock/2013.1/src/exe/rbdock.cxx#4 $)

>  <Rbt.Library>
libRbt.so (2013.1, Build901 2013/11/27)

>  <Rbt.Parameter_File>
/export/apps/rDock/src/rDock_2013.1_src/data/scripts/dock_solv.prm

>  <Rbt.Receptor>
prm/pocket_docking_2.prm

>  <SCORE>
-21.6772

>  <SCORE.INTER>
-21.5802

>  <SCORE.INTER.CONST>
1

>  <SCORE.INTER.POLAR>
-2.17322

>  <SCORE.INTER.ROT>
6

>  <SCORE.INTER.SOLV>
13.2532

>  <SCORE.INTER.VDW>
-19.1605

>  <SCORE.INTER.norm>
-0.696136

>  <SCORE.INTRA>
-1.87573

>  <SCORE.INTRA.DIHEDRAL>
-8.1394

>  <SCORE.INTRA.DIHEDRAL.0>
28.0161

>  <SCORE.INTRA.POLAR>
-0.69122

>  <SCORE.INTRA.POLAR.0>
-1.05798

>  <SCORE.INTRA.REPUL>
0

>  <SCORE.INTRA.REPUL.0>
0

>  <SCORE.INTRA.SOLV>
1.73806

>  <SCORE.INTRA.SOLV.lig_0>
-42.5945

>  <SCORE.INTRA.VDW>
3.67509

>  <SCORE.INTRA.VDW.0>
-5.13869

>  <SCORE.INTRA.norm>
-0.0605074

>  <SCORE.RESTR>
1.77871

>  <SCORE.RESTR.CAVITY>
1.77871

>  <SCORE.RESTR.norm>
0.0573779

>  <SCORE.SYSTEM>
0

>  <SCORE.SYSTEM.CONST>
0

>  <SCORE.SYSTEM.DIHEDRAL>
0

>  <SCORE.SYSTEM.SOLV>
0

>  <SCORE.SYSTEM.norm>
0

>  <SCORE.heavy>
31

>  <SCORE.norm>
-0.699265

>  <RMSD>
6.893

$$$$
lig.pdb
 OpenBabel11021811453D
libRbt.so/2013.1/901 2013/11/27
 31 33  0  0  0  0  0  0  0  0999 V2000
   -0.4450   -0.2355    3.4949 O   0  0  0  0  0  0  0  0  0  0  0  0
    0.4762   -0.9187    2.6675 C   0  0  0  0  0  0  0  0  0  0  0  0
    1.5756    0.0220    2.1557 C   0  0  1  0  0  0  0  0  0  0  0  0
    1.0518    1.2802    1.7612 O   0  0  0  0  0  0  0  0  0  0  0  0
    2.0628    2.2768    1.8764 C   0  0  1  0  0  0  0  0  0  0  0  0
    1.5440    3.4145    2.5549 O   0  0  0  0  0  0  0  0  0  0  0  0
    1.1617    4.5245    1.7582 C   0  0  2  0  0  0  0  0  0  0  0  0
    2.4028    5.4099    1.5635 C   0  0  1  0  0  0  0  0  0  0  0  0
    3.3372    4.7460    0.7271 O   0  0  0  0  0  0  0  0  0  0  0  0
    2.1047    6.7741    0.9230 C   0  0  2  0  0  0  0  0  0  0  0  0
    3.3182    7.6030    0.8568 N   0  0  0  0  0  0  0  0  0  0  0  0
    1.0378    7.5005    1.7337 C   0  0  0  0  0  0  0  0  0  0  0  0
   -0.2071    6.6285    1.8413 C   0  0  2  0  0  0  0  0  0  0  0  0
   -1.2342    7.3731    2.5778 N   0  0  0  0  0  0  0  0  0  0  0  0
    0.1331    5.2885    2.5286 C   0  0  1  0  0  0  0  0  0  0  0  0
   -1.1048    4.5637    2.5899 O   0  0  0  0  0  0  0  0  0  0  0  0
   -1.1742    3.4731    3.5022 C   0  0  1  0  0  0  0  0  0  0  0  0
   -1.2000    3.9430    4.8473 O   0  0  0  0  0  0  0  0  0  0  0  0
   -2.3816    4.6312    5.2520 C   0  0  2  0  0  0  0  0  0  0  0  0
   -2.2306    5.0580    6.7182 C   0  0  0  0  0  0  0  0  0  0  0  0
   -1.8752    3.9337    7.5723 N   0  0  0  0  0  0  0  0  0  0  0  0
   -3.6211    3.7308    5.0955 C   0  0  1  0  0  0  0  0  0  0  0  0
   -4.7867    4.4547    5.4475 O   0  0  0  0  0  0  0  0  0  0  0  0
   -3.7142    3.2693    3.6358 C   0  0  2  0  0  0  0  0  0  0  0  0
   -4.7944    2.3686    3.4781 O   0  0  0  0  0  0  0  0  0  0  0  0
   -2.4019    2.6096    3.1912 C   0  0  1  0  0  0  0  0  0  0  0  0
   -2.4586    2.2880    1.7580 N   0  0  0  0  0  0  0  0  0  0  0  0
    3.2017    1.6615    2.7026 C   0  0  2  0  0  0  0  0  0  0  0  0
    4.3202    1.4161    1.8705 O   0  0  0  0  0  0  0  0  0  0  0  0
    2.5700    0.3843    3.2542 C   0  0  2  0  0  0  0  0  0  0  0  0
    3.5059   -0.6378    3.5346 O   0  0  0  0  0  0  0  0  0  0  0  0
  2  1  1  0  0  0  0
  3  2  1  1  0  0  0
  3 30  1  0  0  0  0
  4  5  1  0  0  0  0
  4  3  1  0  0  0  0
  5 28  1  0  0  0  0
  5  6  1  1  0  0  0
  7  6  1  1  0  0  0
  8  7  1  0  0  0  0
  8  9  1  6  0  0  0
 10 11  1  1  0  0  0
 10  8  1  0  0  0  0
 12 10  1  0  0  0  0
 13 12  1  0  0  0  0
 13 15  1  0  0  0  0
 13 14  1  1  0  0  0
 15  7  1  0  0  0  0
 15 16  1  6  0  0  0
 17 16  1  6  0  0  0
 18 17  1  0  0  0  0
 19 20  1  1  0  0  0
 19 18  1  0  0  0  0
 20 21  1  0  0  0  0
 22 24  1  0  0  0  0
 22 19  1  0  0  0  0
 22 23  1  6  0  0  0
 24 25  1  1  0  0  0
 24 26  1  0  0  0  0
 26 17  1  0  0  0  0
 26 27  1  6  0  0  0
 28 29  1  6  0  0  0
 28 30  1  0  0  0  0
 30 31  1  6  0  0  0
M  END
>  <CHROM.1>
-57.50624143,-41.99771661,-100.73668598,-87.76868182,-171.98233569,67.30462666
160.62882912,76.74080546,70.95623552,-53.06991925,-44.98063517,-174.60548221
67.02437577,164.37085009,173.65755467,-63.15430859,-0.00380917,3.49209340
3.03188382,0.09814293,-0.47039948,2.96131321

>  <Name>
lig.pdb

>  <RI>
3.33129e+07

>  <Rbt.Current_Directory>
/home/itssahil/PROJECTS/Mol_Feturizer/New_Systems/rnas/2n0j

>  <Rbt.Executable>
rbdock ($Id: //depot/dev/client3/rdock/2013.1/src/exe/rbdock.cxx#4 $)

>  <Rbt.Library>
libRbt.so (2013.1, Build901 2013/11/27)

>  <Rbt.Parameter_File>
/export/apps/rDock/src/rDock_2013.1_src/data/scripts/dock_solv.prm

>  <Rbt.Receptor>
prm/pocket_docking_4.prm

>  <SCORE>
-41.5366

>  <SCORE.INTER>
-39.8321

>  <SCORE.INTER.CONST>
1

>  <SCORE.INTER.POLAR>
-4.63451

>  <SCORE.INTER.ROT>
6

>  <SCORE.INTER.SOLV>
14.7905

>  <SCORE.INTER.VDW>
-23.6365

>  <SCORE.INTER.norm>
-1.28491

>  <SCORE.INTRA>
-1.70452

>  <SCORE.INTRA.DIHEDRAL>
-12.8044

>  <SCORE.INTRA.DIHEDRAL.0>
28.0161

>  <SCORE.INTRA.POLAR>
1.05798

>  <SCORE.INTRA.POLAR.0>
-1.05798

>  <SCORE.INTRA.REPUL>
0

>  <SCORE.INTRA.REPUL.0>
0

>  <SCORE.INTRA.SOLV>
0.988822

>  <SCORE.INTRA.SOLV.lig_0>
-42.5945

>  <SCORE.INTRA.VDW>
0.606145

>  <SCORE.INTRA.VDW.0>
-5.13869

>  <SCORE.INTRA.norm>
-0.0549845

>  <SCORE.RESTR>
0

>  <SCORE.RESTR.CAVITY>
0

>  <SCORE.RESTR.norm>
0

>  <SCORE.SYSTEM>
0

>  <SCORE.SYSTEM.CONST>
0

>  <SCORE.SYSTEM.DIHEDRAL>
0

>  <SCORE.SYSTEM.SOLV>
0

>  <SCORE.SYSTEM.norm>
0

>  <SCORE.heavy>
31

>  <SCORE.norm>
-1.33989

>  <RMSD>
6.894

$$$$
lig.pdb
 OpenBabel11021811453D
libRbt.so/2013.1/901 2013/11/27
 31 33  0  0  0  0  0  0  0  0999 V2000
   -1.0365   -0.7247    0.0036 O   0  0  0  0  0  0  0  0  0  0  0  0
   -0.6456   -0.9294    1.3473 C   0  0  0  0  0  0  0  0  0  0  0  0
    0.6669   -0.2012    1.6670 C   0  0  1  0  0  0  0  0  0  0  0  0
    0.5305    1.2064    1.5529 O   0  0  0  0  0  0  0  0  0  0  0  0
    1.4858    1.8492    2.3914 C   0  0  1  0  0  0  0  0  0  0  0  0
    0.8506    2.8693    3.1530 O   0  0  0  0  0  0  0  0  0  0  0  0
    0.2861    3.9556    2.4360 C   0  0  2  0  0  0  0  0  0  0  0  0
    1.4394    4.8585    1.9705 C   0  0  1  0  0  0  0  0  0  0  0  0
    2.1919    4.1940    0.9677 O   0  0  0  0  0  0  0  0  0  0  0  0
    0.9844    6.2037    1.3844 C   0  0  2  0  0  0  0  0  0  0  0  0
    2.1390    7.0522    1.0512 N   0  0  0  0  0  0  0  0  0  0  0  0
    0.0957    6.9279    2.3888 C   0  0  0  0  0  0  0  0  0  0  0  0
   -1.0800    6.0365    2.7697 C   0  0  2  0  0  0  0  0  0  0  0  0
   -1.9457    6.7780    3.6930 N   0  0  0  0  0  0  0  0  0  0  0  0
   -0.5745    4.7172    3.3924 C   0  0  1  0  0  0  0  0  0  0  0  0
   -1.7562    3.9722    3.7241 O   0  0  0  0  0  0  0  0  0  0  0  0
   -1.5918    2.8333    4.5623 C   0  0  1  0  0  0  0  0  0  0  0  0
   -1.4611    3.2265    5.9257 O   0  0  0  0  0  0  0  0  0  0  0  0
   -2.6271    3.7723    6.5390 C   0  0  2  0  0  0  0  0  0  0  0  0
   -2.3005    4.1336    7.9941 C   0  0  0  0  0  0  0  0  0  0  0  0
   -1.2814    5.1703    8.0756 N   0  0  0  0  0  0  0  0  0  0  0  0
   -3.7900    2.7634    6.5001 C   0  0  1  0  0  0  0  0  0  0  0  0
   -4.9513    3.3490    7.0614 O   0  0  0  0  0  0  0  0  0  0  0  0
   -4.0555    2.3729    5.0408 C   0  0  2  0  0  0  0  0  0  0  0  0
   -5.0617    1.3796    4.9782 O   0  0  0  0  0  0  0  0  0  0  0  0
   -2.7692    1.8704    4.3716 C   0  0  1  0  0  0  0  0  0  0  0  0
   -3.0075    1.6211    2.9427 N   0  0  0  0  0  0  0  0  0  0  0  0
    2.0428    0.7744    3.3362 C   0  0  2  0  0  0  0  0  0  0  0  0
    3.3806    0.4734    2.9856 O   0  0  0  0  0  0  0  0  0  0  0  0
    1.0857   -0.3968    3.1206 C   0  0  2  0  0  0  0  0  0  0  0  0
    1.6651   -1.6600    3.3811 O   0  0  0  0  0  0  0  0  0  0  0  0
  2  1  1  0  0  0  0
  3  2  1  1  0  0  0
  3 30  1  0  0  0  0
  4  5  1  0  0  0  0
  4  3  1  0  0  0  0
  5 28  1  0  0  0  0
  5  6  1  1  0  0  0
  7  6  1  1  0  0  0
  8  7  1  0  0  0  0
  8  9  1  6  0  0  0
 10 11  1  1  0  0  0
 10  8  1  0  0  0  0
 12 10  1  0  0  0  0
 13 12  1  0  0  0  0
 13 15  1  0  0  0  0
 13 14  1  1  0  0  0
 15  7  1  0  0  0  0
 15 16  1  6  0  0  0
 17 16  1  6  0  0  0
 18 17  1  0  0  0  0
 19 20  1  1  0  0  0
 19 18  1  0  0  0  0
 20 21  1  0  0  0  0
 22 24  1  0  0  0  0
 22 19  1  0  0  0  0
 22 23  1  6  0  0  0
 24 25  1  1  0  0  0
 24 26  1  0  0  0  0
 26 17  1  0  0  0  0
 26 27  1  6  0  0  0
 28 29  1  6  0  0  0
 28 30  1  0  0  0  0
 30 31  1  6  0  0  0
M  END
>  <CHROM.1>
-174.80496775,63.72814721,-63.49831519,-75.32377515,38.95155388,-58.72613268
-59.91655967,71.75081097,79.01051157,63.26547238,63.80158978,-174.02015855
178.46093082,177.12267783,-53.57805786,-66.80146541,-0.69094030,2.90295573
3.56212251,0.44542177,-0.72413525,-3.02330183

>  <Name>
lig.pdb

>  <RI>
0

>  <Rbt.Current_Directory>
/home/itssahil/PROJECTS/Mol_Feturizer/New_Systems/rnas/2n0j

>  <Rbt.Executable>
rbdock ($Id: //depot/dev/client3/rdock/2013.1/src/exe/rbdock.cxx#4 $)

>  <Rbt.Library>
libRbt.so (2013.1, Build901 2013/11/27)

>  <Rbt.Parameter_File>
/export/apps/rDock/src/rDock_2013.1_src/data/scripts/dock_solv.prm

>  <Rbt.Receptor>
prm/pocket_docking_8.prm

>  <SCORE>
-36.3569

>  <SCORE.INTER>
-30.4489

>  <SCORE.INTER.CONST>
1

>  <SCORE.INTER.POLAR>
-3.23782

>  <SCORE.INTER.ROT>
6

>  <SCORE.INTER.SOLV>
14.5448

>  <SCORE.INTER.VDW>
-21.9548

>  <SCORE.INTER.norm>
-0.982223

>  <SCORE.INTRA>
-5.90804

>  <SCORE.INTRA.DIHEDRAL>
-21.3171

>  <SCORE.INTRA.DIHEDRAL.0>
28.0161

>  <SCORE.INTRA.POLAR>
1.05629

>  <SCORE.INTRA.POLAR.0>
-1.05798

>  <SCORE.INTRA.REPUL>
0

>  <SCORE.INTRA.REPUL.0>
0

>  <SCORE.INTRA.SOLV>
-0.829155

>  <SCORE.INTRA.SOLV.lig_0>
-42.5945

>  <SCORE.INTRA.VDW>
1.57369

>  <SCORE.INTRA.VDW.0>
-5.13869

>  <SCORE.INTRA.norm>
-0.190582

>  <SCORE.RESTR>
0

>  <SCORE.RESTR.CAVITY>
0

>  <SCORE.RESTR.norm>
0

>  <SCORE.SYSTEM>
0

>  <SCORE.SYSTEM.CONST>
0

>  <SCORE.SYSTEM.DIHEDRAL>
0

>  <SCORE.SYSTEM.SOLV>
0

>  <SCORE.SYSTEM.norm>
0

>  <SCORE.heavy>
31

>  <SCORE.norm>
-1.1728

>  <RMSD>
6.894

$$$$
lig.pdb
 OpenBabel11021811453D
libRbt.so/2013.1/901 2013/11/27
 31 33  0  0  0  0  0  0  0  0999 V2000
   -1.4763   -0.3669    8.1571 O   0  0  0  0  0  0  0  0  0  0  0  0
   -1.6255   -1.3914    7.1937 C   0  0  0  0  0  0  0  0  0  0  0  0
   -1.3420   -0.8747    5.7767 C   0  0  1  0  0  0  0  0  0  0  0  0
   -2.0283    0.3382    5.5103 O   0  0  0  0  0  0  0  0  0  0  0  0
   -1.3256    1.0773    4.5160 C   0  0  1  0  0  0  0  0  0  0  0  0
   -1.1855    2.4311    4.9300 O   0  0  0  0  0  0  0  0  0  0  0  0
   -1.7768    3.4241    4.1070 C   0  0  2  0  0  0  0  0  0  0  0  0
   -0.7691    3.7757    3.0011 C   0  0  1  0  0  0  0  0  0  0  0  0
   -0.6392    2.6813    2.1072 O   0  0  0  0  0  0  0  0  0  0  0  0
   -1.1595    5.0043    2.1656 C   0  0  2  0  0  0  0  0  0  0  0  0
   -0.1065    5.3388    1.1943 N   0  0  0  0  0  0  0  0  0  0  0  0
   -1.3987    6.1963    3.0849 C   0  0  0  0  0  0  0  0  0  0  0  0
   -2.4590    5.8411    4.1201 C   0  0  2  0  0  0  0  0  0  0  0  0
   -2.7080    7.0215    4.9546 N   0  0  0  0  0  0  0  0  0  0  0  0
   -2.0037    4.6296    4.9618 C   0  0  1  0  0  0  0  0  0  0  0  0
   -3.0617    4.3981    5.9045 O   0  0  0  0  0  0  0  0  0  0  0  0
   -2.7155    3.7468    7.1221 C   0  0  1  0  0  0  0  0  0  0  0  0
   -2.3535    4.7002    8.1175 O   0  0  0  0  0  0  0  0  0  0  0  0
   -3.4060    5.5254    8.6123 C   0  0  2  0  0  0  0  0  0  0  0  0
   -2.8339    6.4805    9.6683 C   0  0  0  0  0  0  0  0  0  0  0  0
   -1.6270    5.9447   10.2815 N   0  0  0  0  0  0  0  0  0  0  0  0
   -4.5264    4.6709    9.2337 C   0  0  1  0  0  0  0  0  0  0  0  0
   -5.5847    5.5082    9.6642 O   0  0  0  0  0  0  0  0  0  0  0  0
   -5.0382    3.6845    8.1765 C   0  0  2  0  0  0  0  0  0  0  0  0
   -6.0092    2.8246    8.7429 O   0  0  0  0  0  0  0  0  0  0  0  0
   -3.8788    2.8663    7.5923 C   0  0  1  0  0  0  0  0  0  0  0  0
   -4.3626    2.0181    6.4936 N   0  0  0  0  0  0  0  0  0  0  0  0
    0.0628    0.4348    4.3827 C   0  0  2  0  0  0  0  0  0  0  0  0
    0.1589   -0.2490    3.1472 O   0  0  0  0  0  0  0  0  0  0  0  0
    0.1242   -0.4962    5.5926 C   0  0  2  0  0  0  0  0  0  0  0  0
    0.9805   -1.6068    5.4126 O   0  0  0  0  0  0  0  0  0  0  0  0
  2  1  1  0  0  0  0
  3  2  1  1  0  0  0
  3 30  1  0  0  0  0
  4  5  1  0  0  0  0
  4  3  1  0  0  0  0
  5 28  1  0  0  0  0
  5  6  1  1  0  0  0
  7  6  1  1  0  0  0
  8  7  1  0  0  0  0
  8  9  1  6  0  0  0
 10 11  1  6  0  0  0
 10  8  1  0  0  0  0
 12 10  1  0  0  0  0
 13 12  1  0  0  0  0
 13 15  1  0  0  0  0
 13 14  1  1  0  0  0
 15  7  1  0  0  0  0
 15 16  1  1  0  0  0
 17 16  1  6  0  0  0
 18 17  1  0  0  0  0
 19 20  1  1  0  0  0
 19 18  1  0  0  0  0
 20 21  1  0  0  0  0
 22 24  1  0  0  0  0
 22 19  1  0  0  0  0
 22 23  1  6  0  0  0
 24 25  1  1  0  0  0
 24 26  1  0  0  0  0
 26 17  1  0  0  0  0
 26 27  1  6  0  0  0
 28 29  1  6  0  0  0
 28 30  1  0  0  0  0
 30 31  1  6  0  0  0
M  END
>  <CHROM.1>
59.59566597,-48.16519248,-119.14491481,-85.53915726,62.05716937,-57.92976843
-171.98463643,84.50134482,90.17043587,-24.73347661,122.85071512,-174.83795590
68.40111570,179.44800008,179.76890372,48.83720102,-2.13440969,3.06932151
5.94720466,0.20850508,-1.03891904,2.66126898

>  <Name>
lig.pdb

>  <RI>
3.32461e+07

>  <Rbt.Current_Directory>
/home/itssahil/PROJECTS/Mol_Feturizer/New_Systems/rnas/2n0j

>  <Rbt.Executable>
rbdock ($Id: //depot/dev/client3/rdock/2013.1/src/exe/rbdock.cxx#4 $)

>  <Rbt.Library>
libRbt.so (2013.1, Build901 2013/11/27)

>  <Rbt.Parameter_File>
/export/apps/rDock/src/rDock_2013.1_src/data/scripts/dock_solv.prm

>  <Rbt.Receptor>
prm/pocket_docking_7.prm

>  <SCORE>
-27.3576

>  <SCORE.INTER>
-25.8761

>  <SCORE.INTER.CONST>
1

>  <SCORE.INTER.POLAR>
-3.68951

>  <SCORE.INTER.ROT>
6

>  <SCORE.INTER.SOLV>
10.7664

>  <SCORE.INTER.VDW>
-16.1412

>  <SCORE.INTER.norm>
-0.834713

>  <SCORE.INTRA>
-1.48149

>  <SCORE.INTRA.DIHEDRAL>
-2.84695

>  <SCORE.INTRA.DIHEDRAL.0>
28.0161

>  <SCORE.INTRA.POLAR>
-0.257039

>  <SCORE.INTRA.POLAR.0>
-1.05798

>  <SCORE.INTRA.REPUL>
0

>  <SCORE.INTRA.REPUL.0>
0

>  <SCORE.INTRA.SOLV>
1.17915

>  <SCORE.INTRA.SOLV.lig_0>
-42.5945

>  <SCORE.INTRA.VDW>
0.226348

>  <SCORE.INTRA.VDW.0>
-5.13869

>  <SCORE.INTRA.norm>
-0.0477898

>  <SCORE.RESTR>
0

>  <SCORE.RESTR.CAVITY>
0

>  <SCORE.RESTR.norm>
0

>  <SCORE.SYSTEM>
0

>  <SCORE.SYSTEM.CONST>
0

>  <SCORE.SYSTEM.DIHEDRAL>
0

>  <SCORE.SYSTEM.SOLV>
0

>  <SCORE.SYSTEM.norm>
0

>  <SCORE.heavy>
31

>  <SCORE.norm>
-0.882502

>  <RMSD>
6.899

$$$$
lig.pdb
 OpenBabel11021811453D
libRbt.so/2013.1/901 2013/11/27
 31 33  0  0  0  0  0  0  0  0999 V2000
    2.7335   10.2272    0.9410 O   0  0  0  0  0  0  0  0  0  0  0  0
    2.3148    9.1506    1.7569 C   0  0  0  0  0  0  0  0  0  0  0  0
    3.2923    7.9704    1.6738 C   0  0  1  0  0  0  0  0  0  0  0  0
    2.8240    6.8454    2.4004 O   0  0  0  0  0  0  0  0  0  0  0  0
    3.3750    5.6545    1.8462 C   0  0  1  0  0  0  0  0  0  0  0  0
    2.3480    4.6874    1.6627 O   0  0  0  0  0  0  0  0  0  0  0  0
    2.2499    3.6557    2.6315 C   0  0  2  0  0  0  0  0  0  0  0  0
    3.1868    2.5169    2.1983 C   0  0  1  0  0  0  0  0  0  0  0  0
    4.5371    2.9308    2.3343 O   0  0  0  0  0  0  0  0  0  0  0  0
    3.0206    1.2249    3.0128 C   0  0  2  0  0  0  0  0  0  0  0  0
    3.8761    0.1523    2.4822 N   0  0  0  0  0  0  0  0  0  0  0  0
    1.5641    0.7774    2.9755 C   0  0  0  0  0  0  0  0  0  0  0  0
    0.6690    1.9006    3.4848 C   0  0  2  0  0  0  0  0  0  0  0  0
   -0.7182    1.4238    3.4895 N   0  0  0  0  0  0  0  0  0  0  0  0
    0.8389    3.1616    2.6104 C   0  0  1  0  0  0  0  0  0  0  0  0
   -0.0546    4.1378    3.1673 O   0  0  0  0  0  0  0  0  0  0  0  0
   -1.2538    4.4054    2.4483 C   0  0  1  0  0  0  0  0  0  0  0  0
   -2.3849    3.8936    3.1479 O   0  0  0  0  0  0  0  0  0  0  0  0
   -2.7209    4.5495    4.3686 C   0  0  2  0  0  0  0  0  0  0  0  0
   -3.9551    3.8689    4.9752 C   0  0  0  0  0  0  0  0  0  0  0  0
   -5.1053    3.9487    4.0863 N   0  0  0  0  0  0  0  0  0  0  0  0
   -3.0141    6.0418    4.1262 C   0  0  1  0  0  0  0  0  0  0  0  0
   -3.2874    6.6829    5.3595 O   0  0  0  0  0  0  0  0  0  0  0  0
   -1.7885    6.6840    3.4644 C   0  0  2  0  0  0  0  0  0  0  0  0
   -2.0589    8.0368    3.1485 O   0  0  0  0  0  0  0  0  0  0  0  0
   -1.3884    5.9120    2.1999 C   0  0  1  0  0  0  0  0  0  0  0  0
   -0.1408    6.4589    1.6479 N   0  0  0  0  0  0  0  0  0  0  0  0
    3.9729    6.0336    0.4835 C   0  0  2  0  0  0  0  0  0  0  0  0
    5.3862    5.9922    0.5510 O   0  0  0  0  0  0  0  0  0  0  0  0
    3.4222    7.4394    0.2497 C   0  0  2  0  0  0  0  0  0  0  0  0
    4.2383    8.2386   -0.5836 O   0  0  0  0  0  0  0  0  0  0  0  0
  2  1  1  0  0  0  0
  3  2  1  6  0  0  0
  3 30  1  0  0  0  0
  4  5  1  0  0  0  0
  4  3  1  0  0  0  0
  5 28  1  0  0  0  0
  5  6  1  6  0  0  0
  7  6  1  6  0  0  0
  8  7  1  0  0  0  0
  8  9  1  1  0  0  0
 10 11  1  6  0  0  0
 10  8  1  0  0  0  0
 12 10  1  0  0  0  0
 13 12  1  0  0  0  0
 13 15  1  0  0  0  0
 13 14  1  6  0  0  0
 15  7  1  0  0  0  0
 15 16  1  1  0  0  0
 17 16  1  1  0  0  0
 18 17  1  0  0  0  0
 19 20  1  6  0  0  0
 19 18  1  0  0  0  0
 20 21  1  0  0  0  0
 22 24  1  0  0  0  0
 22 19  1  0  0  0  0
 22 23  1  1  0  0  0
 24 25  1  6  0  0  0
 24 26  1  0  0  0  0
 26 17  1  0  0  0  0
 26 27  1  1  0  0  0
 28 29  1  1  0  0  0
 28 30  1  0  0  0  0
 30 31  1  6  0  0  0
M  END
>  <CHROM.1>
67.32229696,-175.10242780,-101.07455094,-87.37691626,167.32564060,-161.32860960
-173.10907338,133.96824718,109.58752344,-60.63209836,-62.93936575,61.77627499
-65.92045477,-15.67346356,60.75346269,-175.36931032,0.83858102,5.01188001
2.51092002,0.31140887,0.35857815,-0.20623736

>  <Name>
lig.pdb

>  <RI>
2.74555e+07

>  <Rbt.Current_Directory>
/home/itssahil/PROJECTS/Mol_Feturizer/New_Systems/rnas/2n0j

>  <Rbt.Executable>
rbdock ($Id: //depot/dev/client3/rdock/2013.1/src/exe/rbdock.cxx#4 $)

>  <Rbt.Library>
libRbt.so (2013.1, Build901 2013/11/27)

>  <Rbt.Parameter_File>
/export/apps/rDock/src/rDock_2013.1_src/data/scripts/dock_solv.prm

>  <Rbt.Receptor>
prm/pocket_docking_6.prm

>  <SCORE>
-53.3279

>  <SCORE.INTER>
-52.784

>  <SCORE.INTER.CONST>
1

>  <SCORE.INTER.POLAR>
-6.5374

>  <SCORE.INTER.ROT>
6

>  <SCORE.INTER.SOLV>
18.781

>  <SCORE.INTER.VDW>
-27.2584

>  <SCORE.INTER.norm>
-1.70271

>  <SCORE.INTRA>
-0.543819

>  <SCORE.INTRA.DIHEDRAL>
-0.774212

>  <SCORE.INTRA.DIHEDRAL.0>
28.0161

>  <SCORE.INTRA.POLAR>
-0.647048

>  <SCORE.INTRA.POLAR.0>
-1.05798

>  <SCORE.INTRA.REPUL>
0

>  <SCORE.INTRA.REPUL.0>
0

>  <SCORE.INTRA.SOLV>
1.29861

>  <SCORE.INTRA.SOLV.lig_0>
-42.5945

>  <SCORE.INTRA.VDW>
1.39395

>  <SCORE.INTRA.VDW.0>
-5.13869

>  <SCORE.INTRA.norm>
-0.0175425

>  <SCORE.RESTR>
0

>  <SCORE.RESTR.CAVITY>
0

>  <SCORE.RESTR.norm>
0

>  <SCORE.SYSTEM>
0

>  <SCORE.SYSTEM.CONST>
0

>  <SCORE.SYSTEM.DIHEDRAL>
0

>  <SCORE.SYSTEM.SOLV>
0

>  <SCORE.SYSTEM.norm>
0

>  <SCORE.heavy>
31

>  <SCORE.norm>
-1.72025

>  <RMSD>
6.904

$$$$
lig.pdb
 OpenBabel11021811453D
libRbt.so/2013.1/901 2013/11/27
 31 33  0  0  0  0  0  0  0  0999 V2000
   -5.2754    0.2318   -1.5679 O   0  0  0  0  0  0  0  0  0  0  0  0
   -4.5866    0.8549   -0.5014 C   0  0  0  0  0  0  0  0  0  0  0  0
   -3.0684    0.6715   -0.6308 C   0  0  1  0  0  0  0  0  0  0  0  0
   -2.3547    1.5984    0.1721 O   0  0  0  0  0  0  0  0  0  0  0  0
   -1.0805    1.0583    0.5088 C   0  0  1  0  0  0  0  0  0  0  0  0
   -0.8421    1.2165    1.9023 O   0  0  0  0  0  0  0  0  0  0  0  0
    0.1532    2.1517    2.2865 C   0  0  2  0  0  0  0  0  0  0  0  0
   -0.0552    3.4256    1.4523 C   0  0  1  0  0  0  0  0  0  0  0  0
   -1.2505    4.0732    1.8589 O   0  0  0  0  0  0  0  0  0  0  0  0
    1.0839    4.4489    1.5764 C   0  0  2  0  0  0  0  0  0  0  0  0
    0.8648    5.5945    0.6798 N   0  0  0  0  0  0  0  0  0  0  0  0
    2.4120    3.7838    1.2344 C   0  0  0  0  0  0  0  0  0  0  0  0
    2.6246    2.5710    2.1321 C   0  0  2  0  0  0  0  0  0  0  0  0
    3.9321    1.9843    1.8192 N   0  0  0  0  0  0  0  0  0  0  0  0
    1.4792    1.5536    1.9411 C   0  0  1  0  0  0  0  0  0  0  0  0
    1.7903    0.4573    2.8144 O   0  0  0  0  0  0  0  0  0  0  0  0
    2.1065    0.7733    4.1660 C   0  0  1  0  0  0  0  0  0  0  0  0
    0.9193    0.9068    4.9426 O   0  0  0  0  0  0  0  0  0  0  0  0
    0.1795   -0.2901    5.1742 C   0  0  2  0  0  0  0  0  0  0  0  0
   -1.0547    0.0446    6.0223 C   0  0  0  0  0  0  0  0  0  0  0  0
   -1.8529   -1.1404    6.3024 N   0  0  0  0  0  0  0  0  0  0  0  0
    1.0442   -1.3368    5.9012 C   0  0  1  0  0  0  0  0  0  0  0  0
    0.3074   -2.5351    6.0671 O   0  0  0  0  0  0  0  0  0  0  0  0
    2.2995   -1.6078    5.0627 C   0  0  2  0  0  0  0  0  0  0  0  0
    3.1581   -2.5012    5.7465 O   0  0  0  0  0  0  0  0  0  0  0  0
    3.0351   -0.2979    4.7491 C   0  0  1  0  0  0  0  0  0  0  0  0
    4.1616   -0.5562    3.8410 N   0  0  0  0  0  0  0  0  0  0  0  0
   -1.1257   -0.4370    0.1621 C   0  0  2  0  0  0  0  0  0  0  0  0
   -0.3146   -0.6924   -0.9695 O   0  0  0  0  0  0  0  0  0  0  0  0
   -2.6119   -0.6817   -0.0948 C   0  0  2  0  0  0  0  0  0  0  0  0
   -2.8671   -1.7581   -0.9753 O   0  0  0  0  0  0  0  0  0  0  0  0
  2  1  1  0  0  0  0
  3  2  1  1  0  0  0
  3 30  1  0  0  0  0
  4  5  1  0  0  0  0
  4  3  1  0  0  0  0
  5 28  1  0  0  0  0
  5  6  1  1  0  0  0
  7  6  1  6  0  0  0
  8  7  1  0  0  0  0
  8  9  1  1  0  0  0
 10 11  1  6  0  0  0
 10  8  1  0  0  0  0
 12 10  1  0  0  0  0
 13 12  1  0  0  0  0
 13 15  1  0  0  0  0
 13 14  1  6  0  0  0
 15  7  1  0  0  0  0
 15 16  1  1  0  0  0
 17 16  1  6  0  0  0
 18 17  1  0  0  0  0
 19 20  1  1  0  0  0
 19 18  1  0  0  0  0
 20 21  1  0  0  0  0
 22 24  1  0  0  0  0
 22 19  1  0  0  0  0
 22 23  1  6  0  0  0
 24 25  1  1  0  0  0
 24 26  1  0  0  0  0
 26 17  1  0  0  0  0
 26 27  1  6  0  0  0
 28 29  1  6  0  0  0
 28 30  1  0  0  0  0
 30 31  1  6  0  0  0
M  END
>  <CHROM.1>
-176.54849617,162.40115789,-110.03978364,44.84816884,58.09188689,-65.56413086
-128.61418345,-70.74781589,84.37149223,-179.67763859,59.87470917,-142.71974984
-51.20395524,166.99042469,64.78957969,39.02022260,0.09221180,0.73084987,2.37438724
2.41749838,-0.56072537,-0.72477460

>  <Name>
lig.pdb

>  <RI>
0

>  <Rbt.Current_Directory>
/home/itssahil/PROJECTS/Mol_Feturizer/New_Systems/rnas/2n0j

>  <Rbt.Executable>
rbdock ($Id: //depot/dev/client3/rdock/2013.1/src/exe/rbdock.cxx#4 $)

>  <Rbt.Library>
libRbt.so (2013.1, Build901 2013/11/27)

>  <Rbt.Parameter_File>
/export/apps/rDock/src/rDock_2013.1_src/data/scripts/dock_solv.prm

>  <Rbt.Receptor>
prm/blind_docking_60.prm

>  <SCORE>
1.13589

>  <SCORE.INTER>
-7.08979

>  <SCORE.INTER.CONST>
1

>  <SCORE.INTER.POLAR>
-3.90962

>  <SCORE.INTER.ROT>
6

>  <SCORE.INTER.SOLV>
25.2226

>  <SCORE.INTER.VDW>
-7.70198

>  <SCORE.INTER.norm>
-0.228703

>  <SCORE.INTRA>
6.57632

>  <SCORE.INTRA.DIHEDRAL>
-4.45686

>  <SCORE.INTRA.DIHEDRAL.0>
28.0161

>  <SCORE.INTRA.POLAR>
0.848177

>  <SCORE.INTRA.POLAR.0>
-1.05798

>  <SCORE.INTRA.REPUL>
0

>  <SCORE.INTRA.REPUL.0>
0

>  <SCORE.INTRA.SOLV>
1.00643

>  <SCORE.INTRA.SOLV.lig_0>
-42.5945

>  <SCORE.INTRA.VDW>
5.41774

>  <SCORE.INTRA.VDW.0>
-5.13869

>  <SCORE.INTRA.norm>
0.212139

>  <SCORE.RESTR>
1.64937

>  <SCORE.RESTR.CAVITY>
1.64937

>  <SCORE.RESTR.norm>
0.0532053

>  <SCORE.SYSTEM>
0

>  <SCORE.SYSTEM.CONST>
0

>  <SCORE.SYSTEM.DIHEDRAL>
0

>  <SCORE.SYSTEM.SOLV>
0

>  <SCORE.SYSTEM.norm>
0

>  <SCORE.heavy>
31

>  <SCORE.norm>
0.0366418

>  <RMSD>
6.912

$$$$
lig.pdb
 OpenBabel11021811453D
libRbt.so/2013.1/901 2013/11/27
 31 33  0  0  0  0  0  0  0  0999 V2000
   -0.4309   -0.4151    3.9092 O   0  0  0  0  0  0  0  0  0  0  0  0
    0.2453   -0.9803    2.8032 C   0  0  0  0  0  0  0  0  0  0  0  0
    1.3507   -0.0497    2.2860 C   0  0  1  0  0  0  0  0  0  0  0  0
    0.8308    1.1977    1.8540 O   0  0  0  0  0  0  0  0  0  0  0  0
    1.8383    2.1989    1.9609 C   0  0  1  0  0  0  0  0  0  0  0  0
    1.3072    3.3512    2.6042 O   0  0  0  0  0  0  0  0  0  0  0  0
    0.9962    4.4654    1.7829 C   0  0  2  0  0  0  0  0  0  0  0  0
    2.2810    5.2906    1.6080 C   0  0  1  0  0  0  0  0  0  0  0  0
    3.2047    4.5726    0.8051 O   0  0  0  0  0  0  0  0  0  0  0  0
    2.0618    6.6573    0.9415 C   0  0  2  0  0  0  0  0  0  0  0  0
    3.3133    7.4291    0.8951 N   0  0  0  0  0  0  0  0  0  0  0  0
    1.0094    7.4433    1.7144 C   0  0  0  0  0  0  0  0  0  0  0  0
   -0.2765    6.6305    1.8019 C   0  0  2  0  0  0  0  0  0  0  0  0
   -1.2866    7.4318    2.5015 N   0  0  0  0  0  0  0  0  0  0  0  0
   -0.0154    5.2868    2.5160 C   0  0  1  0  0  0  0  0  0  0  0  0
   -1.2863    4.6199    2.5553 O   0  0  0  0  0  0  0  0  0  0  0  0
   -1.4288    3.5482    3.4814 C   0  0  1  0  0  0  0  0  0  0  0  0
   -1.8223    4.0374    4.7607 O   0  0  0  0  0  0  0  0  0  0  0  0
   -3.1411    4.5717    4.8529 C   0  0  2  0  0  0  0  0  0  0  0  0
   -3.3865    5.0439    6.2922 C   0  0  0  0  0  0  0  0  0  0  0  0
   -3.3785    6.4964    6.3910 N   0  0  0  0  0  0  0  0  0  0  0  0
   -4.1898    3.5128    4.4651 C   0  0  1  0  0  0  0  0  0  0  0  0
   -5.4856    4.0835    4.5078 O   0  0  0  0  0  0  0  0  0  0  0  0
   -3.8858    3.0140    3.0469 C   0  0  2  0  0  0  0  0  0  0  0  0
   -4.7804    1.9757    2.6939 O   0  0  0  0  0  0  0  0  0  0  0  0
   -2.4350    2.5242    2.9440 C   0  0  1  0  0  0  0  0  0  0  0  0
   -2.1192    2.1694    1.5530 N   0  0  0  0  0  0  0  0  0  0  0  0
    2.9655    1.6056    2.8185 C   0  0  2  0  0  0  0  0  0  0  0  0
    4.0970    1.3430    2.0095 O   0  0  0  0  0  0  0  0  0  0  0  0
    2.3277    0.3406    3.3905 C   0  0  2  0  0  0  0  0  0  0  0  0
    3.2609   -0.6727    3.7092 O   0  0  0  0  0  0  0  0  0  0  0  0
  2  1  1  0  0  0  0
  3  2  1  1  0  0  0
  3 30  1  0  0  0  0
  4  5  1  0  0  0  0
  4  3  1  0  0  0  0
  5 28  1  0  0  0  0
  5  6  1  1  0  0  0
  7  6  1  1  0  0  0
  8  7  1  0  0  0  0
  8  9  1  6  0  0  0
 10 11  1  1  0  0  0
 10  8  1  0  0  0  0
 12 10  1  0  0  0  0
 13 12  1  0  0  0  0
 13 15  1  0  0  0  0
 13 14  1  1  0  0  0
 15  7  1  0  0  0  0
 15 16  1  6  0  0  0
 17 16  1  6  0  0  0
 18 17  1  0  0  0  0
 19 20  1  1  0  0  0
 19 18  1  0  0  0  0
 20 21  1  0  0  0  0
 22 24  1  0  0  0  0
 22 19  1  0  0  0  0
 22 23  1  6  0  0  0
 24 25  1  1  0  0  0
 24 26  1  0  0  0  0
 26 17  1  0  0  0  0
 26 27  1  6  0  0  0
 28 29  1  6  0  0  0
 28 30  1  0  0  0  0
 30 31  1  6  0  0  0
M  END
>  <CHROM.1>
59.52464988,-60.58320951,-103.73543328,-85.43840263,-165.62607261,-178.35004357
37.94981768,76.80265730,86.44979561,106.75497007,68.64469651,41.55236847
64.16532918,47.86704996,173.34493512,-60.80993292,-0.27645409,3.50604727
2.89260717,0.28907690,-0.37452356,3.01563446

>  <Name>
lig.pdb

>  <RI>
3.32461e+07

>  <Rbt.Current_Directory>
/home/itssahil/PROJECTS/Mol_Feturizer/New_Systems/rnas/2n0j

>  <Rbt.Executable>
rbdock ($Id: //depot/dev/client3/rdock/2013.1/src/exe/rbdock.cxx#4 $)

>  <Rbt.Library>
libRbt.so (2013.1, Build901 2013/11/27)

>  <Rbt.Parameter_File>
/export/apps/rDock/src/rDock_2013.1_src/data/scripts/dock_solv.prm

>  <Rbt.Receptor>
prm/pocket_docking_7.prm

>  <SCORE>
-47.2276

>  <SCORE.INTER>
-45.2978

>  <SCORE.INTER.CONST>
1

>  <SCORE.INTER.POLAR>
-5.5159

>  <SCORE.INTER.ROT>
6

>  <SCORE.INTER.SOLV>
15.9334

>  <SCORE.INTER.VDW>
-24.7233

>  <SCORE.INTER.norm>
-1.46122

>  <SCORE.INTRA>
-1.92981

>  <SCORE.INTRA.DIHEDRAL>
-5.66147

>  <SCORE.INTRA.DIHEDRAL.0>
28.0161

>  <SCORE.INTRA.POLAR>
0.057985

>  <SCORE.INTRA.POLAR.0>
-1.05798

>  <SCORE.INTRA.REPUL>
0

>  <SCORE.INTRA.REPUL.0>
0

>  <SCORE.INTRA.SOLV>
0.862052

>  <SCORE.INTRA.SOLV.lig_0>
-42.5945

>  <SCORE.INTRA.VDW>
0.272749

>  <SCORE.INTRA.VDW.0>
-5.13869

>  <SCORE.INTRA.norm>
-0.062252

>  <SCORE.RESTR>
0

>  <SCORE.RESTR.CAVITY>
0

>  <SCORE.RESTR.norm>
0

>  <SCORE.SYSTEM>
0

>  <SCORE.SYSTEM.CONST>
0

>  <SCORE.SYSTEM.DIHEDRAL>
0

>  <SCORE.SYSTEM.SOLV>
0

>  <SCORE.SYSTEM.norm>
0

>  <SCORE.heavy>
31

>  <SCORE.norm>
-1.52347

>  <RMSD>
6.925

$$$$
lig.pdb
 OpenBabel11021811453D
libRbt.so/2013.1/901 2013/11/27
 31 33  0  0  0  0  0  0  0  0999 V2000
   -0.3455   -1.8279    1.2309 O   0  0  0  0  0  0  0  0  0  0  0  0
   -0.0168   -1.1661    2.4368 C   0  0  0  0  0  0  0  0  0  0  0  0
    1.2515   -0.3160    2.2826 C   0  0  1  0  0  0  0  0  0  0  0  0
    0.9497    1.0191    1.9091 O   0  0  0  0  0  0  0  0  0  0  0  0
    1.9910    1.8860    2.3484 C   0  0  1  0  0  0  0  0  0  0  0  0
    1.4321    3.0182    3.0037 O   0  0  0  0  0  0  0  0  0  0  0  0
    0.9079    4.0486    2.1813 C   0  0  2  0  0  0  0  0  0  0  0  0
    2.0497    5.0319    1.8787 C   0  0  1  0  0  0  0  0  0  0  0  0
    2.9974    4.4149    1.0217 O   0  0  0  0  0  0  0  0  0  0  0  0
    1.5936    6.3305    1.1962 C   0  0  2  0  0  0  0  0  0  0  0  0
    2.7199    7.2613    1.0258 N   0  0  0  0  0  0  0  0  0  0  0  0
    0.5071    6.9965    2.0322 C   0  0  0  0  0  0  0  0  0  0  0  0
   -0.6444    6.0219    2.2475 C   0  0  2  0  0  0  0  0  0  0  0  0
   -1.6968    6.7059    3.0065 N   0  0  0  0  0  0  0  0  0  0  0  0
   -0.1462    4.7535    2.9734 C   0  0  1  0  0  0  0  0  0  0  0  0
   -1.3067    3.9237    3.1356 O   0  0  0  0  0  0  0  0  0  0  0  0
   -1.3384    3.0667    4.2718 C   0  0  1  0  0  0  0  0  0  0  0  0
   -1.3105    3.8271    5.4767 O   0  0  0  0  0  0  0  0  0  0  0  0
   -2.4754    4.5984    5.7625 C   0  0  2  0  0  0  0  0  0  0  0  0
   -2.2659    5.3425    7.0880 C   0  0  0  0  0  0  0  0  0  0  0  0
   -3.0227    6.5854    7.1331 N   0  0  0  0  0  0  0  0  0  0  0  0
   -3.7194    3.6960    5.8614 C   0  0  1  0  0  0  0  0  0  0  0  0
   -4.8705    4.4901    6.0872 O   0  0  0  0  0  0  0  0  0  0  0  0
   -3.8708    2.9190    4.5477 C   0  0  2  0  0  0  0  0  0  0  0  0
   -4.9557    2.0148    4.6393 O   0  0  0  0  0  0  0  0  0  0  0  0
   -2.5768    2.1654    4.2115 C   0  0  1  0  0  0  0  0  0  0  0  0
   -2.6908    1.5304    2.8908 N   0  0  0  0  0  0  0  0  0  0  0  0
    2.8451    1.0866    3.3432 C   0  0  2  0  0  0  0  0  0  0  0  0
    4.1005    0.7841    2.7636 O   0  0  0  0  0  0  0  0  0  0  0  0
    1.9899   -0.1517    3.6072 C   0  0  2  0  0  0  0  0  0  0  0  0
    2.7385   -1.2895    3.9866 O   0  0  0  0  0  0  0  0  0  0  0  0
  2  1  1  0  0  0  0
  3  2  1  1  0  0  0
  3 30  1  0  0  0  0
  4  5  1  0  0  0  0
  4  3  1  0  0  0  0
  5 28  1  0  0  0  0
  5  6  1  1  0  0  0
  7  6  1  1  0  0  0
  8  7  1  0  0  0  0
  8  9  1  6  0  0  0
 10 11  1  1  0  0  0
 10  8  1  0  0  0  0
 12 10  1  0  0  0  0
 13 12  1  0  0  0  0
 13 15  1  0  0  0  0
 13 14  1  1  0  0  0
 15  7  1  0  0  0  0
 15 16  1  6  0  0  0
 17 16  1  6  0  0  0
 18 17  1  0  0  0  0
 19 20  1  1  0  0  0
 19 18  1  0  0  0  0
 20 21  1  0  0  0  0
 22 24  1  0  0  0  0
 22 19  1  0  0  0  0
 22 23  1  6  0  0  0
 24 25  1  1  0  0  0
 24 26  1  0  0  0  0
 26 17  1  0  0  0  0
 26 27  1  6  0  0  0
 28 29  1  6  0  0  0
 28 30  1  0  0  0  0
 30 31  1  6  0  0  0
M  END
>  <CHROM.1>
61.59975150,92.02478445,-78.86476324,-89.17975867,-67.98610952,58.96801445
85.78682777,89.43400143,62.08277275,151.54104093,-21.53403329,-74.60080430
57.39799891,172.33338127,-56.51883805,53.88377228,-0.30944743,3.17422067
3.40443530,0.55738376,-0.53469373,3.11504077

>  <Name>
lig.pdb

>  <RI>
2.74555e+07

>  <Rbt.Current_Directory>
/home/itssahil/PROJECTS/Mol_Feturizer/New_Systems/rnas/2n0j

>  <Rbt.Executable>
rbdock ($Id: //depot/dev/client3/rdock/2013.1/src/exe/rbdock.cxx#4 $)

>  <Rbt.Library>
libRbt.so (2013.1, Build901 2013/11/27)

>  <Rbt.Parameter_File>
/export/apps/rDock/src/rDock_2013.1_src/data/scripts/dock_solv.prm

>  <Rbt.Receptor>
prm/pocket_docking_6.prm

>  <SCORE>
-48.0968

>  <SCORE.INTER>
-48.5494

>  <SCORE.INTER.CONST>
1

>  <SCORE.INTER.POLAR>
-6.38394

>  <SCORE.INTER.ROT>
6

>  <SCORE.INTER.SOLV>
17.2502

>  <SCORE.INTER.VDW>
-24.4365

>  <SCORE.INTER.norm>
-1.56611

>  <SCORE.INTRA>
0.452535

>  <SCORE.INTRA.DIHEDRAL>
-8.01641

>  <SCORE.INTRA.DIHEDRAL.0>
28.0161

>  <SCORE.INTRA.POLAR>
1.01383

>  <SCORE.INTRA.POLAR.0>
-1.05798

>  <SCORE.INTRA.REPUL>
0

>  <SCORE.INTRA.REPUL.0>
0

>  <SCORE.INTRA.SOLV>
-0.239458

>  <SCORE.INTRA.SOLV.lig_0>
-42.5945

>  <SCORE.INTRA.VDW>
1.13346

>  <SCORE.INTRA.VDW.0>
-5.13869

>  <SCORE.INTRA.norm>
0.0145979

>  <SCORE.RESTR>
0

>  <SCORE.RESTR.CAVITY>
0

>  <SCORE.RESTR.norm>
0

>  <SCORE.SYSTEM>
0

>  <SCORE.SYSTEM.CONST>
0

>  <SCORE.SYSTEM.DIHEDRAL>
0

>  <SCORE.SYSTEM.SOLV>
0

>  <SCORE.SYSTEM.norm>
0

>  <SCORE.heavy>
31

>  <SCORE.norm>
-1.55151

>  <RMSD>
6.928

$$$$
lig.pdb
 OpenBabel11021811453D
libRbt.so/2013.1/901 2013/11/27
 31 33  0  0  0  0  0  0  0  0999 V2000
   -3.9755    0.4819   -0.6332 O   0  0  0  0  0  0  0  0  0  0  0  0
   -3.2422   -0.6451   -1.0715 C   0  0  0  0  0  0  0  0  0  0  0  0
   -1.9939   -0.8727   -0.2082 C   0  0  1  0  0  0  0  0  0  0  0  0
   -1.3311    0.3452    0.0923 O   0  0  0  0  0  0  0  0  0  0  0  0
   -0.6036    0.2065    1.3090 C   0  0  1  0  0  0  0  0  0  0  0  0
   -0.8652    1.3183    2.1572 O   0  0  0  0  0  0  0  0  0  0  0  0
    0.2528    2.0700    2.6021 C   0  0  2  0  0  0  0  0  0  0  0  0
    0.4047    3.2801    1.6668 C   0  0  1  0  0  0  0  0  0  0  0  0
   -0.6690    4.1839    1.8761 O   0  0  0  0  0  0  0  0  0  0  0  0
    1.7094    4.0662    1.8667 C   0  0  2  0  0  0  0  0  0  0  0  0
    1.8314    5.1475    0.8767 N   0  0  0  0  0  0  0  0  0  0  0  0
    2.9014    3.1250    1.7393 C   0  0  0  0  0  0  0  0  0  0  0  0
    2.7592    1.9794    2.7340 C   0  0  2  0  0  0  0  0  0  0  0  0
    3.9441    1.1214    2.6277 N   0  0  0  0  0  0  0  0  0  0  0  0
    1.4570    1.1942    2.4667 C   0  0  1  0  0  0  0  0  0  0  0  0
    1.4372    0.1408    3.4421 O   0  0  0  0  0  0  0  0  0  0  0  0
    1.1285    0.5037    4.7836 C   0  0  1  0  0  0  0  0  0  0  0  0
   -0.2724    0.4001    5.0233 O   0  0  0  0  0  0  0  0  0  0  0  0
   -0.8145   -0.9188    5.0322 C   0  0  2  0  0  0  0  0  0  0  0  0
   -2.3223   -0.8346    5.3049 C   0  0  0  0  0  0  0  0  0  0  0  0
   -2.6005   -0.3091    6.6339 N   0  0  0  0  0  0  0  0  0  0  0  0
   -0.1364   -1.7828    6.1117 C   0  0  1  0  0  0  0  0  0  0  0  0
   -0.6496   -3.1021    6.0617 O   0  0  0  0  0  0  0  0  0  0  0  0
    1.3750   -1.8005    5.8516 C   0  0  2  0  0  0  0  0  0  0  0  0
    2.0373   -2.5151    6.8782 O   0  0  0  0  0  0  0  0  0  0  0  0
    1.9256   -0.3711    5.7577 C   0  0  1  0  0  0  0  0  0  0  0  0
    3.3465   -0.4009    5.3824 N   0  0  0  0  0  0  0  0  0  0  0  0
   -1.1026   -1.0808    1.9812 C   0  0  2  0  0  0  0  0  0  0  0  0
   -0.0985   -2.0764    1.9171 O   0  0  0  0  0  0  0  0  0  0  0  0
   -2.3481   -1.4285    1.1675 C   0  0  2  0  0  0  0  0  0  0  0  0
   -2.6568   -2.8083    1.1617 O   0  0  0  0  0  0  0  0  0  0  0  0
  2  1  1  0  0  0  0
  3  2  1  6  0  0  0
  3 30  1  0  0  0  0
  4  5  1  0  0  0  0
  4  3  1  0  0  0  0
  5 28  1  0  0  0  0
  5  6  1  1  0  0  0
  7  6  1  6  0  0  0
  8  7  1  0  0  0  0
  8  9  1  1  0  0  0
 10 11  1  6  0  0  0
 10  8  1  0  0  0  0
 12 10  1  0  0  0  0
 13 12  1  0  0  0  0
 13 15  1  0  0  0  0
 13 14  1  6  0  0  0
 15  7  1  0  0  0  0
 15 16  1  1  0  0  0
 17 16  1  6  0  0  0
 18 17  1  0  0  0  0
 19 20  1  1  0  0  0
 19 18  1  0  0  0  0
 20 21  1  0  0  0  0
 22 24  1  0  0  0  0
 22 19  1  0  0  0  0
 22 23  1  6  0  0  0
 24 25  1  1  0  0  0
 24 26  1  0  0  0  0
 26 17  1  0  0  0  0
 26 27  1  6  0  0  0
 28 29  1  6  0  0  0
 28 30  1  0  0  0  0
 30 31  1  6  0  0  0
M  END
>  <CHROM.1>
65.73408099,-41.86500886,-123.66080852,96.46946729,66.99280743,-29.98349450
-74.15645219,-46.49612843,91.38348217,-64.73498924,-151.25382422,58.20230082
-64.70282396,-63.91310727,-44.84558334,-57.68949872,0.02009564,0.26406763
2.99582346,1.81792342,-0.64193579,-0.84780960

>  <Name>
lig.pdb

>  <RI>
1.79691e+07

>  <Rbt.Current_Directory>
/home/itssahil/PROJECTS/Mol_Feturizer/New_Systems/rnas/2n0j

>  <Rbt.Executable>
rbdock ($Id: //depot/dev/client3/rdock/2013.1/src/exe/rbdock.cxx#4 $)

>  <Rbt.Library>
libRbt.so (2013.1, Build901 2013/11/27)

>  <Rbt.Parameter_File>
/export/apps/rDock/src/rDock_2013.1_src/data/scripts/dock_solv.prm

>  <Rbt.Receptor>
prm/blind_docking_20.prm

>  <SCORE>
-12.37

>  <SCORE.INTER>
-25.2582

>  <SCORE.INTER.CONST>
1

>  <SCORE.INTER.POLAR>
-4.68774

>  <SCORE.INTER.ROT>
6

>  <SCORE.INTER.SOLV>
20.7171

>  <SCORE.INTER.VDW>
-15.7187

>  <SCORE.INTER.norm>
-0.81478

>  <SCORE.INTRA>
10.1566

>  <SCORE.INTRA.DIHEDRAL>
-4.2808

>  <SCORE.INTRA.DIHEDRAL.0>
28.0161

>  <SCORE.INTRA.POLAR>
1.05798

>  <SCORE.INTRA.POLAR.0>
-1.05798

>  <SCORE.INTRA.REPUL>
0

>  <SCORE.INTRA.REPUL.0>
0

>  <SCORE.INTRA.SOLV>
1.53879

>  <SCORE.INTRA.SOLV.lig_0>
-42.5945

>  <SCORE.INTRA.VDW>
7.93048

>  <SCORE.INTRA.VDW.0>
-5.13869

>  <SCORE.INTRA.norm>
0.327633

>  <SCORE.RESTR>
2.73152

>  <SCORE.RESTR.CAVITY>
2.73152

>  <SCORE.RESTR.norm>
0.0881135

>  <SCORE.SYSTEM>
0

>  <SCORE.SYSTEM.CONST>
0

>  <SCORE.SYSTEM.DIHEDRAL>
0

>  <SCORE.SYSTEM.SOLV>
0

>  <SCORE.SYSTEM.norm>
0

>  <SCORE.heavy>
31

>  <SCORE.norm>
-0.399034

>  <RMSD>
6.940

$$$$
lig.pdb
 OpenBabel11021811453D
libRbt.so/2013.1/901 2013/11/27
 31 33  0  0  0  0  0  0  0  0999 V2000
   -0.7987   -0.5750    0.2077 O   0  0  0  0  0  0  0  0  0  0  0  0
   -0.2755   -0.8141    1.4997 C   0  0  0  0  0  0  0  0  0  0  0  0
    1.0473   -0.0668    1.7164 C   0  0  1  0  0  0  0  0  0  0  0  0
    0.9076    1.3278    1.4962 O   0  0  0  0  0  0  0  0  0  0  0  0
    1.8909    2.0320    2.2485 C   0  0  1  0  0  0  0  0  0  0  0  0
    1.2822    3.1109    2.9480 O   0  0  0  0  0  0  0  0  0  0  0  0
    0.7726    4.1817    2.1692 C   0  0  2  0  0  0  0  0  0  0  0  0
    1.9293    5.1581    1.9029 C   0  0  1  0  0  0  0  0  0  0  0  0
    2.8650    4.5610    1.0190 O   0  0  0  0  0  0  0  0  0  0  0  0
    1.4925    6.4901    1.2744 C   0  0  2  0  0  0  0  0  0  0  0  0
    2.6331    7.4091    1.1382 N   0  0  0  0  0  0  0  0  0  0  0  0
    0.4187    7.1391    2.1397 C   0  0  0  0  0  0  0  0  0  0  0  0
   -0.7477    6.1751    2.3192 C   0  0  2  0  0  0  0  0  0  0  0  0
   -1.7873    6.8447    3.1081 N   0  0  0  0  0  0  0  0  0  0  0  0
   -0.2683    4.8709    2.9921 C   0  0  1  0  0  0  0  0  0  0  0  0
   -1.4414    4.0537    3.1242 O   0  0  0  0  0  0  0  0  0  0  0  0
   -1.5315    3.2293    4.2813 C   0  0  1  0  0  0  0  0  0  0  0  0
   -1.8597    4.0072    5.4292 O   0  0  0  0  0  0  0  0  0  0  0  0
   -3.1740    4.5595    5.4618 C   0  0  2  0  0  0  0  0  0  0  0  0
   -3.3459    5.3570    6.7614 C   0  0  0  0  0  0  0  0  0  0  0  0
   -2.0843    5.9240    7.2160 N   0  0  0  0  0  0  0  0  0  0  0  0
   -4.2374    3.4482    5.3868 C   0  0  1  0  0  0  0  0  0  0  0  0
   -5.5313    4.0241    5.3616 O   0  0  0  0  0  0  0  0  0  0  0  0
   -4.0057    2.6292    4.1108 C   0  0  2  0  0  0  0  0  0  0  0  0
   -4.9136    1.5448    4.0569 O   0  0  0  0  0  0  0  0  0  0  0  0
   -2.5604    2.1167    4.0507 C   0  0  1  0  0  0  0  0  0  0  0  0
   -2.3161    1.4440    2.7669 N   0  0  0  0  0  0  0  0  0  0  0  0
    2.4792    1.0335    3.2561 C   0  0  2  0  0  0  0  0  0  0  0  0
    3.8043    0.7017    2.8855 O   0  0  0  0  0  0  0  0  0  0  0  0
    1.5150   -0.1482    3.1661 C   0  0  2  0  0  0  0  0  0  0  0  0
    2.1024   -1.3886    3.5059 O   0  0  0  0  0  0  0  0  0  0  0  0
  2  1  1  0  0  0  0
  3  2  1  1  0  0  0
  3 30  1  0  0  0  0
  4  5  1  0  0  0  0
  4  3  1  0  0  0  0
  5 28  1  0  0  0  0
  5  6  1  1  0  0  0
  7  6  1  1  0  0  0
  8  7  1  0  0  0  0
  8  9  1  6  0  0  0
 10 11  1  1  0  0  0
 10  8  1  0  0  0  0
 12 10  1  0  0  0  0
 13 12  1  0  0  0  0
 13 15  1  0  0  0  0
 13 14  1  1  0  0  0
 15  7  1  0  0  0  0
 15 16  1  6  0  0  0
 17 16  1  6  0  0  0
 18 17  1  0  0  0  0
 19 20  1  1  0  0  0
 19 18  1  0  0  0  0
 20 21  1  0  0  0  0
 22 24  1  0  0  0  0
 22 19  1  0  0  0  0
 22 23  1  6  0  0  0
 24 25  1  1  0  0  0
 24 26  1  0  0  0  0
 26 17  1  0  0  0  0
 26 27  1  6  0  0  0
 28 29  1  6  0  0  0
 28 30  1  0  0  0  0
 30 31  1  6  0  0  0
M  END
>  <CHROM.1>
-61.82811227,56.22689473,-67.55769149,-85.65613489,-64.99585110,62.23888892
-152.76218660,94.24217428,75.43047078,30.10711571,-137.32976551,-176.86587943
-59.18274886,-178.19270371,-55.07795652,179.81535183,-0.51137864,3.22270969
3.19336991,0.49506599,-0.50147224,-3.07305336

>  <Name>
lig.pdb

>  <RI>
2.74555e+07

>  <Rbt.Current_Directory>
/home/itssahil/PROJECTS/Mol_Feturizer/New_Systems/rnas/2n0j

>  <Rbt.Executable>
rbdock ($Id: //depot/dev/client3/rdock/2013.1/src/exe/rbdock.cxx#4 $)

>  <Rbt.Library>
libRbt.so (2013.1, Build901 2013/11/27)

>  <Rbt.Parameter_File>
/export/apps/rDock/src/rDock_2013.1_src/data/scripts/dock_solv.prm

>  <Rbt.Receptor>
prm/pocket_docking_6.prm

>  <SCORE>
-37.8872

>  <SCORE.INTER>
-36.2453

>  <SCORE.INTER.CONST>
1

>  <SCORE.INTER.POLAR>
-3.93179

>  <SCORE.INTER.ROT>
6

>  <SCORE.INTER.SOLV>
15.1693

>  <SCORE.INTER.VDW>
-23.714

>  <SCORE.INTER.norm>
-1.1692

>  <SCORE.INTRA>
-1.64185

>  <SCORE.INTRA.DIHEDRAL>
-11.5981

>  <SCORE.INTRA.DIHEDRAL.0>
28.0161

>  <SCORE.INTRA.POLAR>
0.718424

>  <SCORE.INTRA.POLAR.0>
-1.05798

>  <SCORE.INTRA.REPUL>
0

>  <SCORE.INTRA.REPUL.0>
0

>  <SCORE.INTRA.SOLV>
0.186093

>  <SCORE.INTRA.SOLV.lig_0>
-42.5945

>  <SCORE.INTRA.VDW>
1.62149

>  <SCORE.INTRA.VDW.0>
-5.13869

>  <SCORE.INTRA.norm>
-0.0529629

>  <SCORE.RESTR>
0

>  <SCORE.RESTR.CAVITY>
0

>  <SCORE.RESTR.norm>
0

>  <SCORE.SYSTEM>
0

>  <SCORE.SYSTEM.CONST>
0

>  <SCORE.SYSTEM.DIHEDRAL>
0

>  <SCORE.SYSTEM.SOLV>
0

>  <SCORE.SYSTEM.norm>
0

>  <SCORE.heavy>
31

>  <SCORE.norm>
-1.22217

>  <RMSD>
6.947

$$$$
lig.pdb
 OpenBabel11021811453D
libRbt.so/2013.1/901 2013/11/27
 31 33  0  0  0  0  0  0  0  0999 V2000
   -2.1074    1.1658    8.8016 O   0  0  0  0  0  0  0  0  0  0  0  0
   -1.2710    0.2501    8.1219 C   0  0  0  0  0  0  0  0  0  0  0  0
   -1.9921   -0.3881    6.9269 C   0  0  1  0  0  0  0  0  0  0  0  0
   -2.3831    0.5814    5.9676 O   0  0  0  0  0  0  0  0  0  0  0  0
   -2.4758   -0.0268    4.6830 C   0  0  1  0  0  0  0  0  0  0  0  0
   -1.8004    0.7736    3.7201 O   0  0  0  0  0  0  0  0  0  0  0  0
   -2.5023    1.8922    3.2014 C   0  0  2  0  0  0  0  0  0  0  0  0
   -2.7727    2.8563    4.3674 C   0  0  1  0  0  0  0  0  0  0  0  0
   -1.5529    3.4392    4.7984 O   0  0  0  0  0  0  0  0  0  0  0  0
   -3.7310    4.0058    4.0203 C   0  0  2  0  0  0  0  0  0  0  0  0
   -4.0191    4.8292    5.2048 N   0  0  0  0  0  0  0  0  0  0  0  0
   -5.0335    3.4399    3.4669 C   0  0  0  0  0  0  0  0  0  0  0  0
   -4.7372    2.5519    2.2645 C   0  0  2  0  0  0  0  0  0  0  0  0
   -6.0098    2.0663    1.7202 N   0  0  0  0  0  0  0  0  0  0  0  0
   -3.8068    1.3890    2.6716 C   0  0  1  0  0  0  0  0  0  0  0  0
   -3.6116    0.6175    1.4766 O   0  0  0  0  0  0  0  0  0  0  0  0
   -3.2339   -0.7455    1.6381 C   0  0  1  0  0  0  0  0  0  0  0  0
   -4.2948   -1.4957    2.2233 O   0  0  0  0  0  0  0  0  0  0  0  0
   -5.4503   -1.6925    1.4112 C   0  0  2  0  0  0  0  0  0  0  0  0
   -6.4774   -2.5160    2.1997 C   0  0  0  0  0  0  0  0  0  0  0  0
   -6.9010   -1.8300    3.4120 N   0  0  0  0  0  0  0  0  0  0  0  0
   -5.0851   -2.4247    0.1066 C   0  0  1  0  0  0  0  0  0  0  0  0
   -6.2367   -2.5560   -0.7077 O   0  0  0  0  0  0  0  0  0  0  0  0
   -4.0138   -1.6123   -0.6316 C   0  0  2  0  0  0  0  0  0  0  0  0
   -3.5930   -2.3034   -1.7927 O   0  0  0  0  0  0  0  0  0  0  0  0
   -2.8156   -1.3350    0.2863 C   0  0  1  0  0  0  0  0  0  0  0  0
   -1.8560   -0.4501   -0.3893 N   0  0  0  0  0  0  0  0  0  0  0  0
   -1.7862   -1.3949    4.7879 C   0  0  2  0  0  0  0  0  0  0  0  0
   -2.7541   -2.4262    4.7306 O   0  0  0  0  0  0  0  0  0  0  0  0
   -1.0725   -1.3133    6.1364 C   0  0  2  0  0  0  0  0  0  0  0  0
   -0.8679   -2.5714    6.7485 O   0  0  0  0  0  0  0  0  0  0  0  0
  2  1  1  0  0  0  0
  3  2  1  1  0  0  0
  3 30  1  0  0  0  0
  4  5  1  0  0  0  0
  4  3  1  0  0  0  0
  5 28  1  0  0  0  0
  5  6  1  6  0  0  0
  7  6  1  1  0  0  0
  8  7  1  0  0  0  0
  8  9  1  6  0  0  0
 10 11  1  1  0  0  0
 10  8  1  0  0  0  0
 12 10  1  0  0  0  0
 13 12  1  0  0  0  0
 13 15  1  0  0  0  0
 13 14  1  1  0  0  0
 15  7  1  0  0  0  0
 15 16  1  6  0  0  0
 17 16  1  6  0  0  0
 18 17  1  0  0  0  0
 19 20  1  1  0  0  0
 19 18  1  0  0  0  0
 20 21  1  0  0  0  0
 22 24  1  0  0  0  0
 22 19  1  0  0  0  0
 22 23  1  6  0  0  0
 24 25  1  6  0  0  0
 24 26  1  0  0  0  0
 26 17  1  0  0  0  0
 26 27  1  6  0  0  0
 28 29  1  1  0  0  0
 28 30  1  0  0  0  0
 30 31  1  1  0  0  0
M  END
>  <CHROM.1>
-176.77715538,61.19476343,-81.10087298,63.15852051,-61.41302534,-62.20790656
46.39756841,82.23147823,67.30757929,61.22017072,-172.94588298,77.52907313
65.36618298,-51.30738067,60.96354694,-68.78566867,-3.43768605,0.08362183
3.28648573,-0.70078322,1.08329205,-2.80259293

>  <Name>
lig.pdb

>  <RI>
3.32461e+07

>  <Rbt.Current_Directory>
/home/itssahil/PROJECTS/Mol_Feturizer/New_Systems/rnas/2n0j

>  <Rbt.Executable>
rbdock ($Id: //depot/dev/client3/rdock/2013.1/src/exe/rbdock.cxx#4 $)

>  <Rbt.Library>
libRbt.so (2013.1, Build901 2013/11/27)

>  <Rbt.Parameter_File>
/export/apps/rDock/src/rDock_2013.1_src/data/scripts/dock_solv.prm

>  <Rbt.Receptor>
prm/pocket_docking_7.prm

>  <SCORE>
-29.8059

>  <SCORE.INTER>
-21.3003

>  <SCORE.INTER.CONST>
1

>  <SCORE.INTER.POLAR>
-3.43261

>  <SCORE.INTER.ROT>
6

>  <SCORE.INTER.SOLV>
10.8229

>  <SCORE.INTER.VDW>
-13.9658

>  <SCORE.INTER.norm>
-0.687107

>  <SCORE.INTRA>
-8.50563

>  <SCORE.INTRA.DIHEDRAL>
-20.3857

>  <SCORE.INTRA.DIHEDRAL.0>
28.0161

>  <SCORE.INTRA.POLAR>
0.0726668

>  <SCORE.INTRA.POLAR.0>
-1.05798

>  <SCORE.INTRA.REPUL>
0

>  <SCORE.INTRA.REPUL.0>
0

>  <SCORE.INTRA.SOLV>
-0.286506

>  <SCORE.INTRA.SOLV.lig_0>
-42.5945

>  <SCORE.INTRA.VDW>
1.5834

>  <SCORE.INTRA.VDW.0>
-5.13869

>  <SCORE.INTRA.norm>
-0.274375

>  <SCORE.RESTR>
0

>  <SCORE.RESTR.CAVITY>
0

>  <SCORE.RESTR.norm>
0

>  <SCORE.SYSTEM>
0

>  <SCORE.SYSTEM.CONST>
0

>  <SCORE.SYSTEM.DIHEDRAL>
0

>  <SCORE.SYSTEM.SOLV>
0

>  <SCORE.SYSTEM.norm>
0

>  <SCORE.heavy>
31

>  <SCORE.norm>
-0.961482

>  <RMSD>
6.956

$$$$
lig.pdb
 OpenBabel11021811453D
libRbt.so/2013.1/901 2013/11/27
 31 33  0  0  0  0  0  0  0  0999 V2000
   -0.5747   -1.2618    1.6011 O   0  0  0  0  0  0  0  0  0  0  0  0
    0.3191   -0.9441    2.6500 C   0  0  0  0  0  0  0  0  0  0  0  0
    1.4979   -0.1002    2.1464 C   0  0  1  0  0  0  0  0  0  0  0  0
    1.0770    1.1765    1.6928 O   0  0  0  0  0  0  0  0  0  0  0  0
    2.1513    2.1043    1.8105 C   0  0  1  0  0  0  0  0  0  0  0  0
    1.6919    3.2983    2.4327 O   0  0  0  0  0  0  0  0  0  0  0  0
    1.5929    4.4558    1.6183 C   0  0  2  0  0  0  0  0  0  0  0  0
    2.9995    5.0630    1.4956 C   0  0  1  0  0  0  0  0  0  0  0  0
    3.8208    4.2120    0.7116 O   0  0  0  0  0  0  0  0  0  0  0  0
    3.0268    6.4531    0.8424 C   0  0  2  0  0  0  0  0  0  0  0  0
    4.3876    7.0119    0.8463 N   0  0  0  0  0  0  0  0  0  0  0  0
    2.0905    7.3925    1.5933 C   0  0  0  0  0  0  0  0  0  0  0  0
    0.6877    6.7985    1.6288 C   0  0  2  0  0  0  0  0  0  0  0  0
   -0.2018    7.7467    2.3080 N   0  0  0  0  0  0  0  0  0  0  0  0
    0.7040    5.4237    2.3312 C   0  0  1  0  0  0  0  0  0  0  0  0
   -0.6588    4.9717    2.3211 O   0  0  0  0  0  0  0  0  0  0  0  0
   -0.9903    3.8894    3.1845 C   0  0  1  0  0  0  0  0  0  0  0  0
   -1.4968    4.3727    4.4257 O   0  0  0  0  0  0  0  0  0  0  0  0
   -2.7740    5.0055    4.3818 C   0  0  2  0  0  0  0  0  0  0  0  0
   -3.1544    5.4559    5.7986 C   0  0  0  0  0  0  0  0  0  0  0  0
   -3.0712    4.3593    6.7526 N   0  0  0  0  0  0  0  0  0  0  0  0
   -3.8443    4.0425    3.8353 C   0  0  1  0  0  0  0  0  0  0  0  0
   -5.0899    4.7112    3.7464 O   0  0  0  0  0  0  0  0  0  0  0  0
   -3.4103    3.5604    2.4454 C   0  0  2  0  0  0  0  0  0  0  0  0
   -4.3308    2.6051    1.9523 O   0  0  0  0  0  0  0  0  0  0  0  0
   -1.9980    2.9621    2.4958 C   0  0  1  0  0  0  0  0  0  0  0  0
   -1.5450    2.6218    1.1395 N   0  0  0  0  0  0  0  0  0  0  0  0
    3.2166    1.4412    2.6956 C   0  0  2  0  0  0  0  0  0  0  0  0
    4.3416    1.0900    1.9116 O   0  0  0  0  0  0  0  0  0  0  0  0
    2.4791    0.2309    3.2664 C   0  0  2  0  0  0  0  0  0  0  0  0
    3.3312   -0.8429    3.6127 O   0  0  0  0  0  0  0  0  0  0  0  0
  2  1  1  0  0  0  0
  3  2  1  1  0  0  0
  3 30  1  0  0  0  0
  4  5  1  0  0  0  0
  4  3  1  0  0  0  0
  5 28  1  0  0  0  0
  5  6  1  1  0  0  0
  7  6  1  1  0  0  0
  8  7  1  0  0  0  0
  8  9  1  6  0  0  0
 10 11  1  1  0  0  0
 10  8  1  0  0  0  0
 12 10  1  0  0  0  0
 13 12  1  0  0  0  0
 13 15  1  0  0  0  0
 13 14  1  1  0  0  0
 15  7  1  0  0  0  0
 15 16  1  6  0  0  0
 17 16  1  6  0  0  0
 18 17  1  0  0  0  0
 19 20  1  1  0  0  0
 19 18  1  0  0  0  0
 20 21  1  0  0  0  0
 22 24  1  0  0  0  0
 22 19  1  0  0  0  0
 22 23  1  6  0  0  0
 24 25  1  1  0  0  0
 24 26  1  0  0  0  0
 26 17  1  0  0  0  0
 26 27  1  6  0  0  0
 28 29  1  6  0  0  0
 28 30  1  0  0  0  0
 30 31  1  6  0  0  0
M  END
>  <CHROM.1>
174.75250940,65.49662205,-109.29317536,-80.65314551,-171.34343443,-176.58004700
172.72548693,74.12290383,94.36671761,-53.30066666,68.03257308,65.35286819
163.62883325,160.87431493,167.03937191,-178.92507115,0.19517114,3.50229279
2.57008167,0.28718450,-0.32785861,3.08089292

>  <Name>
lig.pdb

>  <RI>
3.33129e+07

>  <Rbt.Current_Directory>
/home/itssahil/PROJECTS/Mol_Feturizer/New_Systems/rnas/2n0j

>  <Rbt.Executable>
rbdock ($Id: //depot/dev/client3/rdock/2013.1/src/exe/rbdock.cxx#4 $)

>  <Rbt.Library>
libRbt.so (2013.1, Build901 2013/11/27)

>  <Rbt.Parameter_File>
/export/apps/rDock/src/rDock_2013.1_src/data/scripts/dock_solv.prm

>  <Rbt.Receptor>
prm/pocket_docking_4.prm

>  <SCORE>
-38.8996

>  <SCORE.INTER>
-35.0112

>  <SCORE.INTER.CONST>
1

>  <SCORE.INTER.POLAR>
-3.86816

>  <SCORE.INTER.ROT>
6

>  <SCORE.INTER.SOLV>
16.3114

>  <SCORE.INTER.VDW>
-23.4841

>  <SCORE.INTER.norm>
-1.12939

>  <SCORE.INTRA>
-3.88837

>  <SCORE.INTRA.DIHEDRAL>
-9.73605

>  <SCORE.INTRA.DIHEDRAL.0>
28.0161

>  <SCORE.INTRA.POLAR>
0.0816603

>  <SCORE.INTRA.POLAR.0>
-1.05798

>  <SCORE.INTRA.REPUL>
0

>  <SCORE.INTRA.REPUL.0>
0

>  <SCORE.INTRA.SOLV>
0.383771

>  <SCORE.INTRA.SOLV.lig_0>
-42.5945

>  <SCORE.INTRA.VDW>
0.51012

>  <SCORE.INTRA.VDW.0>
-5.13869

>  <SCORE.INTRA.norm>
-0.125431

>  <SCORE.RESTR>
0

>  <SCORE.RESTR.CAVITY>
0

>  <SCORE.RESTR.norm>
0

>  <SCORE.SYSTEM>
0

>  <SCORE.SYSTEM.CONST>
0

>  <SCORE.SYSTEM.DIHEDRAL>
0

>  <SCORE.SYSTEM.SOLV>
0

>  <SCORE.SYSTEM.norm>
0

>  <SCORE.heavy>
31

>  <SCORE.norm>
-1.25483

>  <RMSD>
6.959

$$$$
lig.pdb
 OpenBabel11021811453D
libRbt.so/2013.1/901 2013/11/27
 31 33  0  0  0  0  0  0  0  0999 V2000
   -0.4896   -1.6301    0.5966 O   0  0  0  0  0  0  0  0  0  0  0  0
   -0.5123   -0.2222    0.7289 C   0  0  0  0  0  0  0  0  0  0  0  0
    0.8560    0.3230    1.1596 C   0  0  1  0  0  0  0  0  0  0  0  0
    0.8929    1.7410    1.1272 O   0  0  0  0  0  0  0  0  0  0  0  0
    1.8671    2.2156    2.0516 C   0  0  1  0  0  0  0  0  0  0  0  0
    1.3133    3.2605    2.8424 O   0  0  0  0  0  0  0  0  0  0  0  0
    0.9630    4.4619    2.1740 C   0  0  2  0  0  0  0  0  0  0  0  0
    2.1436    5.4361    2.3137 C   0  0  1  0  0  0  0  0  0  0  0  0
    3.2407    4.9712    1.5433 O   0  0  0  0  0  0  0  0  0  0  0  0
    1.8330    6.8672    1.8496 C   0  0  2  0  0  0  0  0  0  0  0  0
    2.9722    7.7632    2.1018 N   0  0  0  0  0  0  0  0  0  0  0  0
    0.6040    7.3904    2.5837 C   0  0  0  0  0  0  0  0  0  0  0  0
   -0.5688    6.4434    2.3604 C   0  0  2  0  0  0  0  0  0  0  0  0
   -1.7492    6.9989    3.0311 N   0  0  0  0  0  0  0  0  0  0  0  0
   -0.2255    5.0309    2.8805 C   0  0  1  0  0  0  0  0  0  0  0  0
   -1.3964    4.2368    2.6355 O   0  0  0  0  0  0  0  0  0  0  0  0
   -1.5630    3.0646    3.4258 C   0  0  1  0  0  0  0  0  0  0  0  0
   -1.6706    3.3997    4.8067 O   0  0  0  0  0  0  0  0  0  0  0  0
   -2.8570    4.0874    5.1979 C   0  0  2  0  0  0  0  0  0  0  0  0
   -2.7982    4.3611    6.7066 C   0  0  0  0  0  0  0  0  0  0  0  0
   -1.7017    5.2556    7.0492 N   0  0  0  0  0  0  0  0  0  0  0  0
   -4.1084    3.2531    4.8672 C   0  0  1  0  0  0  0  0  0  0  0  0
   -5.2741    3.9809    5.2107 O   0  0  0  0  0  0  0  0  0  0  0  0
   -4.1110    2.9421    3.3652 C   0  0  2  0  0  0  0  0  0  0  0  0
   -5.2035    2.1017    3.0441 O   0  0  0  0  0  0  0  0  0  0  0  0
   -2.7905    2.2818    2.9462 C   0  0  1  0  0  0  0  0  0  0  0  0
   -2.7545    2.1059    1.4874 N   0  0  0  0  0  0  0  0  0  0  0  0
    2.2383    1.0301    2.9543 C   0  0  2  0  0  0  0  0  0  0  0  0
    3.5495    0.5898    2.6537 O   0  0  0  0  0  0  0  0  0  0  0  0
    1.1642   -0.0030    2.6175 C   0  0  2  0  0  0  0  0  0  0  0  0
    1.5751   -1.3396    2.8273 O   0  0  0  0  0  0  0  0  0  0  0  0
  2  1  1  0  0  0  0
  3  2  1  1  0  0  0
  3 30  1  0  0  0  0
  4  5  1  0  0  0  0
  4  3  1  0  0  0  0
  5 28  1  0  0  0  0
  5  6  1  1  0  0  0
  7  6  1  1  0  0  0
  8  7  1  0  0  0  0
  8  9  1  6  0  0  0
 10 11  1  1  0  0  0
 10  8  1  0  0  0  0
 12 10  1  0  0  0  0
 13 12  1  0  0  0  0
 13 15  1  0  0  0  0
 13 14  1  1  0  0  0
 15  7  1  0  0  0  0
 15 16  1  6  0  0  0
 17 16  1  6  0  0  0
 18 17  1  0  0  0  0
 19 20  1  1  0  0  0
 19 18  1  0  0  0  0
 20 21  1  0  0  0  0
 22 24  1  0  0  0  0
 22 19  1  0  0  0  0
 22 23  1  6  0  0  0
 24 25  1  1  0  0  0
 24 26  1  0  0  0  0
 26 17  1  0  0  0  0
 26 27  1  6  0  0  0
 28 29  1  6  0  0  0
 28 30  1  0  0  0  0
 30 31  1  6  0  0  0
M  END
>  <CHROM.1>
60.95275140,172.37694937,-65.49521687,-95.29765870,70.64536502,-59.18127861
96.44190007,81.63867135,61.68447873,63.99071277,64.32202570,54.96681619,61.20132197
-75.65966082,-61.14116937,63.91686642,-0.47410669,3.28868264,2.93776804,0.65361587
-0.38250659,-2.92588185

>  <Name>
lig.pdb

>  <RI>
0

>  <Rbt.Current_Directory>
/home/itssahil/PROJECTS/Mol_Feturizer/New_Systems/rnas/2n0j

>  <Rbt.Executable>
rbdock ($Id: //depot/dev/client3/rdock/2013.1/src/exe/rbdock.cxx#4 $)

>  <Rbt.Library>
libRbt.so (2013.1, Build901 2013/11/27)

>  <Rbt.Parameter_File>
/export/apps/rDock/src/rDock_2013.1_src/data/scripts/dock_solv.prm

>  <Rbt.Receptor>
prm/pocket_docking_8.prm

>  <SCORE>
-47.8738

>  <SCORE.INTER>
-44.0018

>  <SCORE.INTER.CONST>
1

>  <SCORE.INTER.POLAR>
-5.62717

>  <SCORE.INTER.ROT>
6

>  <SCORE.INTER.SOLV>
15.9228

>  <SCORE.INTER.VDW>
-23.4849

>  <SCORE.INTER.norm>
-1.41941

>  <SCORE.INTRA>
-3.87477

>  <SCORE.INTRA.DIHEDRAL>
-16.8001

>  <SCORE.INTRA.DIHEDRAL.0>
28.0161

>  <SCORE.INTRA.POLAR>
0.942512

>  <SCORE.INTRA.POLAR.0>
-1.05798

>  <SCORE.INTRA.REPUL>
0

>  <SCORE.INTRA.REPUL.0>
0

>  <SCORE.INTRA.SOLV>
-0.017608

>  <SCORE.INTRA.SOLV.lig_0>
-42.5945

>  <SCORE.INTRA.VDW>
1.32956

>  <SCORE.INTRA.VDW.0>
-5.13869

>  <SCORE.INTRA.norm>
-0.124993

>  <SCORE.RESTR>
0.00276754

>  <SCORE.RESTR.CAVITY>
0.00276754

>  <SCORE.RESTR.norm>
8.92754e-05

>  <SCORE.SYSTEM>
0

>  <SCORE.SYSTEM.CONST>
0

>  <SCORE.SYSTEM.DIHEDRAL>
0

>  <SCORE.SYSTEM.SOLV>
0

>  <SCORE.SYSTEM.norm>
0

>  <SCORE.heavy>
31

>  <SCORE.norm>
-1.54432

>  <RMSD>
6.961

$$$$
lig.pdb
 OpenBabel11021811453D
libRbt.so/2013.1/901 2013/11/27
 31 33  0  0  0  0  0  0  0  0999 V2000
   -3.9242   -1.9649   -1.2593 O   0  0  0  0  0  0  0  0  0  0  0  0
   -3.2572   -0.7708   -0.8994 C   0  0  0  0  0  0  0  0  0  0  0  0
   -2.0102   -1.0582   -0.0523 C   0  0  1  0  0  0  0  0  0  0  0  0
   -1.3308    0.1342    0.3077 O   0  0  0  0  0  0  0  0  0  0  0  0
   -0.6025   -0.0755    1.5137 C   0  0  1  0  0  0  0  0  0  0  0  0
   -0.8476    0.9952    2.4179 O   0  0  0  0  0  0  0  0  0  0  0  0
    0.2322    1.8754    2.6866 C   0  0  2  0  0  0  0  0  0  0  0  0
    0.1353    3.0494    1.6994 C   0  0  1  0  0  0  0  0  0  0  0  0
   -0.9925    3.8496    2.0175 O   0  0  0  0  0  0  0  0  0  0  0  0
    1.3643    3.9710    1.6996 C   0  0  2  0  0  0  0  0  0  0  0  0
    1.2445    5.0114    0.6665 N   0  0  0  0  0  0  0  0  0  0  0  0
    2.6231    3.1493    1.4483 C   0  0  0  0  0  0  0  0  0  0  0  0
    2.7304    2.0432    2.4909 C   0  0  2  0  0  0  0  0  0  0  0  0
    3.9762    1.3044    2.2587 N   0  0  0  0  0  0  0  0  0  0  0  0
    1.4951    1.1195    2.4236 C   0  0  1  0  0  0  0  0  0  0  0  0
    1.7109    0.1164    3.4279 O   0  0  0  0  0  0  0  0  0  0  0  0
    1.5345    0.5079    4.7851 C   0  0  1  0  0  0  0  0  0  0  0  0
    0.1654    0.4016    5.1657 O   0  0  0  0  0  0  0  0  0  0  0  0
   -0.3626   -0.9199    5.2577 C   0  0  2  0  0  0  0  0  0  0  0  0
   -1.8362   -0.8382    5.6775 C   0  0  0  0  0  0  0  0  0  0  0  0
   -2.6849   -0.3959    4.5803 N   0  0  0  0  0  0  0  0  0  0  0  0
    0.4267   -1.7551    6.2829 C   0  0  1  0  0  0  0  0  0  0  0  0
   -0.0784   -3.0782    6.3135 O   0  0  0  0  0  0  0  0  0  0  0  0
    1.9048   -1.7700    5.8737 C   0  0  2  0  0  0  0  0  0  0  0  0
    2.6717   -2.4571    6.8446 O   0  0  0  0  0  0  0  0  0  0  0  0
    2.4317   -0.3399    5.6939 C   0  0  1  0  0  0  0  0  0  0  0  0
    3.8083   -0.3699    5.1794 N   0  0  0  0  0  0  0  0  0  0  0  0
   -1.1169   -1.3886    2.1213 C   0  0  2  0  0  0  0  0  0  0  0  0
   -0.1262   -2.3927    2.0039 O   0  0  0  0  0  0  0  0  0  0  0  0
   -2.3687   -1.6784    1.2944 C   0  0  2  0  0  0  0  0  0  0  0  0
   -2.6954   -3.0519    1.2197 O   0  0  0  0  0  0  0  0  0  0  0  0
  2  1  1  0  0  0  0
  3  2  1  6  0  0  0
  3 30  1  0  0  0  0
  4  5  1  0  0  0  0
  4  3  1  0  0  0  0
  5 28  1  0  0  0  0
  5  6  1  1  0  0  0
  7  6  1  6  0  0  0
  8  7  1  0  0  0  0
  8  9  1  1  0  0  0
 10 11  1  6  0  0  0
 10  8  1  0  0  0  0
 12 10  1  0  0  0  0
 13 12  1  0  0  0  0
 13 15  1  0  0  0  0
 13 14  1  6  0  0  0
 15  7  1  0  0  0  0
 15 16  1  1  0  0  0
 17 16  1  6  0  0  0
 18 17  1  0  0  0  0
 19 20  1  1  0  0  0
 19 18  1  0  0  0  0
 20 21  1  0  0  0  0
 22 24  1  0  0  0  0
 22 19  1  0  0  0  0
 22 23  1  6  0  0  0
 24 25  1  1  0  0  0
 24 26  1  0  0  0  0
 26 17  1  0  0  0  0
 26 27  1  6  0  0  0
 28 29  1  6  0  0  0
 28 30  1  0  0  0  0
 30 31  1  6  0  0  0
M  END
>  <CHROM.1>
49.20384740,179.70191425,-111.25035094,92.61675428,64.97407404,-27.28042008
91.47927512,-46.29411135,85.41032685,74.55508769,94.01586979,-164.08801567
48.58829571,-122.14688234,-43.95068013,92.68041030,0.12810469,0.07202570
2.93502368,2.50691502,-0.68773009,-0.75513738

>  <Name>
lig.pdb

>  <RI>
0

>  <Rbt.Current_Directory>
/home/itssahil/PROJECTS/Mol_Feturizer/New_Systems/rnas/2n0j

>  <Rbt.Executable>
rbdock ($Id: //depot/dev/client3/rdock/2013.1/src/exe/rbdock.cxx#4 $)

>  <Rbt.Library>
libRbt.so (2013.1, Build901 2013/11/27)

>  <Rbt.Parameter_File>
/export/apps/rDock/src/rDock_2013.1_src/data/scripts/dock_solv.prm

>  <Rbt.Receptor>
prm/blind_docking_40.prm

>  <SCORE>
2.47358

>  <SCORE.INTER>
-10.7976

>  <SCORE.INTER.CONST>
1

>  <SCORE.INTER.POLAR>
-2.96466

>  <SCORE.INTER.ROT>
6

>  <SCORE.INTER.SOLV>
21.8791

>  <SCORE.INTER.VDW>
-12.2092

>  <SCORE.INTER.norm>
-0.348309

>  <SCORE.INTRA>
9.4812

>  <SCORE.INTRA.DIHEDRAL>
4.95642

>  <SCORE.INTRA.DIHEDRAL.0>
28.0161

>  <SCORE.INTRA.POLAR>
-0.47903

>  <SCORE.INTRA.POLAR.0>
-1.05798

>  <SCORE.INTRA.REPUL>
0

>  <SCORE.INTRA.REPUL.0>
0

>  <SCORE.INTRA.SOLV>
1.75278

>  <SCORE.INTRA.SOLV.lig_0>
-42.5945

>  <SCORE.INTRA.VDW>
7.7553

>  <SCORE.INTRA.VDW.0>
-5.13869

>  <SCORE.INTRA.norm>
0.305845

>  <SCORE.RESTR>
3.78995

>  <SCORE.RESTR.CAVITY>
3.78995

>  <SCORE.RESTR.norm>
0.122256

>  <SCORE.SYSTEM>
0

>  <SCORE.SYSTEM.CONST>
0

>  <SCORE.SYSTEM.DIHEDRAL>
0

>  <SCORE.SYSTEM.SOLV>
0

>  <SCORE.SYSTEM.norm>
0

>  <SCORE.heavy>
31

>  <SCORE.norm>
0.0797928

>  <RMSD>
6.965

$$$$
lig.pdb
 OpenBabel11021811453D
libRbt.so/2013.1/901 2013/11/27
 31 33  0  0  0  0  0  0  0  0999 V2000
   -0.8157   -1.1612    1.9298 O   0  0  0  0  0  0  0  0  0  0  0  0
    0.2305   -1.0220    2.8712 C   0  0  0  0  0  0  0  0  0  0  0  0
    1.3391   -0.0999    2.3458 C   0  0  1  0  0  0  0  0  0  0  0  0
    0.8239    1.1464    1.9051 O   0  0  0  0  0  0  0  0  0  0  0  0
    1.8357    2.1441    2.0033 C   0  0  1  0  0  0  0  0  0  0  0  0
    1.3103    3.3035    2.6387 O   0  0  0  0  0  0  0  0  0  0  0  0
    1.0284    4.4224    1.8132 C   0  0  2  0  0  0  0  0  0  0  0  0
    2.3248    5.2351    1.6685 C   0  0  1  0  0  0  0  0  0  0  0  0
    3.2589    4.5097    0.8845 O   0  0  0  0  0  0  0  0  0  0  0  0
    2.1339    6.6052    1.0003 C   0  0  2  0  0  0  0  0  0  0  0  0
    3.3936    7.3647    0.9833 N   0  0  0  0  0  0  0  0  0  0  0  0
    1.0724    7.4001    1.7516 C   0  0  0  0  0  0  0  0  0  0  0  0
   -0.2230    6.5998    1.8089 C   0  0  2  0  0  0  0  0  0  0  0  0
   -1.2403    7.4097    2.4879 N   0  0  0  0  0  0  0  0  0  0  0  0
    0.0091    5.2522    2.5257 C   0  0  1  0  0  0  0  0  0  0  0  0
   -1.2689    4.5979    2.5355 O   0  0  0  0  0  0  0  0  0  0  0  0
   -1.4448    3.5305    3.4609 C   0  0  1  0  0  0  0  0  0  0  0  0
   -1.8709    4.0271    4.7268 O   0  0  0  0  0  0  0  0  0  0  0  0
   -3.1881    4.5707    4.7799 C   0  0  2  0  0  0  0  0  0  0  0  0
   -3.4708    5.0498    6.2100 C   0  0  0  0  0  0  0  0  0  0  0  0
   -3.4256    6.5016    6.3102 N   0  0  0  0  0  0  0  0  0  0  0  0
   -4.2327    3.5173    4.3663 C   0  0  1  0  0  0  0  0  0  0  0  0
   -5.5252    4.0970    4.3704 O   0  0  0  0  0  0  0  0  0  0  0  0
   -3.8921    3.0112    2.9591 C   0  0  2  0  0  0  0  0  0  0  0  0
   -4.7835    1.9777    2.5846 O   0  0  0  0  0  0  0  0  0  0  0  0
   -2.4424    2.5114    2.8990 C   0  0  1  0  0  0  0  0  0  0  0  0
   -2.0899    2.1493    1.5187 N   0  0  0  0  0  0  0  0  0  0  0  0
    2.9615    1.5525    2.8639 C   0  0  2  0  0  0  0  0  0  0  0  0
    4.0908    1.2792    2.0555 O   0  0  0  0  0  0  0  0  0  0  0  0
    2.3191    0.2945    3.4462 C   0  0  2  0  0  0  0  0  0  0  0  0
    3.2485   -0.7202    3.7713 O   0  0  0  0  0  0  0  0  0  0  0  0
  2  1  1  0  0  0  0
  3  2  1  1  0  0  0
  3 30  1  0  0  0  0
  4  5  1  0  0  0  0
  4  3  1  0  0  0  0
  5 28  1  0  0  0  0
  5  6  1  1  0  0  0
  7  6  1  1  0  0  0
  8  7  1  0  0  0  0
  8  9  1  6  0  0  0
 10 11  1  1  0  0  0
 10  8  1  0  0  0  0
 12 10  1  0  0  0  0
 13 12  1  0  0  0  0
 13 15  1  0  0  0  0
 13 14  1  1  0  0  0
 15  7  1  0  0  0  0
 15 16  1  6  0  0  0
 17 16  1  6  0  0  0
 18 17  1  0  0  0  0
 19 20  1  1  0  0  0
 19 18  1  0  0  0  0
 20 21  1  0  0  0  0
 22 24  1  0  0  0  0
 22 19  1  0  0  0  0
 22 23  1  6  0  0  0
 24 25  1  1  0  0  0
 24 26  1  0  0  0  0
 26 17  1  0  0  0  0
 26 27  1  6  0  0  0
 28 29  1  6  0  0  0
 28 30  1  0  0  0  0
 30 31  1  6  0  0  0
M  END
>  <CHROM.1>
-67.00651078,52.59872414,-104.98398788,-85.84584245,-168.96491645,-175.11994427
-79.91515289,77.14090242,86.71435092,105.45053086,64.21095206,42.60240403
-61.90621429,46.96244843,173.03595117,46.05664628,-0.28297996,3.44748822
2.81785736,0.36402806,-0.34470390,3.09008680

>  <Name>
lig.pdb

>  <RI>
3.33129e+07

>  <Rbt.Current_Directory>
/home/itssahil/PROJECTS/Mol_Feturizer/New_Systems/rnas/2n0j

>  <Rbt.Executable>
rbdock ($Id: //depot/dev/client3/rdock/2013.1/src/exe/rbdock.cxx#4 $)

>  <Rbt.Library>
libRbt.so (2013.1, Build901 2013/11/27)

>  <Rbt.Parameter_File>
/export/apps/rDock/src/rDock_2013.1_src/data/scripts/dock_solv.prm

>  <Rbt.Receptor>
prm/pocket_docking_4.prm

>  <SCORE>
-51.6615

>  <SCORE.INTER>
-50.0971

>  <SCORE.INTER.CONST>
1

>  <SCORE.INTER.POLAR>
-6.49284

>  <SCORE.INTER.ROT>
6

>  <SCORE.INTER.SOLV>
16.0643

>  <SCORE.INTER.VDW>
-24.7101

>  <SCORE.INTER.norm>
-1.61604

>  <SCORE.INTRA>
-1.56432

>  <SCORE.INTRA.DIHEDRAL>
-4.91558

>  <SCORE.INTRA.DIHEDRAL.0>
28.0161

>  <SCORE.INTRA.POLAR>
0.057985

>  <SCORE.INTRA.POLAR.0>
-1.05798

>  <SCORE.INTRA.REPUL>
0

>  <SCORE.INTRA.REPUL.0>
0

>  <SCORE.INTRA.SOLV>
0.351642

>  <SCORE.INTRA.SOLV.lig_0>
-42.5945

>  <SCORE.INTRA.VDW>
0.520497

>  <SCORE.INTRA.VDW.0>
-5.13869

>  <SCORE.INTRA.norm>
-0.0504621

>  <SCORE.RESTR>
0

>  <SCORE.RESTR.CAVITY>
0

>  <SCORE.RESTR.norm>
0

>  <SCORE.SYSTEM>
0

>  <SCORE.SYSTEM.CONST>
0

>  <SCORE.SYSTEM.DIHEDRAL>
0

>  <SCORE.SYSTEM.SOLV>
0

>  <SCORE.SYSTEM.norm>
0

>  <SCORE.heavy>
31

>  <SCORE.norm>
-1.6665

>  <RMSD>
6.966

$$$$
lig.pdb
 OpenBabel11021811453D
libRbt.so/2013.1/901 2013/11/27
 31 33  0  0  0  0  0  0  0  0999 V2000
   -1.6270    5.3689    1.9307 O   0  0  0  0  0  0  0  0  0  0  0  0
   -1.4624    4.0035    1.6010 C   0  0  0  0  0  0  0  0  0  0  0  0
    0.0084    3.5764    1.6974 C   0  0  1  0  0  0  0  0  0  0  0  0
    0.3761    3.2472    3.0276 O   0  0  0  0  0  0  0  0  0  0  0  0
    1.4628    2.3267    3.0099 C   0  0  1  0  0  0  0  0  0  0  0  0
    1.1948    1.2463    3.8958 O   0  0  0  0  0  0  0  0  0  0  0  0
    2.2746    0.7738    4.6855 C   0  0  2  0  0  0  0  0  0  0  0  0
    3.3776    0.2926    3.7295 C   0  0  1  0  0  0  0  0  0  0  0  0
    3.9543    1.4063    3.0657 O   0  0  0  0  0  0  0  0  0  0  0  0
    4.5188   -0.4678    4.4220 C   0  0  2  0  0  0  0  0  0  0  0  0
    5.4850   -0.9806    3.4383 N   0  0  0  0  0  0  0  0  0  0  0  0
    3.9484   -1.6301    5.2262 C   0  0  0  0  0  0  0  0  0  0  0  0
    2.9156   -1.1096    6.2184 C   0  0  2  0  0  0  0  0  0  0  0  0
    2.4246   -2.2396    7.0144 N   0  0  0  0  0  0  0  0  0  0  0  0
    1.7693   -0.3918    5.4738 C   0  0  1  0  0  0  0  0  0  0  0  0
    0.8572    0.0374    6.4964 O   0  0  0  0  0  0  0  0  0  0  0  0
   -0.4880    0.2872    6.1034 C   0  0  1  0  0  0  0  0  0  0  0  0
   -0.6464    0.0951    4.7003 O   0  0  0  0  0  0  0  0  0  0  0  0
   -0.5362   -1.2472    4.2314 C   0  0  2  0  0  0  0  0  0  0  0  0
   -0.7347   -1.2600    2.7099 C   0  0  0  0  0  0  0  0  0  0  0  0
    0.2715   -2.0736    2.0426 N   0  0  0  0  0  0  0  0  0  0  0  0
   -1.5878   -2.1501    4.9026 C   0  0  1  0  0  0  0  0  0  0  0  0
   -1.4203   -3.4871    4.4655 O   0  0  0  0  0  0  0  0  0  0  0  0
   -1.4065   -2.0717    6.4236 C   0  0  2  0  0  0  0  0  0  0  0  0
   -2.4147   -2.8229    7.0733 O   0  0  0  0  0  0  0  0  0  0  0  0
   -1.4400   -0.6130    6.8990 C   0  0  1  0  0  0  0  0  0  0  0  0
   -1.1385   -0.5430    8.3359 N   0  0  0  0  0  0  0  0  0  0  0  0
    1.5734    1.7969    1.5728 C   0  0  2  0  0  0  0  0  0  0  0  0
    2.7346    2.3209    0.9558 O   0  0  0  0  0  0  0  0  0  0  0  0
    0.2769    2.2861    0.9294 C   0  0  2  0  0  0  0  0  0  0  0  0
    0.3689    2.4653   -0.4701 O   0  0  0  0  0  0  0  0  0  0  0  0
  2  1  1  0  0  0  0
  3  2  1  1  0  0  0
  3 30  1  0  0  0  0
  4  5  1  0  0  0  0
  4  3  1  0  0  0  0
  5 28  1  0  0  0  0
  5  6  1  1  0  0  0
  7  6  1  6  0  0  0
  8  7  1  0  0  0  0
  8  9  1  1  0  0  0
 10 11  1  6  0  0  0
 10  8  1  0  0  0  0
 12 10  1  0  0  0  0
 13 12  1  0  0  0  0
 13 15  1  0  0  0  0
 13 14  1  6  0  0  0
 15  7  1  0  0  0  0
 15 16  1  1  0  0  0
 17 16  1  1  0  0  0
 18 17  1  0  0  0  0
 19 20  1  6  0  0  0
 19 18  1  0  0  0  0
 20 21  1  0  0  0  0
 22 24  1  0  0  0  0
 22 19  1  0  0  0  0
 22 23  1  6  0  0  0
 24 25  1  1  0  0  0
 24 26  1  0  0  0  0
 26 17  1  0  0  0  0
 26 27  1  1  0  0  0
 28 29  1  6  0  0  0
 28 30  1  0  0  0  0
 30 31  1  6  0  0  0
M  END
>  <CHROM.1>
-50.23105746,83.32811655,-139.25847510,-60.01786448,-170.02684327,47.45812148
152.36269955,81.28943857,-2.12457209,133.97028142,54.38409542,72.77108590
-46.99790498,173.18178884,-49.32860712,178.29001469,0.80292031,0.26280576
4.04187439,1.44171458,0.14775949,-0.77029608

>  <Name>
lig.pdb

>  <RI>
9.20816e+06

>  <Rbt.Current_Directory>
/home/itssahil/PROJECTS/Mol_Feturizer/New_Systems/rnas/2n0j

>  <Rbt.Executable>
rbdock ($Id: //depot/dev/client3/rdock/2013.1/src/exe/rbdock.cxx#4 $)

>  <Rbt.Library>
libRbt.so (2013.1, Build901 2013/11/27)

>  <Rbt.Parameter_File>
/export/apps/rDock/src/rDock_2013.1_src/data/scripts/dock_solv.prm

>  <Rbt.Receptor>
prm/blind_docking_100.prm

>  <SCORE>
79.8648

>  <SCORE.INTER>
67.2452

>  <SCORE.INTER.CONST>
1

>  <SCORE.INTER.POLAR>
-4.94136

>  <SCORE.INTER.ROT>
6

>  <SCORE.INTER.SOLV>
33.174

>  <SCORE.INTER.VDW>
42.6433

>  <SCORE.INTER.norm>
2.1692

>  <SCORE.INTRA>
10.5634

>  <SCORE.INTRA.DIHEDRAL>
-1.48197

>  <SCORE.INTRA.DIHEDRAL.0>
28.0161

>  <SCORE.INTRA.POLAR>
1.05798

>  <SCORE.INTRA.POLAR.0>
-1.05798

>  <SCORE.INTRA.REPUL>
0.0216807

>  <SCORE.INTRA.REPUL.0>
0

>  <SCORE.INTRA.SOLV>
1.45817

>  <SCORE.INTRA.SOLV.lig_0>
-42.5945

>  <SCORE.INTRA.VDW>
6.86979

>  <SCORE.INTRA.VDW.0>
-5.13869

>  <SCORE.INTRA.norm>
0.340756

>  <SCORE.RESTR>
2.05612

>  <SCORE.RESTR.CAVITY>
2.05612

>  <SCORE.RESTR.norm>
0.0663266

>  <SCORE.SYSTEM>
0

>  <SCORE.SYSTEM.CONST>
0

>  <SCORE.SYSTEM.DIHEDRAL>
0

>  <SCORE.SYSTEM.SOLV>
0

>  <SCORE.SYSTEM.norm>
0

>  <SCORE.heavy>
31

>  <SCORE.norm>
2.57628

>  <RMSD>
6.969

$$$$
lig.pdb
 OpenBabel11021811453D
libRbt.so/2013.1/901 2013/11/27
 31 33  0  0  0  0  0  0  0  0999 V2000
    3.5607    7.8616    1.3135 O   0  0  0  0  0  0  0  0  0  0  0  0
    2.4009    7.7044    2.1075 C   0  0  0  0  0  0  0  0  0  0  0  0
    2.1091    6.2240    2.3876 C   0  0  1  0  0  0  0  0  0  0  0  0
    0.7696    6.0208    2.8089 O   0  0  0  0  0  0  0  0  0  0  0  0
    0.3615    4.6955    2.4838 C   0  0  1  0  0  0  0  0  0  0  0  0
   -0.9131    4.7242    1.8526 O   0  0  0  0  0  0  0  0  0  0  0  0
   -2.0471    4.8789    2.6910 C   0  0  2  0  0  0  0  0  0  0  0  0
   -1.9171    6.2319    3.4085 C   0  0  1  0  0  0  0  0  0  0  0  0
   -2.0865    7.2865    2.4745 O   0  0  0  0  0  0  0  0  0  0  0  0
   -2.9433    6.4466    4.5314 C   0  0  2  0  0  0  0  0  0  0  0  0
   -2.6986    7.7151    5.2351 N   0  0  0  0  0  0  0  0  0  0  0  0
   -2.8678    5.2928    5.5244 C   0  0  0  0  0  0  0  0  0  0  0  0
   -3.0788    3.9724    4.7938 C   0  0  2  0  0  0  0  0  0  0  0  0
   -3.0557    2.8865    5.7797 N   0  0  0  0  0  0  0  0  0  0  0  0
   -2.0001    3.7819    3.7058 C   0  0  1  0  0  0  0  0  0  0  0  0
   -2.2855    2.5113    3.1010 O   0  0  0  0  0  0  0  0  0  0  0  0
   -1.1870    1.6303    2.8919 C   0  0  1  0  0  0  0  0  0  0  0  0
   -1.1499    0.6241    3.9002 O   0  0  0  0  0  0  0  0  0  0  0  0
   -2.2009   -0.3392    3.8686 C   0  0  2  0  0  0  0  0  0  0  0  0
   -1.9967   -1.3355    5.0176 C   0  0  0  0  0  0  0  0  0  0  0  0
   -0.5977   -1.7124    5.1611 N   0  0  0  0  0  0  0  0  0  0  0  0
   -2.2163   -1.0894    2.5237 C   0  0  1  0  0  0  0  0  0  0  0  0
   -3.3030   -1.9976    2.4942 O   0  0  0  0  0  0  0  0  0  0  0  0
   -2.3600   -0.0665    1.3900 C   0  0  2  0  0  0  0  0  0  0  0  0
   -2.2894   -0.7174    0.1353 O   0  0  0  0  0  0  0  0  0  0  0  0
   -1.2729    1.0119    1.4919 C   0  0  1  0  0  0  0  0  0  0  0  0
   -1.4980    2.0532    0.4792 N   0  0  0  0  0  0  0  0  0  0  0  0
    1.4057    4.1357    1.5068 C   0  0  2  0  0  0  0  0  0  0  0  0
    2.1817    3.1423    2.1507 O   0  0  0  0  0  0  0  0  0  0  0  0
    2.2123    5.3756    1.1241 C   0  0  2  0  0  0  0  0  0  0  0  0
    3.5420    5.0916    0.7362 O   0  0  0  0  0  0  0  0  0  0  0  0
  2  1  1  0  0  0  0
  3  2  1  6  0  0  0
  3 30  1  0  0  0  0
  4  5  1  0  0  0  0
  4  3  1  0  0  0  0
  5 28  1  0  0  0  0
  5  6  1  6  0  0  0
  7  6  1  6  0  0  0
  8  7  1  0  0  0  0
  8  9  1  6  0  0  0
 10 11  1  1  0  0  0
 10  8  1  0  0  0  0
 12 10  1  0  0  0  0
 13 12  1  0  0  0  0
 13 15  1  0  0  0  0
 13 14  1  1  0  0  0
 15  7  1  0  0  0  0
 15 16  1  6  0  0  0
 17 16  1  1  0  0  0
 18 17  1  0  0  0  0
 19 20  1  1  0  0  0
 19 18  1  0  0  0  0
 20 21  1  0  0  0  0
 22 24  1  0  0  0  0
 22 19  1  0  0  0  0
 22 23  1  1  0  0  0
 24 25  1  6  0  0  0
 24 26  1  0  0  0  0
 26 17  1  0  0  0  0
 26 27  1  6  0  0  0
 28 29  1  1  0  0  0
 28 30  1  0  0  0  0
 30 31  1  1  0  0  0
M  END
>  <CHROM.1>
80.39756510,-161.81878367,-78.83280134,61.54136062,-58.51011363,-85.87408869
69.08984151,105.04701987,101.11737268,-41.80698677,154.30048394,56.90881201
177.10796242,36.10041809,61.10371576,-47.66143653,-0.86110322,3.34899793
2.85655978,-1.04640547,-0.61579639,-2.93074841

>  <Name>
lig.pdb

>  <RI>
0

>  <Rbt.Current_Directory>
/home/itssahil/PROJECTS/Mol_Feturizer/New_Systems/rnas/2n0j

>  <Rbt.Executable>
rbdock ($Id: //depot/dev/client3/rdock/2013.1/src/exe/rbdock.cxx#4 $)

>  <Rbt.Library>
libRbt.so (2013.1, Build901 2013/11/27)

>  <Rbt.Parameter_File>
/export/apps/rDock/src/rDock_2013.1_src/data/scripts/dock_solv.prm

>  <Rbt.Receptor>
prm/pocket_docking_5.prm

>  <SCORE>
-30.2361

>  <SCORE.INTER>
-29.315

>  <SCORE.INTER.CONST>
1

>  <SCORE.INTER.POLAR>
-3.0506

>  <SCORE.INTER.ROT>
6

>  <SCORE.INTER.SOLV>
13.3477

>  <SCORE.INTER.VDW>
-21.4239

>  <SCORE.INTER.norm>
-0.945646

>  <SCORE.INTRA>
-0.921052

>  <SCORE.INTRA.DIHEDRAL>
-5.19979

>  <SCORE.INTRA.DIHEDRAL.0>
28.0161

>  <SCORE.INTRA.POLAR>
-0.324195

>  <SCORE.INTRA.POLAR.0>
-1.05798

>  <SCORE.INTRA.REPUL>
0

>  <SCORE.INTRA.REPUL.0>
0

>  <SCORE.INTRA.SOLV>
0.979393

>  <SCORE.INTRA.SOLV.lig_0>
-42.5945

>  <SCORE.INTRA.VDW>
2.29141

>  <SCORE.INTRA.VDW.0>
-5.13869

>  <SCORE.INTRA.norm>
-0.0297114

>  <SCORE.RESTR>
0

>  <SCORE.RESTR.CAVITY>
0

>  <SCORE.RESTR.norm>
0

>  <SCORE.SYSTEM>
0

>  <SCORE.SYSTEM.CONST>
0

>  <SCORE.SYSTEM.DIHEDRAL>
0

>  <SCORE.SYSTEM.SOLV>
0

>  <SCORE.SYSTEM.norm>
0

>  <SCORE.heavy>
31

>  <SCORE.norm>
-0.975357

>  <RMSD>
6.971

$$$$
lig.pdb
 OpenBabel11021811453D
libRbt.so/2013.1/901 2013/11/27
 31 33  0  0  0  0  0  0  0  0999 V2000
   -3.6094    1.0424   -1.9396 O   0  0  0  0  0  0  0  0  0  0  0  0
   -3.7312   -0.1082   -1.1263 C   0  0  0  0  0  0  0  0  0  0  0  0
   -2.3854   -0.4975   -0.4998 C   0  0  1  0  0  0  0  0  0  0  0  0
   -1.7131    0.6262    0.0463 O   0  0  0  0  0  0  0  0  0  0  0  0
   -0.8438    0.2021    1.0920 C   0  0  1  0  0  0  0  0  0  0  0  0
   -1.0222    1.0314    2.2340 O   0  0  0  0  0  0  0  0  0  0  0  0
    0.0519    1.8891    2.5852 C   0  0  2  0  0  0  0  0  0  0  0  0
    0.0419    3.0752    1.6079 C   0  0  1  0  0  0  0  0  0  0  0  0
   -1.0908    3.8921    1.8591 O   0  0  0  0  0  0  0  0  0  0  0  0
    1.2838    3.9747    1.7017 C   0  0  2  0  0  0  0  0  0  0  0  0
    1.2517    5.0281    0.6754 N   0  0  0  0  0  0  0  0  0  0  0  0
    2.5424    3.1332    1.5257 C   0  0  0  0  0  0  0  0  0  0  0  0
    2.5602    2.0142    2.5598 C   0  0  2  0  0  0  0  0  0  0  0  0
    3.8059    1.2557    2.4029 N   0  0  0  0  0  0  0  0  0  0  0  0
    1.3165    1.1136    2.3985 C   0  0  1  0  0  0  0  0  0  0  0  0
    1.4470    0.0960    3.4030 O   0  0  0  0  0  0  0  0  0  0  0  0
    1.5619    0.5285    4.7544 C   0  0  1  0  0  0  0  0  0  0  0  0
    0.2738    0.6989    5.3395 O   0  0  0  0  0  0  0  0  0  0  0  0
   -0.4795   -0.4911    5.5630 C   0  0  2  0  0  0  0  0  0  0  0  0
   -1.8264   -0.1154    6.1949 C   0  0  0  0  0  0  0  0  0  0  0  0
   -2.2332   -1.0789    7.2078 N   0  0  0  0  0  0  0  0  0  0  0  0
    0.2818   -1.4554    6.4915 C   0  0  1  0  0  0  0  0  0  0  0  0
   -0.4592   -2.6522    6.6507 O   0  0  0  0  0  0  0  0  0  0  0  0
    1.6475   -1.7664    5.8666 C   0  0  2  0  0  0  0  0  0  0  0  0
    2.4075   -2.5818    6.7387 O   0  0  0  0  0  0  0  0  0  0  0  0
    2.4074   -0.4707    5.5522 C   0  0  1  0  0  0  0  0  0  0  0  0
    3.6556   -0.7776    4.8392 N   0  0  0  0  0  0  0  0  0  0  0  0
   -1.2368   -1.2413    1.4390 C   0  0  2  0  0  0  0  0  0  0  0  0
   -0.2302   -2.1326    0.9966 O   0  0  0  0  0  0  0  0  0  0  0  0
   -2.5639   -1.4186    0.7029 C   0  0  2  0  0  0  0  0  0  0  0  0
   -2.8468   -2.7597    0.3557 O   0  0  0  0  0  0  0  0  0  0  0  0
  2  1  1  0  0  0  0
  3  2  1  1  0  0  0
  3 30  1  0  0  0  0
  4  5  1  0  0  0  0
  4  3  1  0  0  0  0
  5 28  1  0  0  0  0
  5  6  1  1  0  0  0
  7  6  1  6  0  0  0
  8  7  1  0  0  0  0
  8  9  1  1  0  0  0
 10 11  1  6  0  0  0
 10  8  1  0  0  0  0
 12 10  1  0  0  0  0
 13 12  1  0  0  0  0
 13 15  1  0  0  0  0
 13 14  1  6  0  0  0
 15  7  1  0  0  0  0
 15 16  1  1  0  0  0
 17 16  1  6  0  0  0
 18 17  1  0  0  0  0
 19 20  1  1  0  0  0
 19 18  1  0  0  0  0
 20 21  1  0  0  0  0
 22 24  1  0  0  0  0
 22 19  1  0  0  0  0
 22 23  1  6  0  0  0
 24 25  1  1  0  0  0
 24 26  1  0  0  0  0
 26 17  1  0  0  0  0
 26 27  1  6  0  0  0
 28 29  1  6  0  0  0
 28 30  1  0  0  0  0
 30 31  1  6  0  0  0
M  END
>  <CHROM.1>
-174.54364401,46.04313652,-111.65902143,76.45049600,-60.45888875,94.74073462
176.70463406,-63.51397234,87.19665796,-141.62016448,-153.41135404,-162.90072306
-49.21394132,-51.57229125,75.26947075,-169.38468555,0.00151732,0.29822717
2.88365978,2.09465595,-0.65500264,-0.87249118

>  <Name>
lig.pdb

>  <RI>
1.79691e+07

>  <Rbt.Current_Directory>
/home/itssahil/PROJECTS/Mol_Feturizer/New_Systems/rnas/2n0j

>  <Rbt.Executable>
rbdock ($Id: //depot/dev/client3/rdock/2013.1/src/exe/rbdock.cxx#4 $)

>  <Rbt.Library>
libRbt.so (2013.1, Build901 2013/11/27)

>  <Rbt.Parameter_File>
/export/apps/rDock/src/rDock_2013.1_src/data/scripts/dock_solv.prm

>  <Rbt.Receptor>
prm/blind_docking_20.prm

>  <SCORE>
-3.73122

>  <SCORE.INTER>
-14.7501

>  <SCORE.INTER.CONST>
1

>  <SCORE.INTER.POLAR>
-3.08722

>  <SCORE.INTER.ROT>
6

>  <SCORE.INTER.SOLV>
25.3045

>  <SCORE.INTER.VDW>
-15.5775

>  <SCORE.INTER.norm>
-0.475811

>  <SCORE.INTRA>
8.70219

>  <SCORE.INTRA.DIHEDRAL>
-4.46331

>  <SCORE.INTRA.DIHEDRAL.0>
28.0161

>  <SCORE.INTRA.POLAR>
0.506541

>  <SCORE.INTRA.POLAR.0>
-1.05798

>  <SCORE.INTRA.REPUL>
0

>  <SCORE.INTRA.REPUL.0>
0

>  <SCORE.INTRA.SOLV>
0.905128

>  <SCORE.INTRA.SOLV.lig_0>
-42.5945

>  <SCORE.INTRA.VDW>
8.75904

>  <SCORE.INTRA.VDW.0>
-5.13869

>  <SCORE.INTRA.norm>
0.280716

>  <SCORE.RESTR>
2.31674

>  <SCORE.RESTR.CAVITY>
2.31674

>  <SCORE.RESTR.norm>
0.0747335

>  <SCORE.SYSTEM>
0

>  <SCORE.SYSTEM.CONST>
0

>  <SCORE.SYSTEM.DIHEDRAL>
0

>  <SCORE.SYSTEM.SOLV>
0

>  <SCORE.SYSTEM.norm>
0

>  <SCORE.heavy>
31

>  <SCORE.norm>
-0.120362

>  <RMSD>
6.977

$$$$
lig.pdb
 OpenBabel11021811453D
libRbt.so/2013.1/901 2013/11/27
 31 33  0  0  0  0  0  0  0  0999 V2000
    3.2100    6.7287    1.0619 O   0  0  0  0  0  0  0  0  0  0  0  0
    1.9690    6.6093    1.7296 C   0  0  0  0  0  0  0  0  0  0  0  0
    1.8690    5.2828    2.4948 C   0  0  1  0  0  0  0  0  0  0  0  0
    0.6127    5.1383    3.1382 O   0  0  0  0  0  0  0  0  0  0  0  0
    0.3152    3.7551    3.3020 C   0  0  1  0  0  0  0  0  0  0  0  0
   -1.0164    3.4940    2.8748 O   0  0  0  0  0  0  0  0  0  0  0  0
   -2.0666    3.9841    3.6932 C   0  0  2  0  0  0  0  0  0  0  0  0
   -1.9018    5.5083    3.8024 C   0  0  1  0  0  0  0  0  0  0  0  0
   -2.1888    6.1111    2.5503 O   0  0  0  0  0  0  0  0  0  0  0  0
   -2.8184    6.1642    4.8463 C   0  0  2  0  0  0  0  0  0  0  0  0
   -2.5387    7.6036    4.9648 N   0  0  0  0  0  0  0  0  0  0  0  0
   -2.6164    5.4950    6.2007 C   0  0  0  0  0  0  0  0  0  0  0  0
   -2.8639    3.9968    6.0747 C   0  0  2  0  0  0  0  0  0  0  0  0
   -2.7166    3.3879    7.4011 N   0  0  0  0  0  0  0  0  0  0  0  0
   -1.8923    3.3761    5.0479 C   0  0  1  0  0  0  0  0  0  0  0  0
   -2.2028    1.9744    5.0246 O   0  0  0  0  0  0  0  0  0  0  0  0
   -3.3413    1.5740    4.2696 C   0  0  1  0  0  0  0  0  0  0  0  0
   -3.0234    1.4962    2.8827 O   0  0  0  0  0  0  0  0  0  0  0  0
   -2.1362    0.4485    2.4970 C   0  0  2  0  0  0  0  0  0  0  0  0
   -1.9125    0.5196    0.9806 C   0  0  0  0  0  0  0  0  0  0  0  0
   -3.1141    0.9474    0.2787 N   0  0  0  0  0  0  0  0  0  0  0  0
   -2.7158   -0.9273    2.8752 C   0  0  1  0  0  0  0  0  0  0  0  0
   -1.7920   -1.9461    2.5357 O   0  0  0  0  0  0  0  0  0  0  0  0
   -2.9868   -0.9503    4.3846 C   0  0  2  0  0  0  0  0  0  0  0  0
   -3.6021   -2.1713    4.7502 O   0  0  0  0  0  0  0  0  0  0  0  0
   -3.8713    0.2349    4.7946 C   0  0  1  0  0  0  0  0  0  0  0  0
   -4.0177    0.2739    6.2567 N   0  0  0  0  0  0  0  0  0  0  0  0
    1.3003    2.9802    2.4148 C   0  0  2  0  0  0  0  0  0  0  0  0
    2.2433    2.3016    3.2233 O   0  0  0  0  0  0  0  0  0  0  0  0
    1.9236    4.0806    1.5574 C   0  0  2  0  0  0  0  0  0  0  0  0
    3.2257    3.7752    1.0987 O   0  0  0  0  0  0  0  0  0  0  0  0
  2  1  1  0  0  0  0
  3  2  1  6  0  0  0
  3 30  1  0  0  0  0
  4  5  1  0  0  0  0
  4  3  1  0  0  0  0
  5 28  1  0  0  0  0
  5  6  1  6  0  0  0
  7  6  1  6  0  0  0
  8  7  1  0  0  0  0
  8  9  1  6  0  0  0
 10 11  1  1  0  0  0
 10  8  1  0  0  0  0
 12 10  1  0  0  0  0
 13 12  1  0  0  0  0
 13 15  1  0  0  0  0
 13 14  1  1  0  0  0
 15  7  1  0  0  0  0
 15 16  1  6  0  0  0
 17 16  1  1  0  0  0
 18 17  1  0  0  0  0
 19 20  1  6  0  0  0
 19 18  1  0  0  0  0
 20 21  1  0  0  0  0
 22 24  1  0  0  0  0
 22 19  1  0  0  0  0
 22 23  1  1  0  0  0
 24 25  1  6  0  0  0
 24 26  1  0  0  0  0
 26 17  1  0  0  0  0
 26 27  1  1  0  0  0
 28 29  1  1  0  0  0
 28 30  1  0  0  0  0
 30 31  1  1  0  0  0
M  END
>  <CHROM.1>
48.08366954,-178.40996106,-71.23187469,58.53257848,65.19293309,-10.69071487
177.92514520,-41.52586146,80.30117106,-35.14971301,-36.89180399,178.83390127
178.27686824,-67.13496923,63.82259626,162.45780994,-1.30095906,2.92749849
3.50794647,-0.70394938,-0.68850353,-2.79463004

>  <Name>
lig.pdb

>  <RI>
3.50357e+07

>  <Rbt.Current_Directory>
/home/itssahil/PROJECTS/Mol_Feturizer/New_Systems/rnas/2n0j

>  <Rbt.Executable>
rbdock ($Id: //depot/dev/client3/rdock/2013.1/src/exe/rbdock.cxx#4 $)

>  <Rbt.Library>
libRbt.so (2013.1, Build901 2013/11/27)

>  <Rbt.Parameter_File>
/export/apps/rDock/src/rDock_2013.1_src/data/scripts/dock_solv.prm

>  <Rbt.Receptor>
prm/pocket_docking_3.prm

>  <SCORE>
-34.2636

>  <SCORE.INTER>
-34.7993

>  <SCORE.INTER.CONST>
1

>  <SCORE.INTER.POLAR>
-4.24221

>  <SCORE.INTER.ROT>
6

>  <SCORE.INTER.SOLV>
13.6718

>  <SCORE.INTER.VDW>
-21.2161

>  <SCORE.INTER.norm>
-1.12256

>  <SCORE.INTRA>
0.505457

>  <SCORE.INTRA.DIHEDRAL>
-14.7324

>  <SCORE.INTRA.DIHEDRAL.0>
28.0161

>  <SCORE.INTRA.POLAR>
0.502245

>  <SCORE.INTRA.POLAR.0>
-1.05798

>  <SCORE.INTRA.REPUL>
0

>  <SCORE.INTRA.REPUL.0>
0

>  <SCORE.INTRA.SOLV>
0.791713

>  <SCORE.INTRA.SOLV.lig_0>
-42.5945

>  <SCORE.INTRA.VDW>
5.76819

>  <SCORE.INTRA.VDW.0>
-5.13869

>  <SCORE.INTRA.norm>
0.016305

>  <SCORE.RESTR>
0.0303208

>  <SCORE.RESTR.CAVITY>
0.0303208

>  <SCORE.RESTR.norm>
0.000978091

>  <SCORE.SYSTEM>
0

>  <SCORE.SYSTEM.CONST>
0

>  <SCORE.SYSTEM.DIHEDRAL>
0

>  <SCORE.SYSTEM.SOLV>
0

>  <SCORE.SYSTEM.norm>
0

>  <SCORE.heavy>
31

>  <SCORE.norm>
-1.10528

>  <RMSD>
6.980

$$$$
lig.pdb
 OpenBabel11021811453D
libRbt.so/2013.1/901 2013/11/27
 31 33  0  0  0  0  0  0  0  0999 V2000
   -3.5392   -0.3029   -1.6897 O   0  0  0  0  0  0  0  0  0  0  0  0
   -3.6155   -1.0671   -0.5021 C   0  0  0  0  0  0  0  0  0  0  0  0
   -2.2486   -1.1696    0.1880 C   0  0  1  0  0  0  0  0  0  0  0  0
   -1.6509    0.1047    0.3668 O   0  0  0  0  0  0  0  0  0  0  0  0
   -0.7581    0.0632    1.4758 C   0  0  1  0  0  0  0  0  0  0  0  0
   -0.9916    1.1800    2.3255 O   0  0  0  0  0  0  0  0  0  0  0  0
    0.1382    1.9455    2.7133 C   0  0  2  0  0  0  0  0  0  0  0  0
    0.2371    3.1484    1.7618 C   0  0  1  0  0  0  0  0  0  0  0  0
   -0.8344    4.0446    2.0112 O   0  0  0  0  0  0  0  0  0  0  0  0
    1.5421    3.9478    1.8961 C   0  0  2  0  0  0  0  0  0  0  0  0
    1.6097    5.0211    0.8924 N   0  0  0  0  0  0  0  0  0  0  0  0
    2.7358    3.0159    1.7235 C   0  0  0  0  0  0  0  0  0  0  0  0
    2.6487    1.8782    2.7334 C   0  0  2  0  0  0  0  0  0  0  0  0
    3.8356    1.0296    2.5815 N   0  0  0  0  0  0  0  0  0  0  0  0
    1.3431    1.0792    2.5316 C   0  0  1  0  0  0  0  0  0  0  0  0
    1.3767    0.0344    3.5159 O   0  0  0  0  0  0  0  0  0  0  0  0
    1.0869    0.4000    4.8609 C   0  0  1  0  0  0  0  0  0  0  0  0
   -0.2955    0.2072    5.1481 O   0  0  0  0  0  0  0  0  0  0  0  0
   -0.7470   -1.1446    5.1956 C   0  0  2  0  0  0  0  0  0  0  0  0
   -2.2476   -1.1564    5.5162 C   0  0  0  0  0  0  0  0  0  0  0  0
   -2.5039   -0.8069    6.9062 N   0  0  0  0  0  0  0  0  0  0  0  0
    0.0217   -1.9417    6.2658 C   0  0  1  0  0  0  0  0  0  0  0  0
   -0.4028   -3.2931    6.2536 O   0  0  0  0  0  0  0  0  0  0  0  0
    1.5219   -1.8630    5.9566 C   0  0  2  0  0  0  0  0  0  0  0  0
    2.2629   -2.5131    6.9721 O   0  0  0  0  0  0  0  0  0  0  0  0
    1.9716   -0.4020    5.8221 C   0  0  1  0  0  0  0  0  0  0  0  0
    3.3787   -0.3434    5.4009 N   0  0  0  0  0  0  0  0  0  0  0  0
   -1.0579   -1.2348    2.2397 C   0  0  2  0  0  0  0  0  0  0  0  0
    0.0049   -2.1527    2.0625 O   0  0  0  0  0  0  0  0  0  0  0  0
   -2.3695   -1.7037    1.6117 C   0  0  2  0  0  0  0  0  0  0  0  0
   -2.5648   -3.1023    1.6804 O   0  0  0  0  0  0  0  0  0  0  0  0
  2  1  1  0  0  0  0
  3  2  1  1  0  0  0
  3 30  1  0  0  0  0
  4  5  1  0  0  0  0
  4  3  1  0  0  0  0
  5 28  1  0  0  0  0
  5  6  1  1  0  0  0
  7  6  1  6  0  0  0
  8  7  1  0  0  0  0
  8  9  1  1  0  0  0
 10 11  1  6  0  0  0
 10  8  1  0  0  0  0
 12 10  1  0  0  0  0
 13 12  1  0  0  0  0
 13 15  1  0  0  0  0
 13 14  1  6  0  0  0
 15  7  1  0  0  0  0
 15 16  1  1  0  0  0
 17 16  1  6  0  0  0
 18 17  1  0  0  0  0
 19 20  1  1  0  0  0
 19 18  1  0  0  0  0
 20 21  1  0  0  0  0
 22 24  1  0  0  0  0
 22 19  1  0  0  0  0
 22 23  1  6  0  0  0
 24 25  1  1  0  0  0
 24 26  1  0  0  0  0
 26 17  1  0  0  0  0
 26 27  1  6  0  0  0
 28 29  1  6  0  0  0
 28 30  1  0  0  0  0
 30 31  1  6  0  0  0
M  END
>  <CHROM.1>
-59.18230476,51.47813619,-130.30895641,96.45538111,-57.75901252,88.54561680
-66.01799805,-44.72318415,93.63462405,-72.81331462,-161.55348441,-176.07985973
-174.92891266,167.92791838,166.09565880,69.90539463,-0.00186798,0.07188799
3.11675123,1.84501132,-0.66784229,-0.84177556

>  <Name>
lig.pdb

>  <RI>
9.20816e+06

>  <Rbt.Current_Directory>
/home/itssahil/PROJECTS/Mol_Feturizer/New_Systems/rnas/2n0j

>  <Rbt.Executable>
rbdock ($Id: //depot/dev/client3/rdock/2013.1/src/exe/rbdock.cxx#4 $)

>  <Rbt.Library>
libRbt.so (2013.1, Build901 2013/11/27)

>  <Rbt.Parameter_File>
/export/apps/rDock/src/rDock_2013.1_src/data/scripts/dock_solv.prm

>  <Rbt.Receptor>
prm/blind_docking_100.prm

>  <SCORE>
-11.8598

>  <SCORE.INTER>
-23.5985

>  <SCORE.INTER.CONST>
1

>  <SCORE.INTER.POLAR>
-4.36756

>  <SCORE.INTER.ROT>
6

>  <SCORE.INTER.SOLV>
22.254

>  <SCORE.INTER.VDW>
-16.1918

>  <SCORE.INTER.norm>
-0.761243

>  <SCORE.INTRA>
9.47172

>  <SCORE.INTRA.DIHEDRAL>
-5.58184

>  <SCORE.INTRA.DIHEDRAL.0>
28.0161

>  <SCORE.INTRA.POLAR>
1.05356

>  <SCORE.INTRA.POLAR.0>
-1.05798

>  <SCORE.INTRA.REPUL>
0

>  <SCORE.INTRA.REPUL.0>
0

>  <SCORE.INTRA.SOLV>
1.53502

>  <SCORE.INTRA.SOLV.lig_0>
-42.5945

>  <SCORE.INTRA.VDW>
7.91304

>  <SCORE.INTRA.VDW.0>
-5.13869

>  <SCORE.INTRA.norm>
0.305539

>  <SCORE.RESTR>
2.26697

>  <SCORE.RESTR.CAVITY>
2.26697

>  <SCORE.RESTR.norm>
0.073128

>  <SCORE.SYSTEM>
0

>  <SCORE.SYSTEM.CONST>
0

>  <SCORE.SYSTEM.DIHEDRAL>
0

>  <SCORE.SYSTEM.SOLV>
0

>  <SCORE.SYSTEM.norm>
0

>  <SCORE.heavy>
31

>  <SCORE.norm>
-0.382576

>  <RMSD>
6.984

$$$$
lig.pdb
 OpenBabel11021811453D
libRbt.so/2013.1/901 2013/11/27
 31 33  0  0  0  0  0  0  0  0999 V2000
    3.3858    4.8465    0.7686 O   0  0  0  0  0  0  0  0  0  0  0  0
    3.5883    4.6513    2.1546 C   0  0  0  0  0  0  0  0  0  0  0  0
    2.5136    3.7350    2.7551 C   0  0  1  0  0  0  0  0  0  0  0  0
    1.2222    4.3182    2.6820 O   0  0  0  0  0  0  0  0  0  0  0  0
    0.2343    3.2924    2.6625 C   0  0  1  0  0  0  0  0  0  0  0  0
   -0.7042    3.5458    1.6238 O   0  0  0  0  0  0  0  0  0  0  0  0
   -2.0123    3.9328    2.0137 C   0  0  2  0  0  0  0  0  0  0  0  0
   -1.8870    5.1931    2.8845 C   0  0  1  0  0  0  0  0  0  0  0  0
   -1.4746    6.2889    2.0830 O   0  0  0  0  0  0  0  0  0  0  0  0
   -3.1920    5.6037    3.5835 C   0  0  2  0  0  0  0  0  0  0  0  0
   -2.9752    6.7555    4.4725 N   0  0  0  0  0  0  0  0  0  0  0  0
   -3.7316    4.4314    4.3944 C   0  0  0  0  0  0  0  0  0  0  0  0
   -3.9185    3.2221    3.4864 C   0  0  2  0  0  0  0  0  0  0  0  0
   -4.4891    2.1284    4.2800 N   0  0  0  0  0  0  0  0  0  0  0  0
   -2.5742    2.8216    2.8413 C   0  0  1  0  0  0  0  0  0  0  0  0
   -2.8653    1.6740    2.0291 O   0  0  0  0  0  0  0  0  0  0  0  0
   -1.8168    0.7299    1.8395 C   0  0  1  0  0  0  0  0  0  0  0  0
   -1.8047   -0.2275    2.8950 O   0  0  0  0  0  0  0  0  0  0  0  0
   -2.9022   -1.1371    2.9337 C   0  0  2  0  0  0  0  0  0  0  0  0
   -2.7193   -2.0861    4.1255 C   0  0  0  0  0  0  0  0  0  0  0  0
   -3.9976   -2.5535    4.6426 N   0  0  0  0  0  0  0  0  0  0  0  0
   -2.9872   -1.9492    1.6280 C   0  0  1  0  0  0  0  0  0  0  0  0
   -4.1176   -2.8020    1.6670 O   0  0  0  0  0  0  0  0  0  0  0  0
   -3.1080   -0.9759    0.4488 C   0  0  2  0  0  0  0  0  0  0  0  0
   -3.1000   -1.6890   -0.7737 O   0  0  0  0  0  0  0  0  0  0  0  0
   -1.9671    0.0501    0.4738 C   0  0  1  0  0  0  0  0  0  0  0  0
   -2.1653    1.0516   -0.5836 N   0  0  0  0  0  0  0  0  0  0  0  0
    0.9684    1.9733    2.3807 C   0  0  2  0  0  0  0  0  0  0  0  0
    0.9785    1.1708    3.5467 O   0  0  0  0  0  0  0  0  0  0  0  0
    2.3605    2.4421    1.9604 C   0  0  2  0  0  0  0  0  0  0  0  0
    3.3796    1.4949    2.2123 O   0  0  0  0  0  0  0  0  0  0  0  0
  2  1  1  0  0  0  0
  3  2  1  6  0  0  0
  3 30  1  0  0  0  0
  4  5  1  0  0  0  0
  4  3  1  0  0  0  0
  5 28  1  0  0  0  0
  5  6  1  6  0  0  0
  7  6  1  1  0  0  0
  8  7  1  0  0  0  0
  8  9  1  6  0  0  0
 10 11  1  1  0  0  0
 10  8  1  0  0  0  0
 12 10  1  0  0  0  0
 13 12  1  0  0  0  0
 13 15  1  0  0  0  0
 13 14  1  1  0  0  0
 15  7  1  0  0  0  0
 15 16  1  6  0  0  0
 17 16  1  1  0  0  0
 18 17  1  0  0  0  0
 19 20  1  1  0  0  0
 19 18  1  0  0  0  0
 20 21  1  0  0  0  0
 22 24  1  0  0  0  0
 22 19  1  0  0  0  0
 22 23  1  1  0  0  0
 24 25  1  6  0  0  0
 24 26  1  0  0  0  0
 26 17  1  0  0  0  0
 26 27  1  6  0  0  0
 28 29  1  1  0  0  0
 28 30  1  0  0  0  0
 30 31  1  1  0  0  0
M  END
>  <CHROM.1>
175.48655015,-64.38525036,-109.86950539,57.12417707,61.59401791,56.39295846
176.17215534,88.58377570,86.91429338,151.20717257,-26.55523426,-69.04669715
64.38585778,85.43067216,-58.44443174,-174.14578287,-1.35335690,1.97934629
2.38375840,-0.92275054,-0.26975381,-2.89740669

>  <Name>
lig.pdb

>  <RI>
3.50357e+07

>  <Rbt.Current_Directory>
/home/itssahil/PROJECTS/Mol_Feturizer/New_Systems/rnas/2n0j

>  <Rbt.Executable>
rbdock ($Id: //depot/dev/client3/rdock/2013.1/src/exe/rbdock.cxx#4 $)

>  <Rbt.Library>
libRbt.so (2013.1, Build901 2013/11/27)

>  <Rbt.Parameter_File>
/export/apps/rDock/src/rDock_2013.1_src/data/scripts/dock_solv.prm

>  <Rbt.Receptor>
prm/pocket_docking_3.prm

>  <SCORE>
-39.8286

>  <SCORE.INTER>
-42.948

>  <SCORE.INTER.CONST>
1

>  <SCORE.INTER.POLAR>
-5.8472

>  <SCORE.INTER.ROT>
6

>  <SCORE.INTER.SOLV>
14.4907

>  <SCORE.INTER.VDW>
-21.5716

>  <SCORE.INTER.norm>
-1.38542

>  <SCORE.INTRA>
3.03924

>  <SCORE.INTRA.DIHEDRAL>
-7.71508

>  <SCORE.INTRA.DIHEDRAL.0>
28.0161

>  <SCORE.INTRA.POLAR>
0.93823

>  <SCORE.INTRA.POLAR.0>
-1.05798

>  <SCORE.INTRA.REPUL>
0.131292

>  <SCORE.INTRA.REPUL.0>
0

>  <SCORE.INTRA.SOLV>
1.15921

>  <SCORE.INTRA.SOLV.lig_0>
-42.5945

>  <SCORE.INTRA.VDW>
2.47073

>  <SCORE.INTRA.VDW.0>
-5.13869

>  <SCORE.INTRA.norm>
0.0980399

>  <SCORE.RESTR>
0.0801641

>  <SCORE.RESTR.CAVITY>
0.0801641

>  <SCORE.RESTR.norm>
0.00258594

>  <SCORE.SYSTEM>
0

>  <SCORE.SYSTEM.CONST>
0

>  <SCORE.SYSTEM.DIHEDRAL>
0

>  <SCORE.SYSTEM.SOLV>
0

>  <SCORE.SYSTEM.norm>
0

>  <SCORE.heavy>
31

>  <SCORE.norm>
-1.28479

>  <RMSD>
6.988

$$$$
lig.pdb
 OpenBabel11021811453D
libRbt.so/2013.1/901 2013/11/27
 31 33  0  0  0  0  0  0  0  0999 V2000
    2.2655    7.2725    1.0853 O   0  0  0  0  0  0  0  0  0  0  0  0
    2.8520    6.7761    2.2726 C   0  0  0  0  0  0  0  0  0  0  0  0
    2.3256    5.3759    2.6156 C   0  0  1  0  0  0  0  0  0  0  0  0
    0.9127    5.3603    2.7440 O   0  0  0  0  0  0  0  0  0  0  0  0
    0.4208    4.0542    2.4593 C   0  0  1  0  0  0  0  0  0  0  0  0
   -0.6780    4.1378    1.5596 O   0  0  0  0  0  0  0  0  0  0  0  0
   -1.9471    4.4445    2.1146 C   0  0  2  0  0  0  0  0  0  0  0  0
   -1.7997    5.7371    2.9329 C   0  0  1  0  0  0  0  0  0  0  0  0
   -1.5798    6.8334    2.0594 O   0  0  0  0  0  0  0  0  0  0  0  0
   -3.0262    6.0771    3.7932 C   0  0  2  0  0  0  0  0  0  0  0  0
   -2.7779    7.2686    4.6195 N   0  0  0  0  0  0  0  0  0  0  0  0
   -3.3650    4.8960    4.6950 C   0  0  0  0  0  0  0  0  0  0  0  0
   -3.5821    3.6487    3.8470 C   0  0  2  0  0  0  0  0  0  0  0  0
   -3.9595    2.5432    4.7342 N   0  0  0  0  0  0  0  0  0  0  0  0
   -2.3102    3.3232    3.0346 C   0  0  1  0  0  0  0  0  0  0  0  0
   -2.6221    2.1331    2.2944 O   0  0  0  0  0  0  0  0  0  0  0  0
   -1.6249    1.1182    2.2465 C   0  0  1  0  0  0  0  0  0  0  0  0
   -1.8042    0.1860    3.3092 O   0  0  0  0  0  0  0  0  0  0  0  0
   -2.9576   -0.6486    3.2278 C   0  0  2  0  0  0  0  0  0  0  0  0
   -2.9836   -1.5808    4.4464 C   0  0  0  0  0  0  0  0  0  0  0  0
   -3.1432   -0.8385    5.6887 N   0  0  0  0  0  0  0  0  0  0  0  0
   -2.9404   -1.4824    1.9331 C   0  0  1  0  0  0  0  0  0  0  0  0
   -4.1225   -2.2581    1.8471 O   0  0  0  0  0  0  0  0  0  0  0  0
   -2.8528   -0.5298    0.7342 C   0  0  2  0  0  0  0  0  0  0  0  0
   -2.7468   -1.2689   -0.4680 O   0  0  0  0  0  0  0  0  0  0  0  0
   -1.6562    0.4195    0.8825 C   0  0  1  0  0  0  0  0  0  0  0  0
   -1.6579    1.4081   -0.2053 N   0  0  0  0  0  0  0  0  0  0  0  0
    1.5699    3.2810    1.7961 C   0  0  2  0  0  0  0  0  0  0  0  0
    2.0624    2.2963    2.6857 O   0  0  0  0  0  0  0  0  0  0  0  0
    2.5871    4.3794    1.4907 C   0  0  2  0  0  0  0  0  0  0  0  0
    3.9227    3.9186    1.4374 O   0  0  0  0  0  0  0  0  0  0  0  0
  2  1  1  0  0  0  0
  3  2  1  6  0  0  0
  3 30  1  0  0  0  0
  4  5  1  0  0  0  0
  4  3  1  0  0  0  0
  5 28  1  0  0  0  0
  5  6  1  6  0  0  0
  7  6  1  1  0  0  0
  8  7  1  0  0  0  0
  8  9  1  6  0  0  0
 10 11  1  1  0  0  0
 10  8  1  0  0  0  0
 12 10  1  0  0  0  0
 13 12  1  0  0  0  0
 13 15  1  0  0  0  0
 13 14  1  1  0  0  0
 15  7  1  0  0  0  0
 15 16  1  6  0  0  0
 17 16  1  6  0  0  0
 18 17  1  0  0  0  0
 19 20  1  1  0  0  0
 19 18  1  0  0  0  0
 20 21  1  0  0  0  0
 22 24  1  0  0  0  0
 22 19  1  0  0  0  0
 22 23  1  6  0  0  0
 24 25  1  6  0  0  0
 24 26  1  0  0  0  0
 26 17  1  0  0  0  0
 26 27  1  6  0  0  0
 28 29  1  1  0  0  0
 28 30  1  0  0  0  0
 30 31  1  1  0  0  0
M  END
>  <CHROM.1>
-63.95395687,-57.11949848,-81.60922083,53.84040939,-40.49290796,-37.87042739
-51.36415230,102.57134504,91.65614623,64.51746802,50.35591487,-178.89447745
175.19363687,65.52597131,-177.16558388,53.49959901,-1.19075361,2.84196411
2.50412016,-0.91687335,-0.47797813,-2.83990629

>  <Name>
lig.pdb

>  <RI>
3.50357e+07

>  <Rbt.Current_Directory>
/home/itssahil/PROJECTS/Mol_Feturizer/New_Systems/rnas/2n0j

>  <Rbt.Executable>
rbdock ($Id: //depot/dev/client3/rdock/2013.1/src/exe/rbdock.cxx#4 $)

>  <Rbt.Library>
libRbt.so (2013.1, Build901 2013/11/27)

>  <Rbt.Parameter_File>
/export/apps/rDock/src/rDock_2013.1_src/data/scripts/dock_solv.prm

>  <Rbt.Receptor>
prm/pocket_docking_3.prm

>  <SCORE>
-29.3455

>  <SCORE.INTER>
-29.6193

>  <SCORE.INTER.CONST>
1

>  <SCORE.INTER.POLAR>
-3.00341

>  <SCORE.INTER.ROT>
6

>  <SCORE.INTER.SOLV>
13.3716

>  <SCORE.INTER.VDW>
-21.792

>  <SCORE.INTER.norm>
-0.955462

>  <SCORE.INTRA>
0.273824

>  <SCORE.INTRA.DIHEDRAL>
-11.8632

>  <SCORE.INTRA.DIHEDRAL.0>
28.0161

>  <SCORE.INTRA.POLAR>
1.02669

>  <SCORE.INTRA.POLAR.0>
-1.05798

>  <SCORE.INTRA.REPUL>
0

>  <SCORE.INTRA.REPUL.0>
0

>  <SCORE.INTRA.SOLV>
0.929737

>  <SCORE.INTRA.SOLV.lig_0>
-42.5945

>  <SCORE.INTRA.VDW>
2.2498

>  <SCORE.INTRA.VDW.0>
-5.13869

>  <SCORE.INTRA.norm>
0.00883302

>  <SCORE.RESTR>
0

>  <SCORE.RESTR.CAVITY>
0

>  <SCORE.RESTR.norm>
0

>  <SCORE.SYSTEM>
0

>  <SCORE.SYSTEM.CONST>
0

>  <SCORE.SYSTEM.DIHEDRAL>
0

>  <SCORE.SYSTEM.SOLV>
0

>  <SCORE.SYSTEM.norm>
0

>  <SCORE.heavy>
31

>  <SCORE.norm>
-0.946629

>  <RMSD>
6.997

$$$$
lig.pdb
 OpenBabel11021811453D
libRbt.so/2013.1/901 2013/11/27
 31 33  0  0  0  0  0  0  0  0999 V2000
    3.8734    4.5062    2.9292 O   0  0  0  0  0  0  0  0  0  0  0  0
    3.4151    4.3888    1.5965 C   0  0  0  0  0  0  0  0  0  0  0  0
    1.8823    4.4193    1.5256 C   0  0  1  0  0  0  0  0  0  0  0  0
    1.2955    3.4449    2.3736 O   0  0  0  0  0  0  0  0  0  0  0  0
   -0.0120    3.8646    2.7518 C   0  0  1  0  0  0  0  0  0  0  0  0
   -0.1796    3.7148    4.1566 O   0  0  0  0  0  0  0  0  0  0  0  0
   -1.5019    3.5237    4.6339 C   0  0  2  0  0  0  0  0  0  0  0  0
   -1.7523    4.5568    5.7439 C   0  0  1  0  0  0  0  0  0  0  0  0
   -1.8202    5.8572    5.1802 O   0  0  0  0  0  0  0  0  0  0  0  0
   -3.0535    4.3302    6.5285 C   0  0  2  0  0  0  0  0  0  0  0  0
   -3.1789    5.2938    7.6329 N   0  0  0  0  0  0  0  0  0  0  0  0
   -3.0766    2.9124    7.0873 C   0  0  0  0  0  0  0  0  0  0  0  0
   -2.9048    1.9106    5.9520 C   0  0  2  0  0  0  0  0  0  0  0  0
   -2.9857    0.5566    6.5103 N   0  0  0  0  0  0  0  0  0  0  0  0
   -1.5658    2.1504    5.2217 C   0  0  1  0  0  0  0  0  0  0  0  0
   -1.5045    1.1494    4.1943 O   0  0  0  0  0  0  0  0  0  0  0  0
   -0.3299    0.3470    4.1387 C   0  0  1  0  0  0  0  0  0  0  0  0
   -0.4151   -0.7345    5.0626 O   0  0  0  0  0  0  0  0  0  0  0  0
   -1.3749   -1.7457    4.7627 C   0  0  2  0  0  0  0  0  0  0  0  0
   -1.3233   -2.8201    5.8572 C   0  0  0  0  0  0  0  0  0  0  0  0
   -1.8087   -2.3129    7.1327 N   0  0  0  0  0  0  0  0  0  0  0  0
   -1.0881   -2.3839    3.3909 C   0  0  1  0  0  0  0  0  0  0  0  0
   -2.0869   -3.3423    3.0901 O   0  0  0  0  0  0  0  0  0  0  0  0
   -1.0850   -1.2811    2.3249 C   0  0  2  0  0  0  0  0  0  0  0  0
   -0.7374   -1.8234    1.0647 O   0  0  0  0  0  0  0  0  0  0  0  0
   -0.1107   -0.1592    2.7085 C   0  0  1  0  0  0  0  0  0  0  0  0
   -0.2112    0.9477    1.7468 N   0  0  0  0  0  0  0  0  0  0  0  0
   -0.1285    5.3490    2.3762 C   0  0  2  0  0  0  0  0  0  0  0  0
   -1.0040    5.4982    1.2740 O   0  0  0  0  0  0  0  0  0  0  0  0
    1.3150    5.7327    2.0546 C   0  0  2  0  0  0  0  0  0  0  0  0
    1.4282    6.8091    1.1449 O   0  0  0  0  0  0  0  0  0  0  0  0
  2  1  1  0  0  0  0
  3  2  1  1  0  0  0
  3 30  1  0  0  0  0
  4  5  1  0  0  0  0
  4  3  1  0  0  0  0
  5 28  1  0  0  0  0
  5  6  1  1  0  0  0
  7  6  1  1  0  0  0
  8  7  1  0  0  0  0
  8  9  1  6  0  0  0
 10 11  1  1  0  0  0
 10  8  1  0  0  0  0
 12 10  1  0  0  0  0
 13 12  1  0  0  0  0
 13 15  1  0  0  0  0
 13 14  1  1  0  0  0
 15  7  1  0  0  0  0
 15 16  1  6  0  0  0
 17 16  1  6  0  0  0
 18 17  1  0  0  0  0
 19 20  1  1  0  0  0
 19 18  1  0  0  0  0
 20 21  1  0  0  0  0
 22 24  1  0  0  0  0
 22 19  1  0  0  0  0
 22 23  1  6  0  0  0
 24 25  1  6  0  0  0
 24 26  1  0  0  0  0
 26 17  1  0  0  0  0
 26 27  1  6  0  0  0
 28 29  1  6  0  0  0
 28 30  1  0  0  0  0
 30 31  1  6  0  0  0
M  END
>  <CHROM.1>
-72.92100882,-53.97384294,-153.69167572,-128.07621362,-69.40566130,-177.11843844
54.83661190,111.46512091,83.20983201,68.19016120,48.48881605,-170.68690446
168.43301691,-174.77607842,-45.95225356,-178.96496580,-0.70717122,2.09162229
3.93123715,-1.03352309,-0.89982873,-2.99238296

>  <Name>
lig.pdb

>  <RI>
3.32461e+07

>  <Rbt.Current_Directory>
/home/itssahil/PROJECTS/Mol_Feturizer/New_Systems/rnas/2n0j

>  <Rbt.Executable>
rbdock ($Id: //depot/dev/client3/rdock/2013.1/src/exe/rbdock.cxx#4 $)

>  <Rbt.Library>
libRbt.so (2013.1, Build901 2013/11/27)

>  <Rbt.Parameter_File>
/export/apps/rDock/src/rDock_2013.1_src/data/scripts/dock_solv.prm

>  <Rbt.Receptor>
prm/pocket_docking_7.prm

>  <SCORE>
-31.3624

>  <SCORE.INTER>
-29.0896

>  <SCORE.INTER.CONST>
1

>  <SCORE.INTER.POLAR>
-3.53134

>  <SCORE.INTER.ROT>
6

>  <SCORE.INTER.SOLV>
17.5683

>  <SCORE.INTER.VDW>
-21.0781

>  <SCORE.INTER.norm>
-0.938376

>  <SCORE.INTRA>
-2.2728

>  <SCORE.INTRA.DIHEDRAL>
-4.66926

>  <SCORE.INTRA.DIHEDRAL.0>
28.0161

>  <SCORE.INTRA.POLAR>
0.0429072

>  <SCORE.INTRA.POLAR.0>
-1.05798

>  <SCORE.INTRA.REPUL>
0

>  <SCORE.INTRA.REPUL.0>
0

>  <SCORE.INTRA.SOLV>
1.10025

>  <SCORE.INTRA.SOLV.lig_0>
-42.5945

>  <SCORE.INTRA.VDW>
-0.63418

>  <SCORE.INTRA.VDW.0>
-5.13869

>  <SCORE.INTRA.norm>
-0.0733162

>  <SCORE.RESTR>
0

>  <SCORE.RESTR.CAVITY>
0

>  <SCORE.RESTR.norm>
0

>  <SCORE.SYSTEM>
0

>  <SCORE.SYSTEM.CONST>
0

>  <SCORE.SYSTEM.DIHEDRAL>
0

>  <SCORE.SYSTEM.SOLV>
0

>  <SCORE.SYSTEM.norm>
0

>  <SCORE.heavy>
31

>  <SCORE.norm>
-1.01169

>  <RMSD>
6.998

$$$$
lig.pdb
 OpenBabel11021811453D
libRbt.so/2013.1/901 2013/11/27
 31 33  0  0  0  0  0  0  0  0999 V2000
    1.1825    5.4975    0.7729 O   0  0  0  0  0  0  0  0  0  0  0  0
    0.5673    6.4262    1.6442 C   0  0  0  0  0  0  0  0  0  0  0  0
   -0.7898    5.9126    2.1441 C   0  0  1  0  0  0  0  0  0  0  0  0
   -0.6590    4.7062    2.8792 O   0  0  0  0  0  0  0  0  0  0  0  0
   -1.7416    4.5852    3.7969 C   0  0  1  0  0  0  0  0  0  0  0  0
   -1.2468    4.2327    5.0833 O   0  0  0  0  0  0  0  0  0  0  0  0
   -2.1825    4.1972    6.1492 C   0  0  2  0  0  0  0  0  0  0  0  0
   -1.9441    5.4395    7.0222 C   0  0  1  0  0  0  0  0  0  0  0  0
   -2.3379    6.6043    6.3139 O   0  0  0  0  0  0  0  0  0  0  0  0
   -2.7162    5.4293    8.3503 C   0  0  2  0  0  0  0  0  0  0  0  0
   -2.3662    6.5970    9.1737 N   0  0  0  0  0  0  0  0  0  0  0  0
   -2.3988    4.1525    9.1197 C   0  0  0  0  0  0  0  0  0  0  0  0
   -2.7200    2.9393    8.2554 C   0  0  2  0  0  0  0  0  0  0  0  0
   -2.4573    1.7274    9.0390 N   0  0  0  0  0  0  0  0  0  0  0  0
   -1.8900    2.9717    6.9540 C   0  0  1  0  0  0  0  0  0  0  0  0
   -2.2588    1.7853    6.2342 O   0  0  0  0  0  0  0  0  0  0  0  0
   -1.4441    1.4187    5.1259 C   0  0  1  0  0  0  0  0  0  0  0  0
   -0.2079    0.8669    5.5707 O   0  0  0  0  0  0  0  0  0  0  0  0
   -0.2792   -0.4060    6.2094 C   0  0  2  0  0  0  0  0  0  0  0  0
    1.1361   -0.8385    6.6151 C   0  0  0  0  0  0  0  0  0  0  0  0
    2.0887   -0.6486    5.5306 N   0  0  0  0  0  0  0  0  0  0  0  0
   -0.8966   -1.4574    5.2686 C   0  0  1  0  0  0  0  0  0  0  0  0
   -1.0106   -2.6970    5.9445 O   0  0  0  0  0  0  0  0  0  0  0  0
   -2.2841   -0.9725    4.8301 C   0  0  2  0  0  0  0  0  0  0  0  0
   -2.8422   -1.8761    3.8946 O   0  0  0  0  0  0  0  0  0  0  0  0
   -2.2000    0.4353    4.2251 C   0  0  1  0  0  0  0  0  0  0  0  0
   -3.5486    0.9383    3.9272 N   0  0  0  0  0  0  0  0  0  0  0  0
   -2.4208    5.9607    3.8672 C   0  0  2  0  0  0  0  0  0  0  0  0
   -3.6841    5.9055    3.2310 O   0  0  0  0  0  0  0  0  0  0  0  0
   -1.4241    6.8691    3.1489 C   0  0  2  0  0  0  0  0  0  0  0  0
   -2.0173    8.0070    2.5554 O   0  0  0  0  0  0  0  0  0  0  0  0
  2  1  1  0  0  0  0
  3  2  1  1  0  0  0
  3 30  1  0  0  0  0
  4  5  1  0  0  0  0
  4  3  1  0  0  0  0
  5 28  1  0  0  0  0
  5  6  1  1  0  0  0
  7  6  1  6  0  0  0
  8  7  1  0  0  0  0
  8  9  1  6  0  0  0
 10 11  1  1  0  0  0
 10  8  1  0  0  0  0
 12 10  1  0  0  0  0
 13 12  1  0  0  0  0
 13 15  1  0  0  0  0
 13 14  1  1  0  0  0
 15  7  1  0  0  0  0
 15 16  1  6  0  0  0
 17 16  1  1  0  0  0
 18 17  1  0  0  0  0
 19 20  1  6  0  0  0
 19 18  1  0  0  0  0
 20 21  1  0  0  0  0
 22 24  1  0  0  0  0
 22 19  1  0  0  0  0
 22 23  1  1  0  0  0
 24 25  1  6  0  0  0
 24 26  1  0  0  0  0
 26 17  1  0  0  0  0
 26 27  1  1  0  0  0
 28 29  1  6  0  0  0
 28 30  1  0  0  0  0
 30 31  1  6  0  0  0
M  END
>  <CHROM.1>
-177.02627467,61.28094127,174.08448433,-105.63707605,-173.28694825,-10.47294024
-47.58018206,71.84964779,74.64241599,-46.73108869,-168.79768998,-138.60411928
-52.30751605,-47.34869593,156.21669561,70.11470812,-1.51061577,3.05031962
5.22886838,-1.79033862,-1.23088980,2.67894358

>  <Name>
lig.pdb

>  <RI>
3.32461e+07

>  <Rbt.Current_Directory>
/home/itssahil/PROJECTS/Mol_Feturizer/New_Systems/rnas/2n0j

>  <Rbt.Executable>
rbdock ($Id: //depot/dev/client3/rdock/2013.1/src/exe/rbdock.cxx#4 $)

>  <Rbt.Library>
libRbt.so (2013.1, Build901 2013/11/27)

>  <Rbt.Parameter_File>
/export/apps/rDock/src/rDock_2013.1_src/data/scripts/dock_solv.prm

>  <Rbt.Receptor>
prm/pocket_docking_7.prm

>  <SCORE>
-36.4401

>  <SCORE.INTER>
-41.4226

>  <SCORE.INTER.CONST>
1

>  <SCORE.INTER.POLAR>
-5.6638

>  <SCORE.INTER.ROT>
6

>  <SCORE.INTER.SOLV>
19.4862

>  <SCORE.INTER.VDW>
-22.8311

>  <SCORE.INTER.norm>
-1.33621

>  <SCORE.INTRA>
4.98253

>  <SCORE.INTRA.DIHEDRAL>
-5.52933

>  <SCORE.INTRA.DIHEDRAL.0>
28.0161

>  <SCORE.INTRA.POLAR>
0.954489

>  <SCORE.INTRA.POLAR.0>
-1.05798

>  <SCORE.INTRA.REPUL>
0

>  <SCORE.INTRA.REPUL.0>
0

>  <SCORE.INTRA.SOLV>
0.36015

>  <SCORE.INTRA.SOLV.lig_0>
-42.5945

>  <SCORE.INTRA.VDW>
4.32185

>  <SCORE.INTRA.VDW.0>
-5.13869

>  <SCORE.INTRA.norm>
0.160727

>  <SCORE.RESTR>
0

>  <SCORE.RESTR.CAVITY>
0

>  <SCORE.RESTR.norm>
0

>  <SCORE.SYSTEM>
0

>  <SCORE.SYSTEM.CONST>
0

>  <SCORE.SYSTEM.DIHEDRAL>
0

>  <SCORE.SYSTEM.SOLV>
0

>  <SCORE.SYSTEM.norm>
0

>  <SCORE.heavy>
31

>  <SCORE.norm>
-1.17549

>  <RMSD>
7.000

$$$$
lig.pdb
 OpenBabel11021811453D
libRbt.so/2013.1/901 2013/11/27
 31 33  0  0  0  0  0  0  0  0999 V2000
    4.4104    2.6216    1.0737 O   0  0  0  0  0  0  0  0  0  0  0  0
    4.1378    3.6587    1.9958 C   0  0  0  0  0  0  0  0  0  0  0  0
    2.9214    4.4886    1.5634 C   0  0  1  0  0  0  0  0  0  0  0  0
    1.7417    3.7027    1.5014 O   0  0  0  0  0  0  0  0  0  0  0  0
    0.6021    4.5338    1.6999 C   0  0  1  0  0  0  0  0  0  0  0  0
   -0.2687    3.9388    2.6547 O   0  0  0  0  0  0  0  0  0  0  0  0
   -1.6213    4.3668    2.6520 C   0  0  2  0  0  0  0  0  0  0  0  0
   -1.7722    5.4467    3.7352 C   0  0  1  0  0  0  0  0  0  0  0  0
   -1.0833    6.6219    3.3379 O   0  0  0  0  0  0  0  0  0  0  0  0
   -3.2275    5.8456    4.0237 C   0  0  2  0  0  0  0  0  0  0  0  0
   -3.3012    6.8080    5.1338 N   0  0  0  0  0  0  0  0  0  0  0  0
   -4.0409    4.6049    4.3730 C   0  0  0  0  0  0  0  0  0  0  0  0
   -3.9339    3.5866    3.2444 C   0  0  2  0  0  0  0  0  0  0  0  0
   -4.7685    2.4286    3.5822 N   0  0  0  0  0  0  0  0  0  0  0  0
   -2.4600    3.1852    3.0208 C   0  0  1  0  0  0  0  0  0  0  0  0
   -2.4822    2.2204    1.9577 O   0  0  0  0  0  0  0  0  0  0  0  0
   -1.3186    1.4190    1.7837 C   0  0  1  0  0  0  0  0  0  0  0  0
   -0.9807    0.7522    2.9969 O   0  0  0  0  0  0  0  0  0  0  0  0
   -1.8779   -0.2701    3.4253 C   0  0  2  0  0  0  0  0  0  0  0  0
   -1.3558   -0.8720    4.7367 C   0  0  0  0  0  0  0  0  0  0  0  0
    0.0130   -1.3496    4.6024 N   0  0  0  0  0  0  0  0  0  0  0  0
   -2.0021   -1.3730    2.3578 C   0  0  1  0  0  0  0  0  0  0  0  0
   -2.9415   -2.3453    2.7804 O   0  0  0  0  0  0  0  0  0  0  0  0
   -2.4664   -0.7359    1.0421 C   0  0  2  0  0  0  0  0  0  0  0  0
   -2.5061   -1.7105    0.0167 O   0  0  0  0  0  0  0  0  0  0  0  0
   -1.5389    0.4196    0.6425 C   0  0  1  0  0  0  0  0  0  0  0  0
   -2.0660    1.1017   -0.5481 N   0  0  0  0  0  0  0  0  0  0  0  0
    1.1186    5.8747    2.2416 C   0  0  2  0  0  0  0  0  0  0  0  0
    0.9832    6.8769    1.2511 O   0  0  0  0  0  0  0  0  0  0  0  0
    2.5737    5.5636    2.5882 C   0  0  2  0  0  0  0  0  0  0  0  0
    3.4237    6.6924    2.5398 O   0  0  0  0  0  0  0  0  0  0  0  0
  2  1  1  0  0  0  0
  3  2  1  1  0  0  0
  3 30  1  0  0  0  0
  4  5  1  0  0  0  0
  4  3  1  0  0  0  0
  5 28  1  0  0  0  0
  5  6  1  1  0  0  0
  7  6  1  1  0  0  0
  8  7  1  0  0  0  0
  8  9  1  6  0  0  0
 10 11  1  1  0  0  0
 10  8  1  0  0  0  0
 12 10  1  0  0  0  0
 13 12  1  0  0  0  0
 13 15  1  0  0  0  0
 13 14  1  1  0  0  0
 15  7  1  0  0  0  0
 15 16  1  6  0  0  0
 17 16  1  1  0  0  0
 18 17  1  0  0  0  0
 19 20  1  1  0  0  0
 19 18  1  0  0  0  0
 20 21  1  0  0  0  0
 22 24  1  0  0  0  0
 22 19  1  0  0  0  0
 22 23  1  1  0  0  0
 24 25  1  6  0  0  0
 24 26  1  0  0  0  0
 26 17  1  0  0  0  0
 26 27  1  6  0  0  0
 28 29  1  6  0  0  0
 28 30  1  0  0  0  0
 30 31  1  6  0  0  0
M  END
>  <CHROM.1>
64.62611958,61.64864364,-159.44288083,-96.79962607,64.07312743,-60.75797253
174.66677195,75.60613981,54.73674452,-55.03167044,39.89355518,61.98475584
66.98014941,-153.01469769,56.42198272,68.20623574,-0.83138799,2.83094177
2.50086987,-0.99523658,-0.30738970,-2.93801930

>  <Name>
lig.pdb

>  <RI>
3.33129e+07

>  <Rbt.Current_Directory>
/home/itssahil/PROJECTS/Mol_Feturizer/New_Systems/rnas/2n0j

>  <Rbt.Executable>
rbdock ($Id: //depot/dev/client3/rdock/2013.1/src/exe/rbdock.cxx#4 $)

>  <Rbt.Library>
libRbt.so (2013.1, Build901 2013/11/27)

>  <Rbt.Parameter_File>
/export/apps/rDock/src/rDock_2013.1_src/data/scripts/dock_solv.prm

>  <Rbt.Receptor>
prm/pocket_docking_4.prm

>  <SCORE>
-35.6178

>  <SCORE.INTER>
-33.2912

>  <SCORE.INTER.CONST>
1

>  <SCORE.INTER.POLAR>
-3.81792

>  <SCORE.INTER.ROT>
6

>  <SCORE.INTER.SOLV>
14.459

>  <SCORE.INTER.VDW>
-21.8874

>  <SCORE.INTER.norm>
-1.07391

>  <SCORE.INTRA>
-2.3266

>  <SCORE.INTRA.DIHEDRAL>
-16.2175

>  <SCORE.INTRA.DIHEDRAL.0>
28.0161

>  <SCORE.INTRA.POLAR>
0.787404

>  <SCORE.INTRA.POLAR.0>
-1.05798

>  <SCORE.INTRA.REPUL>
0.000179624

>  <SCORE.INTRA.REPUL.0>
0

>  <SCORE.INTRA.SOLV>
0.343851

>  <SCORE.INTRA.SOLV.lig_0>
-42.5945

>  <SCORE.INTRA.VDW>
2.93214

>  <SCORE.INTRA.VDW.0>
-5.13869

>  <SCORE.INTRA.norm>
-0.0750515

>  <SCORE.RESTR>
0

>  <SCORE.RESTR.CAVITY>
0

>  <SCORE.RESTR.norm>
0

>  <SCORE.SYSTEM>
0

>  <SCORE.SYSTEM.CONST>
0

>  <SCORE.SYSTEM.DIHEDRAL>
0

>  <SCORE.SYSTEM.SOLV>
0

>  <SCORE.SYSTEM.norm>
0

>  <SCORE.heavy>
31

>  <SCORE.norm>
-1.14896

>  <RMSD>
7.006

$$$$
lig.pdb
 OpenBabel11021811453D
libRbt.so/2013.1/901 2013/11/27
 31 33  0  0  0  0  0  0  0  0999 V2000
   -0.4636   -1.2554    0.9344 O   0  0  0  0  0  0  0  0  0  0  0  0
   -0.3644   -0.1493    1.8102 C   0  0  0  0  0  0  0  0  0  0  0  0
    0.9963    0.5485    1.6807 C   0  0  1  0  0  0  0  0  0  0  0  0
    0.8552    1.9422    1.4556 O   0  0  0  0  0  0  0  0  0  0  0  0
    2.0135    2.6231    1.9284 C   0  0  1  0  0  0  0  0  0  0  0  0
    1.6272    3.7416    2.7181 O   0  0  0  0  0  0  0  0  0  0  0  0
    1.1791    4.8973    2.0279 C   0  0  2  0  0  0  0  0  0  0  0  0
    2.3168    5.9302    2.0577 C   0  0  1  0  0  0  0  0  0  0  0  0
    3.3873    5.4861    1.2390 O   0  0  0  0  0  0  0  0  0  0  0  0
    1.9093    7.3254    1.5602 C   0  0  2  0  0  0  0  0  0  0  0  0
    3.0164    8.2829    1.7077 N   0  0  0  0  0  0  0  0  0  0  0  0
    0.7024    7.8201    2.3486 C   0  0  0  0  0  0  0  0  0  0  0  0
   -0.4339    6.8113    2.2339 C   0  0  2  0  0  0  0  0  0  0  0  0
   -1.5978    7.3379    2.9549 N   0  0  0  0  0  0  0  0  0  0  0  0
    0.0086    5.4385    2.7846 C   0  0  1  0  0  0  0  0  0  0  0  0
   -1.1346    4.5815    2.6424 O   0  0  0  0  0  0  0  0  0  0  0  0
   -1.2129    3.4544    3.5085 C   0  0  1  0  0  0  0  0  0  0  0  0
   -1.3812    3.8699    4.8611 O   0  0  0  0  0  0  0  0  0  0  0  0
   -2.6331    4.4712    5.1848 C   0  0  2  0  0  0  0  0  0  0  0  0
   -2.6330    4.8494    6.6720 C   0  0  0  0  0  0  0  0  0  0  0  0
   -1.8736    3.8971    7.4696 N   0  0  0  0  0  0  0  0  0  0  0  0
   -3.7967    3.5060    4.8917 C   0  0  1  0  0  0  0  0  0  0  0  0
   -5.0305    4.1459    5.1654 O   0  0  0  0  0  0  0  0  0  0  0  0
   -3.7376    3.0964    3.4149 C   0  0  2  0  0  0  0  0  0  0  0  0
   -4.7427    2.1403    3.1344 O   0  0  0  0  0  0  0  0  0  0  0  0
   -2.3541    2.5327    3.0638 C   0  0  1  0  0  0  0  0  0  0  0  0
   -2.2696    2.2637    1.6212 N   0  0  0  0  0  0  0  0  0  0  0  0
    2.7921    1.6251    2.7978 C   0  0  2  0  0  0  0  0  0  0  0  0
    3.9776    1.2313    2.1323 O   0  0  0  0  0  0  0  0  0  0  0  0
    1.7950    0.4816    2.9786 C   0  0  2  0  0  0  0  0  0  0  0  0
    2.4045   -0.7734    3.2079 O   0  0  0  0  0  0  0  0  0  0  0  0
  2  1  1  0  0  0  0
  3  2  1  1  0  0  0
  3 30  1  0  0  0  0
  4  5  1  0  0  0  0
  4  3  1  0  0  0  0
  5 28  1  0  0  0  0
  5  6  1  1  0  0  0
  7  6  1  1  0  0  0
  8  7  1  0  0  0  0
  8  9  1  6  0  0  0
 10 11  1  1  0  0  0
 10  8  1  0  0  0  0
 12 10  1  0  0  0  0
 13 12  1  0  0  0  0
 13 15  1  0  0  0  0
 13 14  1  1  0  0  0
 15  7  1  0  0  0  0
 15 16  1  6  0  0  0
 17 16  1  6  0  0  0
 18 17  1  0  0  0  0
 19 20  1  1  0  0  0
 19 18  1  0  0  0  0
 20 21  1  0  0  0  0
 22 24  1  0  0  0  0
 22 19  1  0  0  0  0
 22 23  1  6  0  0  0
 24 25  1  1  0  0  0
 24 26  1  0  0  0  0
 26 17  1  0  0  0  0
 26 27  1  6  0  0  0
 28 29  1  6  0  0  0
 28 30  1  0  0  0  0
 30 31  1  6  0  0  0
M  END
>  <CHROM.1>
51.83594409,127.58967076,-77.32518346,-103.60058383,67.20951616,-66.72397168
29.32105656,83.19605062,66.26679109,-33.95748199,-56.86213126,56.77778727
175.65928258,39.61675658,-75.43653875,-55.84925384,-0.22261774,3.58761611
2.96902043,0.19057274,-0.43967938,-3.06228996

>  <Name>
lig.pdb

>  <RI>
3.33129e+07

>  <Rbt.Current_Directory>
/home/itssahil/PROJECTS/Mol_Feturizer/New_Systems/rnas/2n0j

>  <Rbt.Executable>
rbdock ($Id: //depot/dev/client3/rdock/2013.1/src/exe/rbdock.cxx#4 $)

>  <Rbt.Library>
libRbt.so (2013.1, Build901 2013/11/27)

>  <Rbt.Parameter_File>
/export/apps/rDock/src/rDock_2013.1_src/data/scripts/dock_solv.prm

>  <Rbt.Receptor>
prm/pocket_docking_4.prm

>  <SCORE>
-43.7293

>  <SCORE.INTER>
-42.1238

>  <SCORE.INTER.CONST>
1

>  <SCORE.INTER.POLAR>
-5.0004

>  <SCORE.INTER.ROT>
6

>  <SCORE.INTER.SOLV>
13.9953

>  <SCORE.INTER.VDW>
-23.6796

>  <SCORE.INTER.norm>
-1.35883

>  <SCORE.INTRA>
-1.61917

>  <SCORE.INTRA.DIHEDRAL>
-5.95139

>  <SCORE.INTRA.DIHEDRAL.0>
28.0161

>  <SCORE.INTRA.POLAR>
0.116639

>  <SCORE.INTRA.POLAR.0>
-1.05798

>  <SCORE.INTRA.REPUL>
0

>  <SCORE.INTRA.REPUL.0>
0

>  <SCORE.INTRA.SOLV>
-0.0515743

>  <SCORE.INTRA.SOLV.lig_0>
-42.5945

>  <SCORE.INTRA.VDW>
0.985737

>  <SCORE.INTRA.VDW.0>
-5.13869

>  <SCORE.INTRA.norm>
-0.0522314

>  <SCORE.RESTR>
0.0136901

>  <SCORE.RESTR.CAVITY>
0.0136901

>  <SCORE.RESTR.norm>
0.000441616

>  <SCORE.SYSTEM>
0

>  <SCORE.SYSTEM.CONST>
0

>  <SCORE.SYSTEM.DIHEDRAL>
0

>  <SCORE.SYSTEM.SOLV>
0

>  <SCORE.SYSTEM.norm>
0

>  <SCORE.heavy>
31

>  <SCORE.norm>
-1.41062

>  <RMSD>
7.014

$$$$
lig.pdb
 OpenBabel11021811453D
libRbt.so/2013.1/901 2013/11/27
 31 33  0  0  0  0  0  0  0  0999 V2000
    6.2477    3.4963    1.5590 O   0  0  0  0  0  0  0  0  0  0  0  0
    4.9410    3.0238    1.2954 C   0  0  0  0  0  0  0  0  0  0  0  0
    3.9252    4.1737    1.2594 C   0  0  1  0  0  0  0  0  0  0  0  0
    2.6035    3.7036    1.0472 O   0  0  0  0  0  0  0  0  0  0  0  0
    1.6720    4.6287    1.5997 C   0  0  1  0  0  0  0  0  0  0  0  0
    0.7075    3.9339    2.3813 O   0  0  0  0  0  0  0  0  0  0  0  0
   -0.6590    4.2109    2.1192 C   0  0  2  0  0  0  0  0  0  0  0  0
   -1.0864    5.3665    3.0379 C   0  0  1  0  0  0  0  0  0  0  0  0
   -0.4510    6.5660    2.6246 O   0  0  0  0  0  0  0  0  0  0  0  0
   -2.5997    5.6313    3.0487 C   0  0  2  0  0  0  0  0  0  0  0  0
   -2.9452    6.6816    4.0190 N   0  0  0  0  0  0  0  0  0  0  0  0
   -3.3434    4.3490    3.4027 C   0  0  0  0  0  0  0  0  0  0  0  0
   -2.9571    3.2453    2.4257 C   0  0  2  0  0  0  0  0  0  0  0  0
   -3.7273    2.0413    2.7558 N   0  0  0  0  0  0  0  0  0  0  0  0
   -1.4361    2.9862    2.4817 C   0  0  1  0  0  0  0  0  0  0  0  0
   -1.1925    1.9277    1.5427 O   0  0  0  0  0  0  0  0  0  0  0  0
    0.0678    1.2700    1.6183 C   0  0  1  0  0  0  0  0  0  0  0  0
    0.4270    1.0248    2.9753 O   0  0  0  0  0  0  0  0  0  0  0  0
   -0.3570    0.0573    3.6700 C   0  0  2  0  0  0  0  0  0  0  0  0
    0.1722   -0.0742    5.1043 C   0  0  0  0  0  0  0  0  0  0  0  0
    1.6065   -0.3227    5.1283 N   0  0  0  0  0  0  0  0  0  0  0  0
   -0.2937   -1.3094    2.9630 C   0  0  1  0  0  0  0  0  0  0  0  0
   -1.1255   -2.2367    3.6374 O   0  0  0  0  0  0  0  0  0  0  0  0
   -0.7698   -1.1381    1.5151 C   0  0  2  0  0  0  0  0  0  0  0  0
   -0.6405   -2.3598    0.8125 O   0  0  0  0  0  0  0  0  0  0  0  0
    0.0266   -0.0318    0.8100 C   0  0  1  0  0  0  0  0  0  0  0  0
   -0.5232    0.2094   -0.5317 N   0  0  0  0  0  0  0  0  0  0  0  0
    2.4723    5.5816    2.4997 C   0  0  2  0  0  0  0  0  0  0  0  0
    2.5411    6.8626    1.9016 O   0  0  0  0  0  0  0  0  0  0  0  0
    3.8314    4.8911    2.6022 C   0  0  2  0  0  0  0  0  0  0  0  0
    4.9033    5.7795    2.8491 O   0  0  0  0  0  0  0  0  0  0  0  0
  2  1  1  0  0  0  0
  3  2  1  1  0  0  0
  3 30  1  0  0  0  0
  4  5  1  0  0  0  0
  4  3  1  0  0  0  0
  5 28  1  0  0  0  0
  5  6  1  1  0  0  0
  7  6  1  1  0  0  0
  8  7  1  0  0  0  0
  8  9  1  6  0  0  0
 10 11  1  1  0  0  0
 10  8  1  0  0  0  0
 12 10  1  0  0  0  0
 13 12  1  0  0  0  0
 13 15  1  0  0  0  0
 13 14  1  1  0  0  0
 15  7  1  0  0  0  0
 15 16  1  6  0  0  0
 17 16  1  1  0  0  0
 18 17  1  0  0  0  0
 19 20  1  1  0  0  0
 19 18  1  0  0  0  0
 20 21  1  0  0  0  0
 22 24  1  0  0  0  0
 22 19  1  0  0  0  0
 22 23  1  1  0  0  0
 24 25  1  6  0  0  0
 24 26  1  0  0  0  0
 26 17  1  0  0  0  0
 26 27  1  6  0  0  0
 28 29  1  6  0  0  0
 28 30  1  0  0  0  0
 30 31  1  6  0  0  0
M  END
>  <CHROM.1>
167.73428992,-177.71003917,-129.30477136,-90.73969201,-157.99743853,-176.89895619
63.99994749,73.81339578,42.45668595,-52.29670067,82.61136255,-147.33280521
58.58774192,90.56415222,-55.46552833,-176.31711485,0.41441212,2.70428004
2.39757943,-0.95420341,-0.15342099,-3.08692089

>  <Name>
lig.pdb

>  <RI>
0

>  <Rbt.Current_Directory>
/home/itssahil/PROJECTS/Mol_Feturizer/New_Systems/rnas/2n0j

>  <Rbt.Executable>
rbdock ($Id: //depot/dev/client3/rdock/2013.1/src/exe/rbdock.cxx#4 $)

>  <Rbt.Library>
libRbt.so (2013.1, Build901 2013/11/27)

>  <Rbt.Parameter_File>
/export/apps/rDock/src/rDock_2013.1_src/data/scripts/dock_solv.prm

>  <Rbt.Receptor>
prm/pocket_docking_5.prm

>  <SCORE>
-42.4714

>  <SCORE.INTER>
-44.8363

>  <SCORE.INTER.CONST>
1

>  <SCORE.INTER.POLAR>
-5.69857

>  <SCORE.INTER.ROT>
6

>  <SCORE.INTER.SOLV>
17.3202

>  <SCORE.INTER.VDW>
-24.269

>  <SCORE.INTER.norm>
-1.44633

>  <SCORE.INTRA>
2.35829

>  <SCORE.INTRA.DIHEDRAL>
-4.51789

>  <SCORE.INTRA.DIHEDRAL.0>
28.0161

>  <SCORE.INTRA.POLAR>
0.872705

>  <SCORE.INTRA.POLAR.0>
-1.05798

>  <SCORE.INTRA.REPUL>
0

>  <SCORE.INTRA.REPUL.0>
0

>  <SCORE.INTRA.SOLV>
0.669513

>  <SCORE.INTRA.SOLV.lig_0>
-42.5945

>  <SCORE.INTRA.VDW>
1.31528

>  <SCORE.INTRA.VDW.0>
-5.13869

>  <SCORE.INTRA.norm>
0.0760739

>  <SCORE.RESTR>
0.00654547

>  <SCORE.RESTR.CAVITY>
0.00654547

>  <SCORE.RESTR.norm>
0.000211144

>  <SCORE.SYSTEM>
0

>  <SCORE.SYSTEM.CONST>
0

>  <SCORE.SYSTEM.DIHEDRAL>
0

>  <SCORE.SYSTEM.SOLV>
0

>  <SCORE.SYSTEM.norm>
0

>  <SCORE.heavy>
31

>  <SCORE.norm>
-1.37005

>  <RMSD>
7.014

$$$$
lig.pdb
 OpenBabel11021811453D
libRbt.so/2013.1/901 2013/11/27
 31 33  0  0  0  0  0  0  0  0999 V2000
    1.2241   -1.4566    4.7913 O   0  0  0  0  0  0  0  0  0  0  0  0
    1.9518   -0.8189    3.7598 C   0  0  0  0  0  0  0  0  0  0  0  0
    1.1569    0.3424    3.1477 C   0  0  1  0  0  0  0  0  0  0  0  0
    1.7547    1.5977    3.4303 O   0  0  0  0  0  0  0  0  0  0  0  0
    1.4002    2.5352    2.4182 C   0  0  1  0  0  0  0  0  0  0  0  0
    2.5611    3.2263    1.9726 O   0  0  0  0  0  0  0  0  0  0  0  0
    2.6390    4.6134    2.2605 C   0  0  2  0  0  0  0  0  0  0  0  0
    1.2046    5.1344    2.4425 C   0  0  1  0  0  0  0  0  0  0  0  0
    0.6532    4.6085    3.6396 O   0  0  0  0  0  0  0  0  0  0  0  0
    1.0998    6.6649    2.5250 C   0  0  2  0  0  0  0  0  0  0  0  0
   -0.3050    7.0948    2.6008 N   0  0  0  0  0  0  0  0  0  0  0  0
    1.7569    7.2918    1.3009 C   0  0  0  0  0  0  0  0  0  0  0  0
    3.2007    6.8166    1.1937 C   0  0  2  0  0  0  0  0  0  0  0  0
    3.8232    7.4768    0.0412 N   0  0  0  0  0  0  0  0  0  0  0  0
    3.2524    5.2785    1.0702 C   0  0  1  0  0  0  0  0  0  0  0  0
    4.6456    4.9491    0.9600 O   0  0  0  0  0  0  0  0  0  0  0  0
    5.0475    4.2005   -0.1822 C   0  0  1  0  0  0  0  0  0  0  0  0
    5.7451    5.0298   -1.1075 O   0  0  0  0  0  0  0  0  0  0  0  0
    7.0300    5.4914   -0.6959 C   0  0  2  0  0  0  0  0  0  0  0  0
    7.6262    6.3612   -1.8106 C   0  0  0  0  0  0  0  0  0  0  0  0
    7.5790    5.6891   -3.1013 N   0  0  0  0  0  0  0  0  0  0  0  0
    7.9687    4.3071   -0.3994 C   0  0  1  0  0  0  0  0  0  0  0  0
    9.2176    4.7898    0.0629 O   0  0  0  0  0  0  0  0  0  0  0  0
    7.3219    3.4217    0.6730 C   0  0  2  0  0  0  0  0  0  0  0  0
    8.1202    2.2763    0.9049 O   0  0  0  0  0  0  0  0  0  0  0  0
    5.9058    3.0068    0.2515 C   0  0  1  0  0  0  0  0  0  0  0  0
    5.2512    2.2673    1.3401 N   0  0  0  0  0  0  0  0  0  0  0  0
    0.8040    1.7295    1.2548 C   0  0  2  0  0  0  0  0  0  0  0  0
   -0.5903    1.9602    1.1758 O   0  0  0  0  0  0  0  0  0  0  0  0
    1.1560    0.2891    1.6232 C   0  0  2  0  0  0  0  0  0  0  0  0
    0.2647   -0.6689    1.0877 O   0  0  0  0  0  0  0  0  0  0  0  0
  2  1  1  0  0  0  0
  3  2  1  1  0  0  0
  3 30  1  0  0  0  0
  4  5  1  0  0  0  0
  4  3  1  0  0  0  0
  5 28  1  0  0  0  0
  5  6  1  6  0  0  0
  7  6  1  6  0  0  0
  8  7  1  0  0  0  0
  8  9  1  1  0  0  0
 10 11  1  6  0  0  0
 10  8  1  0  0  0  0
 12 10  1  0  0  0  0
 13 12  1  0  0  0  0
 13 15  1  0  0  0  0
 13 14  1  6  0  0  0
 15  7  1  0  0  0  0
 15 16  1  1  0  0  0
 17 16  1  1  0  0  0
 18 17  1  0  0  0  0
 19 20  1  6  0  0  0
 19 18  1  0  0  0  0
 20 21  1  0  0  0  0
 22 24  1  0  0  0  0
 22 19  1  0  0  0  0
 22 23  1  1  0  0  0
 24 25  1  6  0  0  0
 24 26  1  0  0  0  0
 26 17  1  0  0  0  0
 26 27  1  1  0  0  0
 28 29  1  1  0  0  0
 28 30  1  0  0  0  0
 30 31  1  1  0  0  0
M  END
>  <CHROM.1>
84.87400583,112.78130218,-113.28332425,-24.27044098,-170.93603362,-144.00329734
34.16827795,115.49275668,106.05549562,-50.91020165,158.32343593,178.71174850
-57.87655812,-173.19669397,79.54047728,-77.05244591,3.56086862,3.69710397
1.24239615,-2.56848528,0.39222312,-0.21545835

>  <Name>
lig.pdb

>  <RI>
0

>  <Rbt.Current_Directory>
/home/itssahil/PROJECTS/Mol_Feturizer/New_Systems/rnas/2n0j

>  <Rbt.Executable>
rbdock ($Id: //depot/dev/client3/rdock/2013.1/src/exe/rbdock.cxx#4 $)

>  <Rbt.Library>
libRbt.so (2013.1, Build901 2013/11/27)

>  <Rbt.Parameter_File>
/export/apps/rDock/src/rDock_2013.1_src/data/scripts/dock_solv.prm

>  <Rbt.Receptor>
prm/blind_docking_40.prm

>  <SCORE>
-13.0469

>  <SCORE.INTER>
-39.2386

>  <SCORE.INTER.CONST>
1

>  <SCORE.INTER.POLAR>
-5.51729

>  <SCORE.INTER.ROT>
6

>  <SCORE.INTER.SOLV>
22.4127

>  <SCORE.INTER.VDW>
-22.839

>  <SCORE.INTER.norm>
-1.26576

>  <SCORE.INTRA>
16.2636

>  <SCORE.INTRA.DIHEDRAL>
13.5744

>  <SCORE.INTRA.DIHEDRAL.0>
28.0161

>  <SCORE.INTRA.POLAR>
0.934101

>  <SCORE.INTRA.POLAR.0>
-1.05798

>  <SCORE.INTRA.REPUL>
0

>  <SCORE.INTRA.REPUL.0>
0

>  <SCORE.INTRA.SOLV>
0.344438

>  <SCORE.INTRA.SOLV.lig_0>
-42.5945

>  <SCORE.INTRA.VDW>
6.12823

>  <SCORE.INTRA.VDW.0>
-5.13869

>  <SCORE.INTRA.norm>
0.524631

>  <SCORE.RESTR>
9.9281

>  <SCORE.RESTR.CAVITY>
9.9281

>  <SCORE.RESTR.norm>
0.320261

>  <SCORE.SYSTEM>
0

>  <SCORE.SYSTEM.CONST>
0

>  <SCORE.SYSTEM.DIHEDRAL>
0

>  <SCORE.SYSTEM.SOLV>
0

>  <SCORE.SYSTEM.norm>
0

>  <SCORE.heavy>
31

>  <SCORE.norm>
-0.420868

>  <RMSD>
7.035

$$$$
lig.pdb
 OpenBabel11021811453D
libRbt.so/2013.1/901 2013/11/27
 31 33  0  0  0  0  0  0  0  0999 V2000
    3.1675    0.9839    3.1554 O   0  0  0  0  0  0  0  0  0  0  0  0
    3.8215    1.8404    2.2395 C   0  0  0  0  0  0  0  0  0  0  0  0
    2.8598    2.8919    1.6697 C   0  0  1  0  0  0  0  0  0  0  0  0
    1.5189    2.4284    1.6567 O   0  0  0  0  0  0  0  0  0  0  0  0
    0.6283    3.5384    1.7158 C   0  0  1  0  0  0  0  0  0  0  0  0
   -0.3708    3.3037    2.7011 O   0  0  0  0  0  0  0  0  0  0  0  0
   -1.6137    3.9668    2.5332 C   0  0  2  0  0  0  0  0  0  0  0  0
   -1.6277    5.1800    3.4767 C   0  0  1  0  0  0  0  0  0  0  0  0
   -0.7024    6.1531    3.0180 O   0  0  0  0  0  0  0  0  0  0  0  0
   -2.9961    5.8688    3.5911 C   0  0  2  0  0  0  0  0  0  0  0  0
   -2.9588    6.9566    4.5808 N   0  0  0  0  0  0  0  0  0  0  0  0
   -4.0527    4.8485    3.9984 C   0  0  0  0  0  0  0  0  0  0  0  0
   -4.0669    3.6979    2.9994 C   0  0  2  0  0  0  0  0  0  0  0  0
   -5.1276    2.7608    3.3844 N   0  0  0  0  0  0  0  0  0  0  0  0
   -2.6849    3.0112    2.9510 C   0  0  1  0  0  0  0  0  0  0  0  0
   -2.8199    1.9442    1.9998 O   0  0  0  0  0  0  0  0  0  0  0  0
   -1.6970    1.0875    1.8213 C   0  0  1  0  0  0  0  0  0  0  0  0
   -1.4794    0.2941    2.9848 O   0  0  0  0  0  0  0  0  0  0  0  0
   -2.4618   -0.7018    3.2616 C   0  0  2  0  0  0  0  0  0  0  0  0
   -2.0631   -1.4515    4.5397 C   0  0  0  0  0  0  0  0  0  0  0  0
   -0.6273   -1.6850    4.6012 N   0  0  0  0  0  0  0  0  0  0  0  0
   -2.5812   -1.6942    2.0901 C   0  0  1  0  0  0  0  0  0  0  0  0
   -3.6023   -2.6372    2.3632 O   0  0  0  0  0  0  0  0  0  0  0  0
   -2.9199   -0.9129    0.8144 C   0  0  2  0  0  0  0  0  0  0  0  0
   -2.9503   -1.7871   -0.2982 O   0  0  0  0  0  0  0  0  0  0  0  0
   -1.9013    0.2109    0.5806 C   0  0  1  0  0  0  0  0  0  0  0  0
   -2.3080    1.0298   -0.5703 N   0  0  0  0  0  0  0  0  0  0  0  0
    1.4672    4.7607    2.1162 C   0  0  2  0  0  0  0  0  0  0  0  0
    1.5975    5.6363    1.0117 O   0  0  0  0  0  0  0  0  0  0  0  0
    2.7927    4.1363    2.5492 C   0  0  2  0  0  0  0  0  0  0  0  0
    3.9031    4.9990    2.4007 O   0  0  0  0  0  0  0  0  0  0  0  0
  2  1  1  0  0  0  0
  3  2  1  1  0  0  0
  3 30  1  0  0  0  0
  4  5  1  0  0  0  0
  4  3  1  0  0  0  0
  5 28  1  0  0  0  0
  5  6  1  1  0  0  0
  7  6  1  1  0  0  0
  8  7  1  0  0  0  0
  8  9  1  6  0  0  0
 10 11  1  1  0  0  0
 10  8  1  0  0  0  0
 12 10  1  0  0  0  0
 13 12  1  0  0  0  0
 13 15  1  0  0  0  0
 13 14  1  1  0  0  0
 15  7  1  0  0  0  0
 15 16  1  6  0  0  0
 17 16  1  1  0  0  0
 18 17  1  0  0  0  0
 19 20  1  1  0  0  0
 19 18  1  0  0  0  0
 20 21  1  0  0  0  0
 22 24  1  0  0  0  0
 22 19  1  0  0  0  0
 22 23  1  1  0  0  0
 24 25  1  6  0  0  0
 24 26  1  0  0  0  0
 26 17  1  0  0  0  0
 26 27  1  6  0  0  0
 28 29  1  6  0  0  0
 28 30  1  0  0  0  0
 30 31  1  6  0  0  0
M  END
>  <CHROM.1>
-62.82865550,-27.72314821,-153.99414377,-101.05360498,-170.76024371,-171.04025853
-173.63389732,62.91806520,68.68389759,-39.43673388,29.35094152,64.93272284
173.69273583,-147.20615858,63.31999479,62.30744052,-1.01907556,2.27232266
2.44633894,-0.96516386,-0.13483195,-2.96936535

>  <Name>
lig.pdb

>  <RI>
3.50357e+07

>  <Rbt.Current_Directory>
/home/itssahil/PROJECTS/Mol_Feturizer/New_Systems/rnas/2n0j

>  <Rbt.Executable>
rbdock ($Id: //depot/dev/client3/rdock/2013.1/src/exe/rbdock.cxx#4 $)

>  <Rbt.Library>
libRbt.so (2013.1, Build901 2013/11/27)

>  <Rbt.Parameter_File>
/export/apps/rDock/src/rDock_2013.1_src/data/scripts/dock_solv.prm

>  <Rbt.Receptor>
prm/pocket_docking_3.prm

>  <SCORE>
-36.5876

>  <SCORE.INTER>
-37.8663

>  <SCORE.INTER.CONST>
1

>  <SCORE.INTER.POLAR>
-4.65473

>  <SCORE.INTER.ROT>
6

>  <SCORE.INTER.SOLV>
15.3887

>  <SCORE.INTER.VDW>
-22.458

>  <SCORE.INTER.norm>
-1.22149

>  <SCORE.INTRA>
0.990703

>  <SCORE.INTRA.DIHEDRAL>
-9.49117

>  <SCORE.INTRA.DIHEDRAL.0>
28.0161

>  <SCORE.INTRA.POLAR>
0.623229

>  <SCORE.INTRA.POLAR.0>
-1.05798

>  <SCORE.INTRA.REPUL>
0

>  <SCORE.INTRA.REPUL.0>
0

>  <SCORE.INTRA.SOLV>
0.386332

>  <SCORE.INTRA.SOLV.lig_0>
-42.5945

>  <SCORE.INTRA.VDW>
3.42414

>  <SCORE.INTRA.VDW.0>
-5.13869

>  <SCORE.INTRA.norm>
0.0319582

>  <SCORE.RESTR>
0.288023

>  <SCORE.RESTR.CAVITY>
0.288023

>  <SCORE.RESTR.norm>
0.00929107

>  <SCORE.SYSTEM>
0

>  <SCORE.SYSTEM.CONST>
0

>  <SCORE.SYSTEM.DIHEDRAL>
0

>  <SCORE.SYSTEM.SOLV>
0

>  <SCORE.SYSTEM.norm>
0

>  <SCORE.heavy>
31

>  <SCORE.norm>
-1.18024

>  <RMSD>
7.049

$$$$
lig.pdb
 OpenBabel11021811453D
libRbt.so/2013.1/901 2013/11/27
 31 33  0  0  0  0  0  0  0  0999 V2000
    2.7666    8.1269   -0.1736 O   0  0  0  0  0  0  0  0  0  0  0  0
    1.7070    8.1534    0.7627 C   0  0  0  0  0  0  0  0  0  0  0  0
    1.7119    6.9022    1.6513 C   0  0  1  0  0  0  0  0  0  0  0  0
    0.4407    6.6644    2.2347 O   0  0  0  0  0  0  0  0  0  0  0  0
    0.2973    5.2764    2.5205 C   0  0  1  0  0  0  0  0  0  0  0  0
   -0.9623    4.8139    2.0480 O   0  0  0  0  0  0  0  0  0  0  0  0
   -2.0805    4.9960    2.9020 C   0  0  2  0  0  0  0  0  0  0  0  0
   -1.9793    6.4034    3.5112 C   0  0  1  0  0  0  0  0  0  0  0  0
   -2.2067    7.3775    2.5047 O   0  0  0  0  0  0  0  0  0  0  0  0
   -2.9850    6.6705    4.6413 C   0  0  2  0  0  0  0  0  0  0  0  0
   -2.7668    7.9963    5.2402 N   0  0  0  0  0  0  0  0  0  0  0  0
   -2.8466    5.5992    5.7165 C   0  0  0  0  0  0  0  0  0  0  0  0
   -3.0302    4.2206    5.0939 C   0  0  2  0  0  0  0  0  0  0  0  0
   -2.9466    3.2147    6.1583 N   0  0  0  0  0  0  0  0  0  0  0  0
   -1.9719    3.9819    3.9953 C   0  0  1  0  0  0  0  0  0  0  0  0
   -2.2285    2.6603    3.4962 O   0  0  0  0  0  0  0  0  0  0  0  0
   -1.0980    1.8528    3.1856 C   0  0  1  0  0  0  0  0  0  0  0  0
   -0.8984    0.8595    4.1877 O   0  0  0  0  0  0  0  0  0  0  0  0
   -1.8807   -0.1718    4.2575 C   0  0  2  0  0  0  0  0  0  0  0  0
   -1.5025   -1.1429    5.3838 C   0  0  0  0  0  0  0  0  0  0  0  0
   -0.1262   -1.6013    5.2599 N   0  0  0  0  0  0  0  0  0  0  0  0
   -1.9726   -0.9324    2.9216 C   0  0  1  0  0  0  0  0  0  0  0  0
   -2.9938   -1.9112    2.9968 O   0  0  0  0  0  0  0  0  0  0  0  0
   -2.2911    0.0694    1.8047 C   0  0  2  0  0  0  0  0  0  0  0  0
   -2.2957   -0.5856    0.5501 O   0  0  0  0  0  0  0  0  0  0  0  0
   -1.2740    1.2186    1.8012 C   0  0  1  0  0  0  0  0  0  0  0  0
   -1.6630    2.2343    0.8125 N   0  0  0  0  0  0  0  0  0  0  0  0
    1.4247    4.5497    1.7727 C   0  0  2  0  0  0  0  0  0  0  0  0
    2.3839    4.0715    2.6973 O   0  0  0  0  0  0  0  0  0  0  0  0
    1.9710    5.6336    0.8448 C   0  0  2  0  0  0  0  0  0  0  0  0
    3.3280    5.4500    0.4929 O   0  0  0  0  0  0  0  0  0  0  0  0
  2  1  1  0  0  0  0
  3  2  1  6  0  0  0
  3 30  1  0  0  0  0
  4  5  1  0  0  0  0
  4  3  1  0  0  0  0
  5 28  1  0  0  0  0
  5  6  1  6  0  0  0
  7  6  1  6  0  0  0
  8  7  1  0  0  0  0
  8  9  1  6  0  0  0
 10 11  1  1  0  0  0
 10  8  1  0  0  0  0
 12 10  1  0  0  0  0
 13 12  1  0  0  0  0
 13 15  1  0  0  0  0
 13 14  1  1  0  0  0
 15  7  1  0  0  0  0
 15 16  1  6  0  0  0
 17 16  1  1  0  0  0
 18 17  1  0  0  0  0
 19 20  1  1  0  0  0
 19 18  1  0  0  0  0
 20 21  1  0  0  0  0
 22 24  1  0  0  0  0
 22 19  1  0  0  0  0
 22 23  1  1  0  0  0
 24 25  1  6  0  0  0
 24 26  1  0  0  0  0
 26 17  1  0  0  0  0
 26 27  1  6  0  0  0
 28 29  1  1  0  0  0
 28 30  1  0  0  0  0
 30 31  1  1  0  0  0
M  END
>  <CHROM.1>
-167.12081900,-158.60028531,-84.53283078,42.35098229,-68.76650259,148.11798712
-53.63420981,98.29471990,104.68506257,-51.48770038,34.85394255,-179.20952515
-60.50553436,-73.42003801,58.35185909,-45.48273105,-0.87533895,3.62533046
2.92432081,-1.09941834,-0.73860466,-3.04877768

>  <Name>
lig.pdb

>  <RI>
0

>  <Rbt.Current_Directory>
/home/itssahil/PROJECTS/Mol_Feturizer/New_Systems/rnas/2n0j

>  <Rbt.Executable>
rbdock ($Id: //depot/dev/client3/rdock/2013.1/src/exe/rbdock.cxx#4 $)

>  <Rbt.Library>
libRbt.so (2013.1, Build901 2013/11/27)

>  <Rbt.Parameter_File>
/export/apps/rDock/src/rDock_2013.1_src/data/scripts/dock_solv.prm

>  <Rbt.Receptor>
prm/pocket_docking_5.prm

>  <SCORE>
-37.4886

>  <SCORE.INTER>
-34.9255

>  <SCORE.INTER.CONST>
1

>  <SCORE.INTER.POLAR>
-3.93169

>  <SCORE.INTER.ROT>
6

>  <SCORE.INTER.SOLV>
16.6338

>  <SCORE.INTER.VDW>
-23.3226

>  <SCORE.INTER.norm>
-1.12663

>  <SCORE.INTRA>
-2.56314

>  <SCORE.INTRA.DIHEDRAL>
-4.72904

>  <SCORE.INTRA.DIHEDRAL.0>
28.0161

>  <SCORE.INTRA.POLAR>
-1.06853

>  <SCORE.INTRA.POLAR.0>
-1.05798

>  <SCORE.INTRA.REPUL>
0

>  <SCORE.INTRA.REPUL.0>
0

>  <SCORE.INTRA.SOLV>
0.995338

>  <SCORE.INTRA.SOLV.lig_0>
-42.5945

>  <SCORE.INTRA.VDW>
2.93672

>  <SCORE.INTRA.VDW.0>
-5.13869

>  <SCORE.INTRA.norm>
-0.0826819

>  <SCORE.RESTR>
0

>  <SCORE.RESTR.CAVITY>
0

>  <SCORE.RESTR.norm>
0

>  <SCORE.SYSTEM>
0

>  <SCORE.SYSTEM.CONST>
0

>  <SCORE.SYSTEM.DIHEDRAL>
0

>  <SCORE.SYSTEM.SOLV>
0

>  <SCORE.SYSTEM.norm>
0

>  <SCORE.heavy>
31

>  <SCORE.norm>
-1.20931

>  <RMSD>
7.056

$$$$
lig.pdb
 OpenBabel11021811453D
libRbt.so/2013.1/901 2013/11/27
 31 33  0  0  0  0  0  0  0  0999 V2000
   -2.3869   -0.3599   10.7018 O   0  0  0  0  0  0  0  0  0  0  0  0
   -2.6756    0.6131   11.6866 C   0  0  0  0  0  0  0  0  0  0  0  0
   -3.5315    1.7521   11.1162 C   0  0  1  0  0  0  0  0  0  0  0  0
   -2.9100    2.3716   10.0013 O   0  0  0  0  0  0  0  0  0  0  0  0
   -3.9030    2.9517    9.1610 C   0  0  1  0  0  0  0  0  0  0  0  0
   -3.6611    2.5892    7.8068 O   0  0  0  0  0  0  0  0  0  0  0  0
   -2.5415    3.1820    7.1682 C   0  0  2  0  0  0  0  0  0  0  0  0
   -2.9037    4.6411    6.8487 C   0  0  1  0  0  0  0  0  0  0  0  0
   -2.9934    5.3861    8.0530 O   0  0  0  0  0  0  0  0  0  0  0  0
   -1.8877    5.3551    5.9443 C   0  0  2  0  0  0  0  0  0  0  0  0
   -2.3460    6.7105    5.6023 N   0  0  0  0  0  0  0  0  0  0  0  0
   -1.6835    4.5511    4.6657 C   0  0  0  0  0  0  0  0  0  0  0  0
   -1.2491    3.1329    5.0153 C   0  0  2  0  0  0  0  0  0  0  0  0
   -1.0075    2.3998    3.7679 N   0  0  0  0  0  0  0  0  0  0  0  0
   -2.3196    2.4427    5.8878 C   0  0  1  0  0  0  0  0  0  0  0  0
   -1.8163    1.1217    6.1390 O   0  0  0  0  0  0  0  0  0  0  0  0
   -2.7365    0.1621    6.6481 C   0  0  1  0  0  0  0  0  0  0  0  0
   -3.7040   -0.1810    5.6598 O   0  0  0  0  0  0  0  0  0  0  0  0
   -3.2254   -0.9224    4.5396 C   0  0  2  0  0  0  0  0  0  0  0  0
   -4.3980   -1.2000    3.5896 C   0  0  0  0  0  0  0  0  0  0  0  0
   -3.9507   -1.8131    2.3471 N   0  0  0  0  0  0  0  0  0  0  0  0
   -2.5940   -2.2522    4.9919 C   0  0  1  0  0  0  0  0  0  0  0  0
   -2.0745   -2.9422    3.8692 O   0  0  0  0  0  0  0  0  0  0  0  0
   -1.4661   -1.9495    5.9863 C   0  0  2  0  0  0  0  0  0  0  0  0
   -0.9228   -3.1562    6.4881 O   0  0  0  0  0  0  0  0  0  0  0  0
   -1.9799   -1.0771    7.1395 C   0  0  1  0  0  0  0  0  0  0  0  0
   -0.8647   -0.6891    8.0149 N   0  0  0  0  0  0  0  0  0  0  0  0
   -5.2555    2.3808    9.6116 C   0  0  2  0  0  0  0  0  0  0  0  0
   -6.0104    3.3884   10.2585 O   0  0  0  0  0  0  0  0  0  0  0  0
   -4.8497    1.2405   10.5439 C   0  0  2  0  0  0  0  0  0  0  0  0
   -5.8186    0.9386   11.5283 O   0  0  0  0  0  0  0  0  0  0  0  0
  2  1  1  0  0  0  0
  3  2  1  6  0  0  0
  3 30  1  0  0  0  0
  4  5  1  0  0  0  0
  4  3  1  0  0  0  0
  5 28  1  0  0  0  0
  5  6  1  6  0  0  0
  7  6  1  6  0  0  0
  8  7  1  0  0  0  0
  8  9  1  1  0  0  0
 10 11  1  6  0  0  0
 10  8  1  0  0  0  0
 12 10  1  0  0  0  0
 13 12  1  0  0  0  0
 13 15  1  0  0  0  0
 13 14  1  6  0  0  0
 15  7  1  0  0  0  0
 15 16  1  1  0  0  0
 17 16  1  6  0  0  0
 18 17  1  0  0  0  0
 19 20  1  6  0  0  0
 19 18  1  0  0  0  0
 20 21  1  0  0  0  0
 22 24  1  0  0  0  0
 22 19  1  0  0  0  0
 22 23  1  6  0  0  0
 24 25  1  1  0  0  0
 24 26  1  0  0  0  0
 26 17  1  0  0  0  0
 26 27  1  6  0  0  0
 28 29  1  1  0  0  0
 28 30  1  0  0  0  0
 30 31  1  1  0  0  0
M  END
>  <CHROM.1>
-67.03868371,-56.87312902,-71.23763368,-74.75475997,60.14911767,67.67328280
-173.64802001,73.81221095,68.95949649,173.08501829,172.91776171,68.56520793
55.90502935,71.20218153,-58.67398447,-175.58836699,-2.88729018,1.29011400
7.11635035,2.42868865,1.28341931,-0.00980744

>  <Name>
lig.pdb

>  <RI>
0

>  <Rbt.Current_Directory>
/home/itssahil/PROJECTS/Mol_Feturizer/New_Systems/rnas/2n0j

>  <Rbt.Executable>
rbdock ($Id: //depot/dev/client3/rdock/2013.1/src/exe/rbdock.cxx#4 $)

>  <Rbt.Library>
libRbt.so (2013.1, Build901 2013/11/27)

>  <Rbt.Parameter_File>
/export/apps/rDock/src/rDock_2013.1_src/data/scripts/dock_solv.prm

>  <Rbt.Receptor>
prm/pocket_docking_5.prm

>  <SCORE>
-35.3577

>  <SCORE.INTER>
-24.4581

>  <SCORE.INTER.CONST>
1

>  <SCORE.INTER.POLAR>
-3.56828

>  <SCORE.INTER.ROT>
6

>  <SCORE.INTER.SOLV>
12.1933

>  <SCORE.INTER.VDW>
-16.0756

>  <SCORE.INTER.norm>
-0.788973

>  <SCORE.INTRA>
-10.8995

>  <SCORE.INTRA.DIHEDRAL>
-23.0117

>  <SCORE.INTRA.DIHEDRAL.0>
28.0161

>  <SCORE.INTRA.POLAR>
-0.511834

>  <SCORE.INTRA.POLAR.0>
-1.05798

>  <SCORE.INTRA.REPUL>
0

>  <SCORE.INTRA.REPUL.0>
0

>  <SCORE.INTRA.SOLV>
1.4379

>  <SCORE.INTRA.SOLV.lig_0>
-42.5945

>  <SCORE.INTRA.VDW>
1.6276

>  <SCORE.INTRA.VDW.0>
-5.13869

>  <SCORE.INTRA.norm>
-0.351597

>  <SCORE.RESTR>
0

>  <SCORE.RESTR.CAVITY>
0

>  <SCORE.RESTR.norm>
0

>  <SCORE.SYSTEM>
0

>  <SCORE.SYSTEM.CONST>
0

>  <SCORE.SYSTEM.DIHEDRAL>
0

>  <SCORE.SYSTEM.SOLV>
0

>  <SCORE.SYSTEM.norm>
0

>  <SCORE.heavy>
31

>  <SCORE.norm>
-1.14057

>  <RMSD>
7.057

$$$$
lig.pdb
 OpenBabel11021811453D
libRbt.so/2013.1/901 2013/11/27
 31 33  0  0  0  0  0  0  0  0999 V2000
   -0.3331   -0.6801   -0.6711 O   0  0  0  0  0  0  0  0  0  0  0  0
   -0.5339    0.5392    0.0166 C   0  0  0  0  0  0  0  0  0  0  0  0
    0.5643    0.7819    1.0608 C   0  0  1  0  0  0  0  0  0  0  0  0
    0.8107    2.1655    1.2555 O   0  0  0  0  0  0  0  0  0  0  0  0
    1.3315    2.3794    2.5638 C   0  0  1  0  0  0  0  0  0  0  0  0
    0.6382    3.4524    3.1898 O   0  0  0  0  0  0  0  0  0  0  0  0
    0.1754    4.5000    2.3525 C   0  0  2  0  0  0  0  0  0  0  0  0
    1.3995    5.3106    1.8978 C   0  0  1  0  0  0  0  0  0  0  0  0
    2.1822    4.5341    1.0046 O   0  0  0  0  0  0  0  0  0  0  0  0
    1.0501    6.6219    1.1776 C   0  0  2  0  0  0  0  0  0  0  0  0
    2.2642    7.3891    0.8590 N   0  0  0  0  0  0  0  0  0  0  0  0
    0.1345    7.4639    2.0583 C   0  0  0  0  0  0  0  0  0  0  0  0
   -1.1058    6.6588    2.4264 C   0  0  2  0  0  0  0  0  0  0  0  0
   -1.9924    7.5105    3.2266 N   0  0  0  0  0  0  0  0  0  0  0  0
   -0.7073    5.3742    3.1844 C   0  0  1  0  0  0  0  0  0  0  0  0
   -1.9432    4.7110    3.4916 O   0  0  0  0  0  0  0  0  0  0  0  0
   -1.9450    3.8247    4.6055 C   0  0  1  0  0  0  0  0  0  0  0  0
   -2.1345    4.5442    5.8209 O   0  0  0  0  0  0  0  0  0  0  0  0
   -3.4214    5.1273    6.0141 C   0  0  2  0  0  0  0  0  0  0  0  0
   -3.4400    5.8537    7.3656 C   0  0  0  0  0  0  0  0  0  0  0  0
   -4.5471    6.7950    7.4557 N   0  0  0  0  0  0  0  0  0  0  0  0
   -4.5213    4.0498    5.9854 C   0  0  1  0  0  0  0  0  0  0  0  0
   -5.7928    4.6593    6.1205 O   0  0  0  0  0  0  0  0  0  0  0  0
   -4.4415    3.2991    4.6503 C   0  0  2  0  0  0  0  0  0  0  0  0
   -5.3837    2.2432    4.6286 O   0  0  0  0  0  0  0  0  0  0  0  0
   -3.0258    2.7538    4.4189 C   0  0  1  0  0  0  0  0  0  0  0  0
   -2.9297    2.1492    3.0826 N   0  0  0  0  0  0  0  0  0  0  0  0
    1.0943    1.0843    3.3540 C   0  0  2  0  0  0  0  0  0  0  0  0
    2.3268    0.4243    3.5756 O   0  0  0  0  0  0  0  0  0  0  0  0
    0.1466    0.3012    2.4469 C   0  0  2  0  0  0  0  0  0  0  0  0
    0.2297   -1.1005    2.6122 O   0  0  0  0  0  0  0  0  0  0  0  0
  2  1  1  0  0  0  0
  3  2  1  6  0  0  0
  3 30  1  0  0  0  0
  4  5  1  0  0  0  0
  4  3  1  0  0  0  0
  5 28  1  0  0  0  0
  5  6  1  1  0  0  0
  7  6  1  1  0  0  0
  8  7  1  0  0  0  0
  8  9  1  6  0  0  0
 10 11  1  1  0  0  0
 10  8  1  0  0  0  0
 12 10  1  0  0  0  0
 13 12  1  0  0  0  0
 13 15  1  0  0  0  0
 13 14  1  1  0  0  0
 15  7  1  0  0  0  0
 15 16  1  6  0  0  0
 17 16  1  6  0  0  0
 18 17  1  0  0  0  0
 19 20  1  1  0  0  0
 19 18  1  0  0  0  0
 20 21  1  0  0  0  0
 22 24  1  0  0  0  0
 22 19  1  0  0  0  0
 22 23  1  6  0  0  0
 24 25  1  1  0  0  0
 24 26  1  0  0  0  0
 26 17  1  0  0  0  0
 26 27  1  6  0  0  0
 28 29  1  6  0  0  0
 28 30  1  0  0  0  0
 30 31  1  6  0  0  0
M  END
>  <CHROM.1>
-82.53434036,149.82332477,-32.59182211,-72.18487978,31.48974785,53.12417472
-59.97637891,83.73175359,83.28582750,162.68629896,95.16706483,-80.84762490
64.91457704,179.13632660,74.38673580,-59.71167485,-1.11204230,3.68422935
3.26114837,0.57143180,-0.65672876,-2.99675391

>  <Name>
lig.pdb

>  <RI>
0

>  <Rbt.Current_Directory>
/home/itssahil/PROJECTS/Mol_Feturizer/New_Systems/rnas/2n0j

>  <Rbt.Executable>
rbdock ($Id: //depot/dev/client3/rdock/2013.1/src/exe/rbdock.cxx#4 $)

>  <Rbt.Library>
libRbt.so (2013.1, Build901 2013/11/27)

>  <Rbt.Parameter_File>
/export/apps/rDock/src/rDock_2013.1_src/data/scripts/dock_solv.prm

>  <Rbt.Receptor>
prm/pocket_docking_5.prm

>  <SCORE>
-36.0486

>  <SCORE.INTER>
-38.2154

>  <SCORE.INTER.CONST>
1

>  <SCORE.INTER.POLAR>
-3.97841

>  <SCORE.INTER.ROT>
6

>  <SCORE.INTER.SOLV>
16.5919

>  <SCORE.INTER.VDW>
-25.3462

>  <SCORE.INTER.norm>
-1.23275

>  <SCORE.INTRA>
2.16672

>  <SCORE.INTRA.DIHEDRAL>
-4.53165

>  <SCORE.INTRA.DIHEDRAL.0>
28.0161

>  <SCORE.INTRA.POLAR>
0.558961

>  <SCORE.INTRA.POLAR.0>
-1.05798

>  <SCORE.INTRA.REPUL>
0

>  <SCORE.INTRA.REPUL.0>
0

>  <SCORE.INTRA.SOLV>
0.535982

>  <SCORE.INTRA.SOLV.lig_0>
-42.5945

>  <SCORE.INTRA.VDW>
2.26408

>  <SCORE.INTRA.VDW.0>
-5.13869

>  <SCORE.INTRA.norm>
0.0698942

>  <SCORE.RESTR>
0

>  <SCORE.RESTR.CAVITY>
0

>  <SCORE.RESTR.norm>
0

>  <SCORE.SYSTEM>
0

>  <SCORE.SYSTEM.CONST>
0

>  <SCORE.SYSTEM.DIHEDRAL>
0

>  <SCORE.SYSTEM.SOLV>
0

>  <SCORE.SYSTEM.norm>
0

>  <SCORE.heavy>
31

>  <SCORE.norm>
-1.16286

>  <RMSD>
7.061

$$$$
lig.pdb
 OpenBabel11021811453D
libRbt.so/2013.1/901 2013/11/27
 31 33  0  0  0  0  0  0  0  0999 V2000
   -0.6966    0.8697   -0.9674 O   0  0  0  0  0  0  0  0  0  0  0  0
   -0.4850    0.4077    0.3524 C   0  0  0  0  0  0  0  0  0  0  0  0
    0.8902    0.8352    0.8828 C   0  0  1  0  0  0  0  0  0  0  0  0
    1.0541    2.2441    0.8489 O   0  0  0  0  0  0  0  0  0  0  0  0
    1.9948    2.6405    1.8422 C   0  0  1  0  0  0  0  0  0  0  0  0
    1.4779    3.7375    2.5861 O   0  0  0  0  0  0  0  0  0  0  0  0
    0.9387    4.8228    1.8485 C   0  0  2  0  0  0  0  0  0  0  0  0
    2.0770    5.8218    1.5868 C   0  0  1  0  0  0  0  0  0  0  0  0
    3.0020    5.2625    0.6676 O   0  0  0  0  0  0  0  0  0  0  0  0
    1.6102    7.1650    1.0054 C   0  0  2  0  0  0  0  0  0  0  0  0
    2.7359    8.1027    0.8724 N   0  0  0  0  0  0  0  0  0  0  0  0
    0.5462    7.7749    1.9102 C   0  0  0  0  0  0  0  0  0  0  0  0
   -0.6038    6.7906    2.0856 C   0  0  2  0  0  0  0  0  0  0  0  0
   -1.6355    7.4237    2.9141 N   0  0  0  0  0  0  0  0  0  0  0  0
   -0.0939    5.4745    2.7114 C   0  0  1  0  0  0  0  0  0  0  0  0
   -1.2535    4.6383    2.8438 O   0  0  0  0  0  0  0  0  0  0  0  0
   -1.2803    3.7349    3.9437 C   0  0  1  0  0  0  0  0  0  0  0  0
   -1.4270    4.4419    5.1723 O   0  0  0  0  0  0  0  0  0  0  0  0
   -2.6865    5.0745    5.3890 C   0  0  2  0  0  0  0  0  0  0  0  0
   -2.6607    5.7791    6.7519 C   0  0  0  0  0  0  0  0  0  0  0  0
   -3.6003    6.8902    6.8014 N   0  0  0  0  0  0  0  0  0  0  0  0
   -3.8303    4.0439    5.3558 C   0  0  1  0  0  0  0  0  0  0  0  0
   -5.0740    4.7031    5.5147 O   0  0  0  0  0  0  0  0  0  0  0  0
   -3.7958    3.3122    4.0083 C   0  0  2  0  0  0  0  0  0  0  0  0
   -4.7812    2.2966    3.9806 O   0  0  0  0  0  0  0  0  0  0  0  0
   -2.4065    2.7127    3.7524 C   0  0  1  0  0  0  0  0  0  0  0  0
   -2.3497    2.1263    2.4058 N   0  0  0  0  0  0  0  0  0  0  0  0
    2.1920    1.4358    2.7739 C   0  0  2  0  0  0  0  0  0  0  0  0
    3.4781    0.8794    2.5737 O   0  0  0  0  0  0  0  0  0  0  0  0
    1.0591    0.4975    2.3607 C   0  0  2  0  0  0  0  0  0  0  0  0
    1.3340   -0.8678    2.6049 O   0  0  0  0  0  0  0  0  0  0  0  0
  2  1  1  0  0  0  0
  3  2  1  1  0  0  0
  3 30  1  0  0  0  0
  4  5  1  0  0  0  0
  4  3  1  0  0  0  0
  5 28  1  0  0  0  0
  5  6  1  1  0  0  0
  7  6  1  1  0  0  0
  8  7  1  0  0  0  0
  8  9  1  6  0  0  0
 10 11  1  1  0  0  0
 10  8  1  0  0  0  0
 12 10  1  0  0  0  0
 13 12  1  0  0  0  0
 13 15  1  0  0  0  0
 13 14  1  1  0  0  0
 15  7  1  0  0  0  0
 15 16  1  6  0  0  0
 17 16  1  6  0  0  0
 18 17  1  0  0  0  0
 19 20  1  1  0  0  0
 19 18  1  0  0  0  0
 20 21  1  0  0  0  0
 22 24  1  0  0  0  0
 22 19  1  0  0  0  0
 22 23  1  6  0  0  0
 24 25  1  1  0  0  0
 24 26  1  0  0  0  0
 26 17  1  0  0  0  0
 26 27  1  6  0  0  0
 28 29  1  6  0  0  0
 28 30  1  0  0  0  0
 30 31  1  6  0  0  0
M  END
>  <CHROM.1>
-173.93521204,57.41088628,-48.43028621,-90.28962666,-66.19839737,-55.08274910
-54.37972996,91.33786808,69.81048697,154.57764287,-102.46075452,-174.56483290
176.49371953,56.95408800,-65.52580487,-176.51938537,-0.48170423,3.89301846
2.81183477,0.51512687,-0.58675054,-2.99349483

>  <Name>
lig.pdb

>  <RI>
3.50357e+07

>  <Rbt.Current_Directory>
/home/itssahil/PROJECTS/Mol_Feturizer/New_Systems/rnas/2n0j

>  <Rbt.Executable>
rbdock ($Id: //depot/dev/client3/rdock/2013.1/src/exe/rbdock.cxx#4 $)

>  <Rbt.Library>
libRbt.so (2013.1, Build901 2013/11/27)

>  <Rbt.Parameter_File>
/export/apps/rDock/src/rDock_2013.1_src/data/scripts/dock_solv.prm

>  <Rbt.Receptor>
prm/pocket_docking_3.prm

>  <SCORE>
-40.0346

>  <SCORE.INTER>
-37.7284

>  <SCORE.INTER.CONST>
1

>  <SCORE.INTER.POLAR>
-3.83513

>  <SCORE.INTER.ROT>
6

>  <SCORE.INTER.SOLV>
18.2584

>  <SCORE.INTER.VDW>
-26.0546

>  <SCORE.INTER.norm>
-1.21704

>  <SCORE.INTRA>
-2.81453

>  <SCORE.INTRA.DIHEDRAL>
-13.1337

>  <SCORE.INTRA.DIHEDRAL.0>
28.0161

>  <SCORE.INTRA.POLAR>
0.833781

>  <SCORE.INTRA.POLAR.0>
-1.05798

>  <SCORE.INTRA.REPUL>
0

>  <SCORE.INTRA.REPUL.0>
0

>  <SCORE.INTRA.SOLV>
0.305766

>  <SCORE.INTRA.SOLV.lig_0>
-42.5945

>  <SCORE.INTRA.VDW>
0.764599

>  <SCORE.INTRA.VDW.0>
-5.13869

>  <SCORE.INTRA.norm>
-0.0907912

>  <SCORE.RESTR>
0.508254

>  <SCORE.RESTR.CAVITY>
0.508254

>  <SCORE.RESTR.norm>
0.0163953

>  <SCORE.SYSTEM>
0

>  <SCORE.SYSTEM.CONST>
0

>  <SCORE.SYSTEM.DIHEDRAL>
0

>  <SCORE.SYSTEM.SOLV>
0

>  <SCORE.SYSTEM.norm>
0

>  <SCORE.heavy>
31

>  <SCORE.norm>
-1.29144

>  <RMSD>
7.074

$$$$
lig.pdb
 OpenBabel11021811453D
libRbt.so/2013.1/901 2013/11/27
 31 33  0  0  0  0  0  0  0  0999 V2000
    5.3422    2.8856    1.4386 O   0  0  0  0  0  0  0  0  0  0  0  0
    3.9737    2.5733    1.6110 C   0  0  0  0  0  0  0  0  0  0  0  0
    3.0958    3.8287    1.5196 C   0  0  1  0  0  0  0  0  0  0  0  0
    1.7211    3.5252    1.6958 O   0  0  0  0  0  0  0  0  0  0  0  0
    1.0389    4.6698    2.1988 C   0  0  1  0  0  0  0  0  0  0  0  0
    0.2178    4.2974    3.2993 O   0  0  0  0  0  0  0  0  0  0  0  0
   -1.1821    4.4747    3.1515 C   0  0  2  0  0  0  0  0  0  0  0  0
   -1.5585    5.8047    3.8235 C   0  0  1  0  0  0  0  0  0  0  0  0
   -1.0361    6.8865    3.0684 O   0  0  0  0  0  0  0  0  0  0  0  0
   -3.0718    6.0312    3.9600 C   0  0  2  0  0  0  0  0  0  0  0  0
   -3.3558    7.2729    4.6961 N   0  0  0  0  0  0  0  0  0  0  0  0
   -3.7043    4.8525    4.6905 C   0  0  0  0  0  0  0  0  0  0  0  0
   -3.3779    3.5583    3.9553 C   0  0  2  0  0  0  0  0  0  0  0  0
   -4.0432    2.4495    4.6478 N   0  0  0  0  0  0  0  0  0  0  0  0
   -1.8495    3.3532    3.8810 C   0  0  1  0  0  0  0  0  0  0  0  0
   -1.6626    2.1087    3.1897 O   0  0  0  0  0  0  0  0  0  0  0  0
   -0.3968    1.4723    3.3289 C   0  0  1  0  0  0  0  0  0  0  0  0
   -0.3544    0.6917    4.5203 O   0  0  0  0  0  0  0  0  0  0  0  0
   -1.1782   -0.4721    4.5412 C   0  0  2  0  0  0  0  0  0  0  0  0
   -1.0024   -1.1814    5.8905 C   0  0  0  0  0  0  0  0  0  0  0  0
    0.3982   -1.2563    6.2808 N   0  0  0  0  0  0  0  0  0  0  0  0
   -0.8028   -1.4299    3.3952 C   0  0  1  0  0  0  0  0  0  0  0  0
   -1.6719   -2.5484    3.4015 O   0  0  0  0  0  0  0  0  0  0  0  0
   -0.9282   -0.6789    2.0637 C   0  0  2  0  0  0  0  0  0  0  0  0
   -0.5053   -1.5066    0.9964 O   0  0  0  0  0  0  0  0  0  0  0  0
   -0.1044    0.6156    2.0919 C   0  0  1  0  0  0  0  0  0  0  0  0
   -0.3340    1.3872    0.8621 N   0  0  0  0  0  0  0  0  0  0  0  0
    2.1158    5.6568    2.6725 C   0  0  2  0  0  0  0  0  0  0  0  0
    2.1704    6.7658    1.7947 O   0  0  0  0  0  0  0  0  0  0  0  0
    3.3867    4.8091    2.6515 C   0  0  2  0  0  0  0  0  0  0  0  0
    4.5690    5.5614    2.4632 O   0  0  0  0  0  0  0  0  0  0  0  0
  2  1  1  0  0  0  0
  3  2  1  1  0  0  0
  3 30  1  0  0  0  0
  4  5  1  0  0  0  0
  4  3  1  0  0  0  0
  5 28  1  0  0  0  0
  5  6  1  1  0  0  0
  7  6  1  1  0  0  0
  8  7  1  0  0  0  0
  8  9  1  6  0  0  0
 10 11  1  1  0  0  0
 10  8  1  0  0  0  0
 12 10  1  0  0  0  0
 13 12  1  0  0  0  0
 13 15  1  0  0  0  0
 13 14  1  1  0  0  0
 15  7  1  0  0  0  0
 15 16  1  6  0  0  0
 17 16  1  6  0  0  0
 18 17  1  0  0  0  0
 19 20  1  1  0  0  0
 19 18  1  0  0  0  0
 20 21  1  0  0  0  0
 22 24  1  0  0  0  0
 22 19  1  0  0  0  0
 22 23  1  6  0  0  0
 24 25  1  6  0  0  0
 24 26  1  0  0  0  0
 26 17  1  0  0  0  0
 26 27  1  6  0  0  0
 28 29  1  6  0  0  0
 28 30  1  0  0  0  0
 30 31  1  6  0  0  0
M  END
>  <CHROM.1>
163.73639614,-179.81675763,-117.10766177,-97.74579144,-95.62511308,63.11991296
64.71916398,77.72191909,84.14729252,-44.25061953,-57.80180331,-104.93968218
-56.47587852,58.31509833,65.31538622,-163.26714596,-0.10016936,2.78066111
3.15015948,-1.13122127,-0.37451402,3.11718123

>  <Name>
lig.pdb

>  <RI>
3.33129e+07

>  <Rbt.Current_Directory>
/home/itssahil/PROJECTS/Mol_Feturizer/New_Systems/rnas/2n0j

>  <Rbt.Executable>
rbdock ($Id: //depot/dev/client3/rdock/2013.1/src/exe/rbdock.cxx#4 $)

>  <Rbt.Library>
libRbt.so (2013.1, Build901 2013/11/27)

>  <Rbt.Parameter_File>
/export/apps/rDock/src/rDock_2013.1_src/data/scripts/dock_solv.prm

>  <Rbt.Receptor>
prm/pocket_docking_4.prm

>  <SCORE>
-38.6934

>  <SCORE.INTER>
-40.6683

>  <SCORE.INTER.CONST>
1

>  <SCORE.INTER.POLAR>
-4.93207

>  <SCORE.INTER.ROT>
6

>  <SCORE.INTER.SOLV>
16.517

>  <SCORE.INTER.VDW>
-23.7777

>  <SCORE.INTER.norm>
-1.31188

>  <SCORE.INTRA>
1.27977

>  <SCORE.INTRA.DIHEDRAL>
2.77865

>  <SCORE.INTRA.DIHEDRAL.0>
28.0161

>  <SCORE.INTRA.POLAR>
0.0436359

>  <SCORE.INTRA.POLAR.0>
-1.05798

>  <SCORE.INTRA.REPUL>
0

>  <SCORE.INTRA.REPUL.0>
0

>  <SCORE.INTRA.SOLV>
0.669948

>  <SCORE.INTRA.SOLV.lig_0>
-42.5945

>  <SCORE.INTRA.VDW>
-0.592887

>  <SCORE.INTRA.VDW.0>
-5.13869

>  <SCORE.INTRA.norm>
0.041283

>  <SCORE.RESTR>
0.695198

>  <SCORE.RESTR.CAVITY>
0.695198

>  <SCORE.RESTR.norm>
0.0224257

>  <SCORE.SYSTEM>
0

>  <SCORE.SYSTEM.CONST>
0

>  <SCORE.SYSTEM.DIHEDRAL>
0

>  <SCORE.SYSTEM.SOLV>
0

>  <SCORE.SYSTEM.norm>
0

>  <SCORE.heavy>
31

>  <SCORE.norm>
-1.24817

>  <RMSD>
7.075

$$$$
lig.pdb
 OpenBabel11021811453D
libRbt.so/2013.1/901 2013/11/27
 31 33  0  0  0  0  0  0  0  0999 V2000
    5.7761    3.0724    0.8739 O   0  0  0  0  0  0  0  0  0  0  0  0
    5.5366    4.3105    1.5140 C   0  0  0  0  0  0  0  0  0  0  0  0
    4.2561    4.9746    0.9900 C   0  0  1  0  0  0  0  0  0  0  0  0
    3.1359    4.1091    1.0854 O   0  0  0  0  0  0  0  0  0  0  0  0
    1.9422    4.8802    1.1818 C   0  0  1  0  0  0  0  0  0  0  0  0
    1.1328    4.3860    2.2422 O   0  0  0  0  0  0  0  0  0  0  0  0
   -0.2631    4.6247    2.1562 C   0  0  2  0  0  0  0  0  0  0  0  0
   -0.5869    5.8326    3.0495 C   0  0  1  0  0  0  0  0  0  0  0  0
   -0.0436    7.0111    2.4755 O   0  0  0  0  0  0  0  0  0  0  0  0
   -2.0901    6.0752    3.2543 C   0  0  2  0  0  0  0  0  0  0  0  0
   -2.3231    7.1827    4.1941 N   0  0  0  0  0  0  0  0  0  0  0  0
   -2.7468    4.8084    3.7902 C   0  0  0  0  0  0  0  0  0  0  0  0
   -2.4730    3.6478    2.8416 C   0  0  2  0  0  0  0  0  0  0  0  0
   -3.1611    2.4573    3.3525 N   0  0  0  0  0  0  0  0  0  0  0  0
   -0.9531    3.4155    2.7013 C   0  0  1  0  0  0  0  0  0  0  0  0
   -0.8164    2.3003    1.8074 O   0  0  0  0  0  0  0  0  0  0  0  0
    0.4895    2.0191    1.3151 C   0  0  1  0  0  0  0  0  0  0  0  0
    1.3230    1.5183    2.3567 O   0  0  0  0  0  0  0  0  0  0  0  0
    1.0012    0.2205    2.8526 C   0  0  2  0  0  0  0  0  0  0  0  0
    1.9983   -0.1502    3.9585 C   0  0  0  0  0  0  0  0  0  0  0  0
    3.3484   -0.3059    3.4360 N   0  0  0  0  0  0  0  0  0  0  0  0
    1.0591   -0.8268    1.7250 C   0  0  1  0  0  0  0  0  0  0  0  0
    0.6794   -2.0950    2.2292 O   0  0  0  0  0  0  0  0  0  0  0  0
    0.0997   -0.4011    0.6067 C   0  0  2  0  0  0  0  0  0  0  0  0
    0.1948   -1.2980   -0.4839 O   0  0  0  0  0  0  0  0  0  0  0  0
    0.4051    1.0307    0.1465 C   0  0  1  0  0  0  0  0  0  0  0  0
   -0.5988    1.4714   -0.8325 N   0  0  0  0  0  0  0  0  0  0  0  0
    2.3685    6.3228    1.4906 C   0  0  2  0  0  0  0  0  0  0  0  0
    2.1443    7.1425    0.3586 O   0  0  0  0  0  0  0  0  0  0  0  0
    3.8479    6.1725    1.8416 C   0  0  2  0  0  0  0  0  0  0  0  0
    4.6125    7.3353    1.5921 O   0  0  0  0  0  0  0  0  0  0  0  0
  2  1  1  0  0  0  0
  3  2  1  1  0  0  0
  3 30  1  0  0  0  0
  4  5  1  0  0  0  0
  4  3  1  0  0  0  0
  5 28  1  0  0  0  0
  5  6  1  1  0  0  0
  7  6  1  1  0  0  0
  8  7  1  0  0  0  0
  8  9  1  6  0  0  0
 10 11  1  1  0  0  0
 10  8  1  0  0  0  0
 12 10  1  0  0  0  0
 13 12  1  0  0  0  0
 13 15  1  0  0  0  0
 13 14  1  1  0  0  0
 15  7  1  0  0  0  0
 15 16  1  6  0  0  0
 17 16  1  1  0  0  0
 18 17  1  0  0  0  0
 19 20  1  1  0  0  0
 19 18  1  0  0  0  0
 20 21  1  0  0  0  0
 22 24  1  0  0  0  0
 22 19  1  0  0  0  0
 22 23  1  1  0  0  0
 24 25  1  6  0  0  0
 24 26  1  0  0  0  0
 26 17  1  0  0  0  0
 26 27  1  6  0  0  0
 28 29  1  6  0  0  0
 28 30  1  0  0  0  0
 30 31  1  6  0  0  0
M  END
>  <CHROM.1>
-145.31833432,54.16671086,-154.68697416,-99.59839001,-160.10973409,-149.47424351
-62.02926750,48.33784164,69.79760139,-66.07831215,-178.27483266,-172.08951541
-124.68499858,101.44836527,-176.52166556,-174.28261886,0.96681880,3.25674441
1.92711098,-1.43891013,-0.24746908,-3.03787828

>  <Name>
lig.pdb

>  <RI>
3.33129e+07

>  <Rbt.Current_Directory>
/home/itssahil/PROJECTS/Mol_Feturizer/New_Systems/rnas/2n0j

>  <Rbt.Executable>
rbdock ($Id: //depot/dev/client3/rdock/2013.1/src/exe/rbdock.cxx#4 $)

>  <Rbt.Library>
libRbt.so (2013.1, Build901 2013/11/27)

>  <Rbt.Parameter_File>
/export/apps/rDock/src/rDock_2013.1_src/data/scripts/dock_solv.prm

>  <Rbt.Receptor>
prm/pocket_docking_4.prm

>  <SCORE>
-32.9647

>  <SCORE.INTER>
-42.3932

>  <SCORE.INTER.CONST>
1

>  <SCORE.INTER.POLAR>
-6.18936

>  <SCORE.INTER.ROT>
6

>  <SCORE.INTER.SOLV>
18.8924

>  <SCORE.INTER.VDW>
-21.5284

>  <SCORE.INTER.norm>
-1.36752

>  <SCORE.INTRA>
9.42847

>  <SCORE.INTRA.DIHEDRAL>
0.210023

>  <SCORE.INTRA.DIHEDRAL.0>
28.0161

>  <SCORE.INTRA.POLAR>
0.91718

>  <SCORE.INTRA.POLAR.0>
-1.05798

>  <SCORE.INTRA.REPUL>
0.24014

>  <SCORE.INTRA.REPUL.0>
0

>  <SCORE.INTRA.SOLV>
0.540755

>  <SCORE.INTRA.SOLV.lig_0>
-42.5945

>  <SCORE.INTRA.VDW>
4.73397

>  <SCORE.INTRA.VDW.0>
-5.13869

>  <SCORE.INTRA.norm>
0.304144

>  <SCORE.RESTR>
0

>  <SCORE.RESTR.CAVITY>
0

>  <SCORE.RESTR.norm>
0

>  <SCORE.SYSTEM>
0

>  <SCORE.SYSTEM.CONST>
0

>  <SCORE.SYSTEM.DIHEDRAL>
0

>  <SCORE.SYSTEM.SOLV>
0

>  <SCORE.SYSTEM.norm>
0

>  <SCORE.heavy>
31

>  <SCORE.norm>
-1.06338

>  <RMSD>
7.076

$$$$
lig.pdb
 OpenBabel11021811453D
libRbt.so/2013.1/901 2013/11/27
 31 33  0  0  0  0  0  0  0  0999 V2000
   -0.8801   -1.9079    1.8423 O   0  0  0  0  0  0  0  0  0  0  0  0
    0.0273   -1.6575    2.8978 C   0  0  0  0  0  0  0  0  0  0  0  0
    1.1172   -0.6626    2.4767 C   0  0  1  0  0  0  0  0  0  0  0  0
    0.5774    0.6138    2.1727 O   0  0  0  0  0  0  0  0  0  0  0  0
    1.5695    1.6146    2.3795 C   0  0  1  0  0  0  0  0  0  0  0  0
    1.0220    2.6880    3.1359 O   0  0  0  0  0  0  0  0  0  0  0  0
    0.5058    3.7931    2.4113 C   0  0  2  0  0  0  0  0  0  0  0  0
    1.3172    5.0353    2.8122 C   0  0  1  0  0  0  0  0  0  0  0  0
    2.6368    4.9297    2.3015 O   0  0  0  0  0  0  0  0  0  0  0  0
    0.7320    6.3589    2.2966 C   0  0  2  0  0  0  0  0  0  0  0  0
    1.5022    7.5077    2.7978 N   0  0  0  0  0  0  0  0  0  0  0  0
   -0.7196    6.4877    2.7429 C   0  0  0  0  0  0  0  0  0  0  0  0
   -1.5134    5.2791    2.2623 C   0  0  2  0  0  0  0  0  0  0  0  0
   -2.9148    5.4560    2.6577 N   0  0  0  0  0  0  0  0  0  0  0  0
   -0.9145    3.9786    2.8399 C   0  0  1  0  0  0  0  0  0  0  0  0
   -1.7438    2.9189    2.3391 O   0  0  0  0  0  0  0  0  0  0  0  0
   -2.0229    1.8393    3.2240 C   0  0  1  0  0  0  0  0  0  0  0  0
   -2.6758    2.3088    4.4004 O   0  0  0  0  0  0  0  0  0  0  0  0
   -4.0068    2.7923    4.2324 C   0  0  2  0  0  0  0  0  0  0  0  0
   -4.5450    3.2498    5.5946 C   0  0  0  0  0  0  0  0  0  0  0  0
   -5.8203    3.9402    5.4653 N   0  0  0  0  0  0  0  0  0  0  0  0
   -4.9191    1.6957    3.6523 C   0  0  1  0  0  0  0  0  0  0  0  0
   -6.2191    2.2167    3.4401 O   0  0  0  0  0  0  0  0  0  0  0  0
   -4.3265    1.2137    2.3223 C   0  0  2  0  0  0  0  0  0  0  0  0
   -5.0954    0.1434    1.8063 O   0  0  0  0  0  0  0  0  0  0  0  0
   -2.8659    0.7797    2.5054 C   0  0  1  0  0  0  0  0  0  0  0  0
   -2.2725    0.4420    1.2037 N   0  0  0  0  0  0  0  0  0  0  0  0
    2.7074    0.9555    3.1726 C   0  0  2  0  0  0  0  0  0  0  0  0
    3.8412    0.7933    2.3409 O   0  0  0  0  0  0  0  0  0  0  0  0
    2.0902   -0.3704    3.6145 C   0  0  2  0  0  0  0  0  0  0  0  0
    3.0395   -1.3960    3.8292 O   0  0  0  0  0  0  0  0  0  0  0  0
  2  1  1  0  0  0  0
  3  2  1  1  0  0  0
  3 30  1  0  0  0  0
  4  5  1  0  0  0  0
  4  3  1  0  0  0  0
  5 28  1  0  0  0  0
  5  6  1  1  0  0  0
  7  6  1  1  0  0  0
  8  7  1  0  0  0  0
  8  9  1  6  0  0  0
 10 11  1  1  0  0  0
 10  8  1  0  0  0  0
 12 10  1  0  0  0  0
 13 12  1  0  0  0  0
 13 15  1  0  0  0  0
 13 14  1  1  0  0  0
 15  7  1  0  0  0  0
 15 16  1  6  0  0  0
 17 16  1  6  0  0  0
 18 17  1  0  0  0  0
 19 20  1  1  0  0  0
 19 18  1  0  0  0  0
 20 21  1  0  0  0  0
 22 24  1  0  0  0  0
 22 19  1  0  0  0  0
 22 23  1  6  0  0  0
 24 25  1  1  0  0  0
 24 26  1  0  0  0  0
 26 17  1  0  0  0  0
 26 27  1  6  0  0  0
 28 29  1  6  0  0  0
 28 30  1  0  0  0  0
 30 31  1  6  0  0  0
M  END
>  <CHROM.1>
179.59078680,63.86010392,-94.44816829,-118.65830566,-171.37206266,172.94509854
-59.65290402,97.42765146,59.10083538,171.35036270,172.11876919,-178.45040911
-60.92695147,177.31270793,155.43795579,53.76574471,-1.01073354,2.33946839
2.93387961,0.17434980,-0.12019667,-3.09475775

>  <Name>
lig.pdb

>  <RI>
0

>  <Rbt.Current_Directory>
/home/itssahil/PROJECTS/Mol_Feturizer/New_Systems/rnas/2n0j

>  <Rbt.Executable>
rbdock ($Id: //depot/dev/client3/rdock/2013.1/src/exe/rbdock.cxx#4 $)

>  <Rbt.Library>
libRbt.so (2013.1, Build901 2013/11/27)

>  <Rbt.Parameter_File>
/export/apps/rDock/src/rDock_2013.1_src/data/scripts/dock_solv.prm

>  <Rbt.Receptor>
prm/pocket_docking_8.prm

>  <SCORE>
-41.839

>  <SCORE.INTER>
-35.2049

>  <SCORE.INTER.CONST>
1

>  <SCORE.INTER.POLAR>
-4.65037

>  <SCORE.INTER.ROT>
6

>  <SCORE.INTER.SOLV>
15.199

>  <SCORE.INTER.VDW>
-20.635

>  <SCORE.INTER.norm>
-1.13564

>  <SCORE.INTRA>
-6.63412

>  <SCORE.INTRA.DIHEDRAL>
-7.38977

>  <SCORE.INTRA.DIHEDRAL.0>
28.0161

>  <SCORE.INTRA.POLAR>
-0.927231

>  <SCORE.INTRA.POLAR.0>
-1.05798

>  <SCORE.INTRA.REPUL>
0

>  <SCORE.INTRA.REPUL.0>
0

>  <SCORE.INTRA.SOLV>
1.82592

>  <SCORE.INTRA.SOLV.lig_0>
-42.5945

>  <SCORE.INTRA.VDW>
-0.699605

>  <SCORE.INTRA.VDW.0>
-5.13869

>  <SCORE.INTRA.norm>
-0.214004

>  <SCORE.RESTR>
0

>  <SCORE.RESTR.CAVITY>
0

>  <SCORE.RESTR.norm>
0

>  <SCORE.SYSTEM>
0

>  <SCORE.SYSTEM.CONST>
0

>  <SCORE.SYSTEM.DIHEDRAL>
0

>  <SCORE.SYSTEM.SOLV>
0

>  <SCORE.SYSTEM.norm>
0

>  <SCORE.heavy>
31

>  <SCORE.norm>
-1.34965

>  <RMSD>
7.091

$$$$
lig.pdb
 OpenBabel11021811453D
libRbt.so/2013.1/901 2013/11/27
 31 33  0  0  0  0  0  0  0  0999 V2000
    5.6811    3.7483    2.4803 O   0  0  0  0  0  0  0  0  0  0  0  0
    4.8656    3.6182    1.3322 C   0  0  0  0  0  0  0  0  0  0  0  0
    3.7659    4.6882    1.3010 C   0  0  1  0  0  0  0  0  0  0  0  0
    2.4708    4.1120    1.2381 O   0  0  0  0  0  0  0  0  0  0  0  0
    1.5195    5.0105    1.8006 C   0  0  1  0  0  0  0  0  0  0  0  0
    0.6768    4.3136    2.7107 O   0  0  0  0  0  0  0  0  0  0  0  0
   -0.7216    4.5152    2.5818 C   0  0  2  0  0  0  0  0  0  0  0  0
   -1.0909    5.7652    3.3963 C   0  0  1  0  0  0  0  0  0  0  0  0
   -0.5604    6.9204    2.7660 O   0  0  0  0  0  0  0  0  0  0  0  0
   -2.6030    5.9850    3.5553 C   0  0  2  0  0  0  0  0  0  0  0  0
   -2.8805    7.1394    4.4239 N   0  0  0  0  0  0  0  0  0  0  0  0
   -3.2442    4.7368    4.1504 C   0  0  0  0  0  0  0  0  0  0  0  0
   -2.9246    3.5298    3.2770 C   0  0  2  0  0  0  0  0  0  0  0  0
   -3.5982    2.3555    3.8420 N   0  0  0  0  0  0  0  0  0  0  0  0
   -1.3974    3.3243    3.1821 C   0  0  1  0  0  0  0  0  0  0  0  0
   -1.2171    2.1626    2.3577 O   0  0  0  0  0  0  0  0  0  0  0  0
    0.0640    1.5424    2.3811 C   0  0  1  0  0  0  0  0  0  0  0  0
    0.3294    0.9836    3.6648 O   0  0  0  0  0  0  0  0  0  0  0  0
   -0.4579   -0.1461    4.0356 C   0  0  2  0  0  0  0  0  0  0  0  0
   -0.0347   -0.6087    5.4362 C   0  0  0  0  0  0  0  0  0  0  0  0
   -0.5941   -1.9122    5.7645 N   0  0  0  0  0  0  0  0  0  0  0  0
   -0.2744   -1.2964    3.0283 C   0  0  1  0  0  0  0  0  0  0  0  0
   -1.1096   -2.3835    3.3850 O   0  0  0  0  0  0  0  0  0  0  0  0
   -0.6455   -0.7904    1.6288 C   0  0  2  0  0  0  0  0  0  0  0  0
   -0.4036   -1.7994    0.6664 O   0  0  0  0  0  0  0  0  0  0  0  0
    0.1482    0.4766    1.2825 C   0  0  1  0  0  0  0  0  0  0  0  0
   -0.3080    1.0224   -0.0038 N   0  0  0  0  0  0  0  0  0  0  0  0
    2.3151    6.0843    2.5570 C   0  0  2  0  0  0  0  0  0  0  0  0
    2.2379    7.3162    1.8641 O   0  0  0  0  0  0  0  0  0  0  0  0
    3.7266    5.5004    2.5915 C   0  0  2  0  0  0  0  0  0  0  0  0
    4.7443    6.4779    2.6802 O   0  0  0  0  0  0  0  0  0  0  0  0
  2  1  1  0  0  0  0
  3  2  1  1  0  0  0
  3 30  1  0  0  0  0
  4  5  1  0  0  0  0
  4  3  1  0  0  0  0
  5 28  1  0  0  0  0
  5  6  1  1  0  0  0
  7  6  1  1  0  0  0
  8  7  1  0  0  0  0
  8  9  1  6  0  0  0
 10 11  1  1  0  0  0
 10  8  1  0  0  0  0
 12 10  1  0  0  0  0
 13 12  1  0  0  0  0
 13 15  1  0  0  0  0
 13 14  1  1  0  0  0
 15  7  1  0  0  0  0
 15 16  1  6  0  0  0
 17 16  1  1  0  0  0
 18 17  1  0  0  0  0
 19 20  1  1  0  0  0
 19 18  1  0  0  0  0
 20 21  1  0  0  0  0
 22 24  1  0  0  0  0
 22 19  1  0  0  0  0
 22 23  1  1  0  0  0
 24 25  1  6  0  0  0
 24 26  1  0  0  0  0
 26 17  1  0  0  0  0
 26 27  1  6  0  0  0
 28 29  1  6  0  0  0
 28 30  1  0  0  0  0
 30 31  1  6  0  0  0
M  END
>  <CHROM.1>
169.37081379,-122.45426118,-131.74273165,-86.22123095,-154.78722245,-173.98651864
-61.87763278,74.93722322,66.06961011,-168.12629692,-171.51326228,-141.25346838
-51.30381470,-59.54812455,174.77183346,-172.10070871,0.28895415,2.96574514
2.76094827,-1.10333733,-0.28915709,-3.11690866

>  <Name>
lig.pdb

>  <RI>
2.74555e+07

>  <Rbt.Current_Directory>
/home/itssahil/PROJECTS/Mol_Feturizer/New_Systems/rnas/2n0j

>  <Rbt.Executable>
rbdock ($Id: //depot/dev/client3/rdock/2013.1/src/exe/rbdock.cxx#4 $)

>  <Rbt.Library>
libRbt.so (2013.1, Build901 2013/11/27)

>  <Rbt.Parameter_File>
/export/apps/rDock/src/rDock_2013.1_src/data/scripts/dock_solv.prm

>  <Rbt.Receptor>
prm/pocket_docking_6.prm

>  <SCORE>
-39.3827

>  <SCORE.INTER>
-45.2488

>  <SCORE.INTER.CONST>
1

>  <SCORE.INTER.POLAR>
-5.9008

>  <SCORE.INTER.ROT>
6

>  <SCORE.INTER.SOLV>
15.9216

>  <SCORE.INTER.VDW>
-23.4037

>  <SCORE.INTER.norm>
-1.45964

>  <SCORE.INTRA>
5.86613

>  <SCORE.INTRA.DIHEDRAL>
-1.88783

>  <SCORE.INTRA.DIHEDRAL.0>
28.0161

>  <SCORE.INTRA.POLAR>
1.04914

>  <SCORE.INTRA.POLAR.0>
-1.05798

>  <SCORE.INTRA.REPUL>
0

>  <SCORE.INTRA.REPUL.0>
0

>  <SCORE.INTRA.SOLV>
1.55041

>  <SCORE.INTRA.SOLV.lig_0>
-42.5945

>  <SCORE.INTRA.VDW>
2.46778

>  <SCORE.INTRA.VDW.0>
-5.13869

>  <SCORE.INTRA.norm>
0.18923

>  <SCORE.RESTR>
0

>  <SCORE.RESTR.CAVITY>
0

>  <SCORE.RESTR.norm>
0

>  <SCORE.SYSTEM>
0

>  <SCORE.SYSTEM.CONST>
0

>  <SCORE.SYSTEM.DIHEDRAL>
0

>  <SCORE.SYSTEM.SOLV>
0

>  <SCORE.SYSTEM.norm>
0

>  <SCORE.heavy>
31

>  <SCORE.norm>
-1.27041

>  <RMSD>
7.101

$$$$
lig.pdb
 OpenBabel11021811453D
libRbt.so/2013.1/901 2013/11/27
 31 33  0  0  0  0  0  0  0  0999 V2000
   -2.2195   -1.5064    3.3811 O   0  0  0  0  0  0  0  0  0  0  0  0
   -1.1964   -0.7843    4.0385 C   0  0  0  0  0  0  0  0  0  0  0  0
   -0.7857    0.4600    3.2395 C   0  0  1  0  0  0  0  0  0  0  0  0
   -1.8180    1.4329    3.2105 O   0  0  0  0  0  0  0  0  0  0  0  0
   -1.2514    2.7265    3.0258 C   0  0  1  0  0  0  0  0  0  0  0  0
   -1.8104    3.6369    3.9652 O   0  0  0  0  0  0  0  0  0  0  0  0
   -2.2920    4.8726    3.4611 C   0  0  2  0  0  0  0  0  0  0  0  0
   -1.1438    5.5424    2.6897 C   0  0  1  0  0  0  0  0  0  0  0  0
   -0.8782    4.8147    1.5008 O   0  0  0  0  0  0  0  0  0  0  0  0
   -1.4274    6.9962    2.2820 C   0  0  2  0  0  0  0  0  0  0  0  0
   -0.2529    7.6022    1.6359 N   0  0  0  0  0  0  0  0  0  0  0  0
   -1.8059    7.8109    3.5132 C   0  0  0  0  0  0  0  0  0  0  0  0
   -2.9962    7.1639    4.2106 C   0  0  2  0  0  0  0  0  0  0  0  0
   -3.3724    7.9970    5.3578 N   0  0  0  0  0  0  0  0  0  0  0  0
   -2.6494    5.7216    4.6387 C   0  0  1  0  0  0  0  0  0  0  0  0
   -3.8260    5.2222    5.2928 O   0  0  0  0  0  0  0  0  0  0  0  0
   -3.6932    4.0146    6.0349 C   0  0  1  0  0  0  0  0  0  0  0  0
   -2.5094    4.0387    6.8277 O   0  0  0  0  0  0  0  0  0  0  0  0
   -2.4995    4.9577    7.9181 C   0  0  2  0  0  0  0  0  0  0  0  0
   -1.1572    4.8429    8.6526 C   0  0  0  0  0  0  0  0  0  0  0  0
   -0.8887    3.4751    9.0729 N   0  0  0  0  0  0  0  0  0  0  0  0
   -3.6548    4.6636    8.8931 C   0  0  1  0  0  0  0  0  0  0  0  0
   -3.6590    5.6240    9.9344 O   0  0  0  0  0  0  0  0  0  0  0  0
   -4.9789    4.7246    8.1214 C   0  0  2  0  0  0  0  0  0  0  0  0
   -6.0543    4.3724    8.9715 O   0  0  0  0  0  0  0  0  0  0  0  0
   -4.9385    3.7947    6.9013 C   0  0  1  0  0  0  0  0  0  0  0  0
   -6.1608    3.9579    6.1013 N   0  0  0  0  0  0  0  0  0  0  0  0
    0.2575    2.5911    3.2772 C   0  0  2  0  0  0  0  0  0  0  0  0
    0.9613    2.7195    2.0558 O   0  0  0  0  0  0  0  0  0  0  0  0
    0.3754    1.1994    3.8967 C   0  0  2  0  0  0  0  0  0  0  0  0
    1.6325    0.5876    3.6854 O   0  0  0  0  0  0  0  0  0  0  0  0
  2  1  1  0  0  0  0
  3  2  1  1  0  0  0
  3 30  1  0  0  0  0
  4  5  1  0  0  0  0
  4  3  1  0  0  0  0
  5 28  1  0  0  0  0
  5  6  1  1  0  0  0
  7  6  1  1  0  0  0
  8  7  1  0  0  0  0
  8  9  1  6  0  0  0
 10 11  1  1  0  0  0
 10  8  1  0  0  0  0
 12 10  1  0  0  0  0
 13 12  1  0  0  0  0
 13 15  1  0  0  0  0
 13 14  1  1  0  0  0
 15  7  1  0  0  0  0
 15 16  1  6  0  0  0
 17 16  1  1  0  0  0
 18 17  1  0  0  0  0
 19 20  1  1  0  0  0
 19 18  1  0  0  0  0
 20 21  1  0  0  0  0
 22 24  1  0  0  0  0
 22 19  1  0  0  0  0
 22 23  1  1  0  0  0
 24 25  1  1  0  0  0
 24 26  1  0  0  0  0
 26 17  1  0  0  0  0
 26 27  1  6  0  0  0
 28 29  1  6  0  0  0
 28 30  1  0  0  0  0
 30 31  1  6  0  0  0
M  END
>  <CHROM.1>
65.25267167,68.14440637,-130.82575569,-55.11045999,69.71709498,-152.62887406
163.60858799,72.03998385,44.45870181,-55.08024709,55.92415548,-170.82022098
63.32810408,-51.26081551,178.94357677,-172.08728261,-2.14893593,4.02378444
5.03697187,0.15305741,-1.00254103,2.77354140

>  <Name>
lig.pdb

>  <RI>
3.33129e+07

>  <Rbt.Current_Directory>
/home/itssahil/PROJECTS/Mol_Feturizer/New_Systems/rnas/2n0j

>  <Rbt.Executable>
rbdock ($Id: //depot/dev/client3/rdock/2013.1/src/exe/rbdock.cxx#4 $)

>  <Rbt.Library>
libRbt.so (2013.1, Build901 2013/11/27)

>  <Rbt.Parameter_File>
/export/apps/rDock/src/rDock_2013.1_src/data/scripts/dock_solv.prm

>  <Rbt.Receptor>
prm/pocket_docking_4.prm

>  <SCORE>
-32.4136

>  <SCORE.INTER>
-32.4917

>  <SCORE.INTER.CONST>
1

>  <SCORE.INTER.POLAR>
-3.88631

>  <SCORE.INTER.ROT>
6

>  <SCORE.INTER.SOLV>
14.6817

>  <SCORE.INTER.VDW>
-21.2007

>  <SCORE.INTER.norm>
-1.04812

>  <SCORE.INTRA>
-0.0218217

>  <SCORE.INTRA.DIHEDRAL>
-14.9805

>  <SCORE.INTRA.DIHEDRAL.0>
28.0161

>  <SCORE.INTRA.POLAR>
1.01254

>  <SCORE.INTRA.POLAR.0>
-1.05798

>  <SCORE.INTRA.REPUL>
0

>  <SCORE.INTRA.REPUL.0>
0

>  <SCORE.INTRA.SOLV>
0.399602

>  <SCORE.INTRA.SOLV.lig_0>
-42.5945

>  <SCORE.INTRA.VDW>
3.82599

>  <SCORE.INTRA.VDW.0>
-5.13869

>  <SCORE.INTRA.norm>
-0.000703925

>  <SCORE.RESTR>
0.0999261

>  <SCORE.RESTR.CAVITY>
0.0999261

>  <SCORE.RESTR.norm>
0.00322342

>  <SCORE.SYSTEM>
0

>  <SCORE.SYSTEM.CONST>
0

>  <SCORE.SYSTEM.DIHEDRAL>
0

>  <SCORE.SYSTEM.SOLV>
0

>  <SCORE.SYSTEM.norm>
0

>  <SCORE.heavy>
31

>  <SCORE.norm>
-1.0456

>  <RMSD>
7.102

$$$$
lig.pdb
 OpenBabel11021811453D
libRbt.so/2013.1/901 2013/11/27
 31 33  0  0  0  0  0  0  0  0999 V2000
    2.3345   -1.9875    3.6611 O   0  0  0  0  0  0  0  0  0  0  0  0
    1.4258   -1.0431    3.1297 C   0  0  0  0  0  0  0  0  0  0  0  0
    2.1588    0.0998    2.4143 C   0  0  1  0  0  0  0  0  0  0  0  0
    1.2635    1.1125    1.9831 O   0  0  0  0  0  0  0  0  0  0  0  0
    1.9537    2.3552    1.8939 C   0  0  1  0  0  0  0  0  0  0  0  0
    1.1960    3.3752    2.5336 O   0  0  0  0  0  0  0  0  0  0  0  0
    0.8739    4.5219    1.7628 C   0  0  2  0  0  0  0  0  0  0  0  0
    2.1493    5.3690    1.6292 C   0  0  1  0  0  0  0  0  0  0  0  0
    3.0832    4.6990    0.7971 O   0  0  0  0  0  0  0  0  0  0  0  0
    1.9157    6.7619    1.0247 C   0  0  2  0  0  0  0  0  0  0  0  0
    3.1582    7.5494    1.0170 N   0  0  0  0  0  0  0  0  0  0  0  0
    0.8524    7.4998    1.8296 C   0  0  0  0  0  0  0  0  0  0  0  0
   -0.4241    6.6690    1.8764 C   0  0  2  0  0  0  0  0  0  0  0  0
   -1.4451    7.4260    2.6088 N   0  0  0  0  0  0  0  0  0  0  0  0
   -0.1489    5.2974    2.5296 C   0  0  1  0  0  0  0  0  0  0  0  0
   -1.4121    4.6148    2.5350 O   0  0  0  0  0  0  0  0  0  0  0  0
   -1.5146    3.4451    3.3400 C   0  0  1  0  0  0  0  0  0  0  0  0
   -1.6936    3.7917    4.7106 O   0  0  0  0  0  0  0  0  0  0  0  0
   -2.9417    4.3915    5.0513 C   0  0  2  0  0  0  0  0  0  0  0  0
   -2.9545    4.6915    6.5562 C   0  0  0  0  0  0  0  0  0  0  0  0
   -1.7468    5.3876    6.9766 N   0  0  0  0  0  0  0  0  0  0  0  0
   -4.1137    3.4581    4.6953 C   0  0  1  0  0  0  0  0  0  0  0  0
   -5.3425    4.0988    4.9883 O   0  0  0  0  0  0  0  0  0  0  0  0
   -4.0422    3.1253    3.1997 C   0  0  2  0  0  0  0  0  0  0  0  0
   -5.0558    2.1983    2.8584 O   0  0  0  0  0  0  0  0  0  0  0  0
   -2.6618    2.5627    2.8350 C   0  0  1  0  0  0  0  0  0  0  0  0
   -2.5637    2.3683    1.3814 N   0  0  0  0  0  0  0  0  0  0  0  0
    3.2917    2.1742    2.6255 C   0  0  2  0  0  0  0  0  0  0  0  0
    4.3525    2.1539    1.6885 O   0  0  0  0  0  0  0  0  0  0  0  0
    3.1046    0.8432    3.3521 C   0  0  2  0  0  0  0  0  0  0  0  0
    4.3151    0.1565    3.6016 O   0  0  0  0  0  0  0  0  0  0  0  0
  2  1  1  0  0  0  0
  3  2  1  1  0  0  0
  3 30  1  0  0  0  0
  4  5  1  0  0  0  0
  4  3  1  0  0  0  0
  5 28  1  0  0  0  0
  5  6  1  1  0  0  0
  7  6  1  1  0  0  0
  8  7  1  0  0  0  0
  8  9  1  6  0  0  0
 10 11  1  1  0  0  0
 10  8  1  0  0  0  0
 12 10  1  0  0  0  0
 13 12  1  0  0  0  0
 13 15  1  0  0  0  0
 13 14  1  1  0  0  0
 15  7  1  0  0  0  0
 15 16  1  6  0  0  0
 17 16  1  6  0  0  0
 18 17  1  0  0  0  0
 19 20  1  1  0  0  0
 19 18  1  0  0  0  0
 20 21  1  0  0  0  0
 22 24  1  0  0  0  0
 22 19  1  0  0  0  0
 22 23  1  6  0  0  0
 24 25  1  1  0  0  0
 24 26  1  0  0  0  0
 26 17  1  0  0  0  0
 26 27  1  6  0  0  0
 28 29  1  6  0  0  0
 28 30  1  0  0  0  0
 30 31  1  6  0  0  0
M  END
>  <CHROM.1>
-70.16954934,-174.71042642,-124.52300958,-74.62574960,-179.80769069,-173.81038548
164.65053482,72.51712664,78.74166663,49.09346538,-169.20934682,-71.11385242
174.74195271,-77.55318035,-177.46859179,-46.57295558,-0.00814023,3.50609214
2.94526626,0.30977261,-0.35627538,2.93636368

>  <Name>
lig.pdb

>  <RI>
2.74555e+07

>  <Rbt.Current_Directory>
/home/itssahil/PROJECTS/Mol_Feturizer/New_Systems/rnas/2n0j

>  <Rbt.Executable>
rbdock ($Id: //depot/dev/client3/rdock/2013.1/src/exe/rbdock.cxx#4 $)

>  <Rbt.Library>
libRbt.so (2013.1, Build901 2013/11/27)

>  <Rbt.Parameter_File>
/export/apps/rDock/src/rDock_2013.1_src/data/scripts/dock_solv.prm

>  <Rbt.Receptor>
prm/pocket_docking_6.prm

>  <SCORE>
-48.4532

>  <SCORE.INTER>
-46.6849

>  <SCORE.INTER.CONST>
1

>  <SCORE.INTER.POLAR>
-6.26936

>  <SCORE.INTER.ROT>
6

>  <SCORE.INTER.SOLV>
19.22

>  <SCORE.INTER.VDW>
-24.2321

>  <SCORE.INTER.norm>
-1.50597

>  <SCORE.INTRA>
-1.76821

>  <SCORE.INTRA.DIHEDRAL>
-12.971

>  <SCORE.INTRA.DIHEDRAL.0>
28.0161

>  <SCORE.INTRA.POLAR>
0.694573

>  <SCORE.INTRA.POLAR.0>
-1.05798

>  <SCORE.INTRA.REPUL>
0

>  <SCORE.INTRA.REPUL.0>
0

>  <SCORE.INTRA.SOLV>
0.309577

>  <SCORE.INTRA.SOLV.lig_0>
-42.5945

>  <SCORE.INTRA.VDW>
2.20094

>  <SCORE.INTRA.VDW.0>
-5.13869

>  <SCORE.INTRA.norm>
-0.057039

>  <SCORE.RESTR>
0

>  <SCORE.RESTR.CAVITY>
0

>  <SCORE.RESTR.norm>
0

>  <SCORE.SYSTEM>
0

>  <SCORE.SYSTEM.CONST>
0

>  <SCORE.SYSTEM.DIHEDRAL>
0

>  <SCORE.SYSTEM.SOLV>
0

>  <SCORE.SYSTEM.norm>
0

>  <SCORE.heavy>
31

>  <SCORE.norm>
-1.563

>  <RMSD>
7.102

$$$$
lig.pdb
 OpenBabel11021811453D
libRbt.so/2013.1/901 2013/11/27
 31 33  0  0  0  0  0  0  0  0999 V2000
   -0.8153   -0.2534    0.3832 O   0  0  0  0  0  0  0  0  0  0  0  0
   -0.0815   -0.1293    1.5858 C   0  0  0  0  0  0  0  0  0  0  0  0
    1.1579    0.7560    1.3980 C   0  0  1  0  0  0  0  0  0  0  0  0
    0.8081    2.1128    1.1746 O   0  0  0  0  0  0  0  0  0  0  0  0
    1.8743    2.9576    1.5970 C   0  0  1  0  0  0  0  0  0  0  0  0
    1.3629    4.0159    2.3985 O   0  0  0  0  0  0  0  0  0  0  0  0
    0.7997    5.1275    1.7203 C   0  0  2  0  0  0  0  0  0  0  0  0
    1.9145    6.1661    1.5186 C   0  0  1  0  0  0  0  0  0  0  0  0
    2.8547    5.6807    0.5731 O   0  0  0  0  0  0  0  0  0  0  0  0
    1.4173    7.5281    1.0108 C   0  0  2  0  0  0  0  0  0  0  0  0
    2.5206    8.4980    0.9341 N   0  0  0  0  0  0  0  0  0  0  0  0
    0.3369    8.0615    1.9443 C   0  0  0  0  0  0  0  0  0  0  0  0
   -0.7897    7.0421    2.0607 C   0  0  2  0  0  0  0  0  0  0  0  0
   -1.8381    7.6036    2.9193 N   0  0  0  0  0  0  0  0  0  0  0  0
   -0.2500    5.7056    2.6143 C   0  0  1  0  0  0  0  0  0  0  0  0
   -1.3897    4.8362    2.6960 O   0  0  0  0  0  0  0  0  0  0  0  0
   -1.2960    3.7242    3.5800 C   0  0  1  0  0  0  0  0  0  0  0  0
   -1.5009    4.1351    4.9290 O   0  0  0  0  0  0  0  0  0  0  0  0
   -2.8199    4.5603    5.2651 C   0  0  2  0  0  0  0  0  0  0  0  0
   -2.8510    4.9602    6.7462 C   0  0  0  0  0  0  0  0  0  0  0  0
   -1.8385    4.2520    7.5164 N   0  0  0  0  0  0  0  0  0  0  0  0
   -3.8406    3.4365    5.0063 C   0  0  1  0  0  0  0  0  0  0  0  0
   -5.1478    3.9016    5.2915 O   0  0  0  0  0  0  0  0  0  0  0  0
   -3.7464    3.0140    3.5349 C   0  0  2  0  0  0  0  0  0  0  0  0
   -4.6112    1.9217    3.2859 O   0  0  0  0  0  0  0  0  0  0  0  0
   -2.3028    2.6440    3.1686 C   0  0  1  0  0  0  0  0  0  0  0  0
   -2.2027    2.3648    1.7290 N   0  0  0  0  0  0  0  0  0  0  0  0
    2.8233    2.0900    2.4365 C   0  0  2  0  0  0  0  0  0  0  0  0
    4.0253    1.8652    1.7237 O   0  0  0  0  0  0  0  0  0  0  0  0
    2.0098    0.8165    2.6619 C   0  0  2  0  0  0  0  0  0  0  0  0
    2.8028   -0.3355    2.8696 O   0  0  0  0  0  0  0  0  0  0  0  0
  2  1  1  0  0  0  0
  3  2  1  1  0  0  0
  3 30  1  0  0  0  0
  4  5  1  0  0  0  0
  4  3  1  0  0  0  0
  5 28  1  0  0  0  0
  5  6  1  1  0  0  0
  7  6  1  1  0  0  0
  8  7  1  0  0  0  0
  8  9  1  6  0  0  0
 10 11  1  1  0  0  0
 10  8  1  0  0  0  0
 12 10  1  0  0  0  0
 13 12  1  0  0  0  0
 13 15  1  0  0  0  0
 13 14  1  1  0  0  0
 15  7  1  0  0  0  0
 15 16  1  6  0  0  0
 17 16  1  6  0  0  0
 18 17  1  0  0  0  0
 19 20  1  1  0  0  0
 19 18  1  0  0  0  0
 20 21  1  0  0  0  0
 22 24  1  0  0  0  0
 22 19  1  0  0  0  0
 22 23  1  6  0  0  0
 24 25  1  1  0  0  0
 24 26  1  0  0  0  0
 26 17  1  0  0  0  0
 26 27  1  6  0  0  0
 28 29  1  6  0  0  0
 28 30  1  0  0  0  0
 30 31  1  6  0  0  0
M  END
>  <CHROM.1>
69.48073381,68.69983937,-81.13973537,-91.97460586,-65.89934006,-175.19998001
-128.51124467,80.31371057,78.38289103,-26.98010485,168.18984984,-57.06854916
-174.05424427,161.13336416,173.90269541,-169.67572180,-0.34256783,3.81408794
2.78539361,0.10884503,-0.54164410,-3.11584113

>  <Name>
lig.pdb

>  <RI>
3.50357e+07

>  <Rbt.Current_Directory>
/home/itssahil/PROJECTS/Mol_Feturizer/New_Systems/rnas/2n0j

>  <Rbt.Executable>
rbdock ($Id: //depot/dev/client3/rdock/2013.1/src/exe/rbdock.cxx#4 $)

>  <Rbt.Library>
libRbt.so (2013.1, Build901 2013/11/27)

>  <Rbt.Parameter_File>
/export/apps/rDock/src/rDock_2013.1_src/data/scripts/dock_solv.prm

>  <Rbt.Receptor>
prm/pocket_docking_3.prm

>  <SCORE>
-38.2011

>  <SCORE.INTER>
-36.5428

>  <SCORE.INTER.CONST>
1

>  <SCORE.INTER.POLAR>
-3.78046

>  <SCORE.INTER.ROT>
6

>  <SCORE.INTER.SOLV>
14.6234

>  <SCORE.INTER.VDW>
-24.2348

>  <SCORE.INTER.norm>
-1.1788

>  <SCORE.INTRA>
-2.58519

>  <SCORE.INTRA.DIHEDRAL>
-8.87283

>  <SCORE.INTRA.DIHEDRAL.0>
28.0161

>  <SCORE.INTRA.POLAR>
-0.00989177

>  <SCORE.INTRA.POLAR.0>
-1.05798

>  <SCORE.INTRA.REPUL>
0

>  <SCORE.INTRA.REPUL.0>
0

>  <SCORE.INTRA.SOLV>
0.39645

>  <SCORE.INTRA.SOLV.lig_0>
-42.5945

>  <SCORE.INTRA.VDW>
1.68664

>  <SCORE.INTRA.VDW.0>
-5.13869

>  <SCORE.INTRA.norm>
-0.0833931

>  <SCORE.RESTR>
0.926881

>  <SCORE.RESTR.CAVITY>
0.926881

>  <SCORE.RESTR.norm>
0.0298994

>  <SCORE.SYSTEM>
0

>  <SCORE.SYSTEM.CONST>
0

>  <SCORE.SYSTEM.DIHEDRAL>
0

>  <SCORE.SYSTEM.SOLV>
0

>  <SCORE.SYSTEM.norm>
0

>  <SCORE.heavy>
31

>  <SCORE.norm>
-1.23229

>  <RMSD>
7.119

$$$$
lig.pdb
 OpenBabel11021811453D
libRbt.so/2013.1/901 2013/11/27
 31 33  0  0  0  0  0  0  0  0999 V2000
   -4.7946    0.5289   -0.6469 O   0  0  0  0  0  0  0  0  0  0  0  0
   -3.6332   -0.1516   -0.2130 C   0  0  0  0  0  0  0  0  0  0  0  0
   -2.3935    0.7500   -0.2883 C   0  0  1  0  0  0  0  0  0  0  0  0
   -2.3846    1.7220    0.7452 O   0  0  0  0  0  0  0  0  0  0  0  0
   -1.0429    2.1080    1.0275 C   0  0  1  0  0  0  0  0  0  0  0  0
   -0.8206    2.0889    2.4325 O   0  0  0  0  0  0  0  0  0  0  0  0
    0.4798    2.4287    2.8866 C   0  0  2  0  0  0  0  0  0  0  0  0
    0.9721    3.6187    2.0477 C   0  0  1  0  0  0  0  0  0  0  0  0
    0.2245    4.7786    2.3785 O   0  0  0  0  0  0  0  0  0  0  0  0
    2.4564    3.9580    2.2522 C   0  0  2  0  0  0  0  0  0  0  0  0
    2.8802    5.0395    1.3497 N   0  0  0  0  0  0  0  0  0  0  0  0
    3.3069    2.7197    1.9946 C   0  0  0  0  0  0  0  0  0  0  0  0
    2.8445    1.5827    2.8975 C   0  0  2  0  0  0  0  0  0  0  0  0
    3.7138    0.4237    2.6680 N   0  0  0  0  0  0  0  0  0  0  0  0
    1.3616    1.2498    2.6258 C   0  0  1  0  0  0  0  0  0  0  0  0
    1.0433    0.1655    3.5116 O   0  0  0  0  0  0  0  0  0  0  0  0
    0.7578    0.4963    4.8664 C   0  0  1  0  0  0  0  0  0  0  0  0
   -0.6194    0.2763    5.1587 O   0  0  0  0  0  0  0  0  0  0  0  0
   -1.0504   -1.0829    5.1788 C   0  0  2  0  0  0  0  0  0  0  0  0
   -2.5482   -1.1245    5.5094 C   0  0  0  0  0  0  0  0  0  0  0  0
   -2.8347   -0.4933    6.7897 N   0  0  0  0  0  0  0  0  0  0  0  0
   -0.2622   -1.8922    6.2254 C   0  0  1  0  0  0  0  0  0  0  0  0
   -0.6665   -3.2492    6.1855 O   0  0  0  0  0  0  0  0  0  0  0  0
    1.2344   -1.7840    5.9076 C   0  0  2  0  0  0  0  0  0  0  0  0
    1.9924   -2.4456    6.9030 O   0  0  0  0  0  0  0  0  0  0  0  0
    1.6613   -0.3137    5.8031 C   0  0  1  0  0  0  0  0  0  0  0  0
    3.0643   -0.2245    5.3737 N   0  0  0  0  0  0  0  0  0  0  0  0
   -0.1310    1.0753    0.3493 C   0  0  2  0  0  0  0  0  0  0  0  0
    0.5216    1.6655   -0.7594 O   0  0  0  0  0  0  0  0  0  0  0  0
   -1.1066   -0.0322   -0.0459 C   0  0  2  0  0  0  0  0  0  0  0  0
   -0.6834   -0.7916   -1.1610 O   0  0  0  0  0  0  0  0  0  0  0  0
  2  1  1  0  0  0  0
  3  2  1  1  0  0  0
  3 30  1  0  0  0  0
  4  5  1  0  0  0  0
  4  3  1  0  0  0  0
  5 28  1  0  0  0  0
  5  6  1  1  0  0  0
  7  6  1  6  0  0  0
  8  7  1  0  0  0  0
  8  9  1  1  0  0  0
 10 11  1  6  0  0  0
 10  8  1  0  0  0  0
 12 10  1  0  0  0  0
 13 12  1  0  0  0  0
 13 15  1  0  0  0  0
 13 14  1  6  0  0  0
 15  7  1  0  0  0  0
 15 16  1  1  0  0  0
 17 16  1  6  0  0  0
 18 17  1  0  0  0  0
 19 20  1  1  0  0  0
 19 18  1  0  0  0  0
 20 21  1  0  0  0  0
 22 24  1  0  0  0  0
 22 19  1  0  0  0  0
 22 23  1  6  0  0  0
 24 25  1  1  0  0  0
 24 26  1  0  0  0  0
 26 17  1  0  0  0  0
 26 27  1  6  0  0  0
 28 29  1  6  0  0  0
 28 30  1  0  0  0  0
 30 31  1  6  0  0  0
M  END
>  <CHROM.1>
-176.18779843,74.08772455,178.98599058,41.16051538,-168.64434767,-20.58903020
-163.87251113,-40.67568764,110.84238530,-58.35979319,90.20401950,57.50361762
-173.13946785,153.13666684,-156.80733673,173.07099847,0.11355249,0.73070839
2.89612608,1.74648796,-0.48168622,-0.95294439

>  <Name>
lig.pdb

>  <RI>
9.20816e+06

>  <Rbt.Current_Directory>
/home/itssahil/PROJECTS/Mol_Feturizer/New_Systems/rnas/2n0j

>  <Rbt.Executable>
rbdock ($Id: //depot/dev/client3/rdock/2013.1/src/exe/rbdock.cxx#4 $)

>  <Rbt.Library>
libRbt.so (2013.1, Build901 2013/11/27)

>  <Rbt.Parameter_File>
/export/apps/rDock/src/rDock_2013.1_src/data/scripts/dock_solv.prm

>  <Rbt.Receptor>
prm/blind_docking_100.prm

>  <SCORE>
-16.7112

>  <SCORE.INTER>
-31.6815

>  <SCORE.INTER.CONST>
1

>  <SCORE.INTER.POLAR>
-4.95935

>  <SCORE.INTER.ROT>
6

>  <SCORE.INTER.SOLV>
24.1468

>  <SCORE.INTER.VDW>
-20.2388

>  <SCORE.INTER.norm>
-1.02198

>  <SCORE.INTRA>
10.3421

>  <SCORE.INTRA.DIHEDRAL>
-6.86341

>  <SCORE.INTRA.DIHEDRAL.0>
28.0161

>  <SCORE.INTRA.POLAR>
1.02535

>  <SCORE.INTRA.POLAR.0>
-1.05798

>  <SCORE.INTRA.REPUL>
0

>  <SCORE.INTRA.REPUL.0>
0

>  <SCORE.INTRA.SOLV>
0.840491

>  <SCORE.INTRA.SOLV.lig_0>
-42.5945

>  <SCORE.INTRA.VDW>
9.86734

>  <SCORE.INTRA.VDW.0>
-5.13869

>  <SCORE.INTRA.norm>
0.333615

>  <SCORE.RESTR>
4.62826

>  <SCORE.RESTR.CAVITY>
4.62826

>  <SCORE.RESTR.norm>
0.149299

>  <SCORE.SYSTEM>
0

>  <SCORE.SYSTEM.CONST>
0

>  <SCORE.SYSTEM.DIHEDRAL>
0

>  <SCORE.SYSTEM.SOLV>
0

>  <SCORE.SYSTEM.norm>
0

>  <SCORE.heavy>
31

>  <SCORE.norm>
-0.53907

>  <RMSD>
7.120

$$$$
lig.pdb
 OpenBabel11021811453D
libRbt.so/2013.1/901 2013/11/27
 31 33  0  0  0  0  0  0  0  0999 V2000
   -0.3393    0.3160    4.1746 O   0  0  0  0  0  0  0  0  0  0  0  0
    0.1831   -0.2433    2.9852 C   0  0  0  0  0  0  0  0  0  0  0  0
    1.2179    0.6853    2.3358 C   0  0  1  0  0  0  0  0  0  0  0  0
    0.6668    1.9559    2.0277 O   0  0  0  0  0  0  0  0  0  0  0  0
    1.7011    2.9351    2.0119 C   0  0  1  0  0  0  0  0  0  0  0  0
    1.2996    4.0734    2.7649 O   0  0  0  0  0  0  0  0  0  0  0  0
    0.5785    5.0831    2.0768 C   0  0  2  0  0  0  0  0  0  0  0  0
    1.5825    6.1648    1.6478 C   0  0  1  0  0  0  0  0  0  0  0  0
    2.4304    5.6539    0.6312 O   0  0  0  0  0  0  0  0  0  0  0  0
    0.9299    7.4428    1.0991 C   0  0  2  0  0  0  0  0  0  0  0  0
    1.9430    8.4669    0.8008 N   0  0  0  0  0  0  0  0  0  0  0  0
   -0.0617    7.9919    2.1181 C   0  0  0  0  0  0  0  0  0  0  0  0
   -1.0893    6.9208    2.4627 C   0  0  2  0  0  0  0  0  0  0  0  0
   -2.0606    7.4930    3.4012 N   0  0  0  0  0  0  0  0  0  0  0  0
   -0.3909    5.6749    3.0491 C   0  0  1  0  0  0  0  0  0  0  0  0
   -1.4465    4.7490    3.3489 O   0  0  0  0  0  0  0  0  0  0  0  0
   -1.3337    4.0050    4.5573 C   0  0  1  0  0  0  0  0  0  0  0  0
   -1.5667    4.8417    5.6871 O   0  0  0  0  0  0  0  0  0  0  0  0
   -2.9009    5.3160    5.8559 C   0  0  2  0  0  0  0  0  0  0  0  0
   -2.9614    6.1922    7.1141 C   0  0  0  0  0  0  0  0  0  0  0  0
   -4.2710    6.8062    7.2801 N   0  0  0  0  0  0  0  0  0  0  0  0
   -3.8873    4.1410    5.9901 C   0  0  1  0  0  0  0  0  0  0  0  0
   -5.2102    4.6360    6.0976 O   0  0  0  0  0  0  0  0  0  0  0  0
   -3.7632    3.2487    4.7488 C   0  0  2  0  0  0  0  0  0  0  0  0
   -4.5948    2.1113    4.8820 O   0  0  0  0  0  0  0  0  0  0  0  0
   -2.3056    2.8198    4.5332 C   0  0  1  0  0  0  0  0  0  0  0  0
   -2.1799    2.0732    3.2733 N   0  0  0  0  0  0  0  0  0  0  0  0
    2.9316    2.2928    2.6687 C   0  0  2  0  0  0  0  0  0  0  0  0
    3.9212    2.0389    1.6891 O   0  0  0  0  0  0  0  0  0  0  0  0
    2.3595    1.0199    3.2906 C   0  0  2  0  0  0  0  0  0  0  0  0
    3.3072   -0.0199    3.4313 O   0  0  0  0  0  0  0  0  0  0  0  0
  2  1  1  0  0  0  0
  3  2  1  1  0  0  0
  3 30  1  0  0  0  0
  4  5  1  0  0  0  0
  4  3  1  0  0  0  0
  5 28  1  0  0  0  0
  5  6  1  1  0  0  0
  7  6  1  1  0  0  0
  8  7  1  0  0  0  0
  8  9  1  6  0  0  0
 10 11  1  1  0  0  0
 10  8  1  0  0  0  0
 12 10  1  0  0  0  0
 13 12  1  0  0  0  0
 13 15  1  0  0  0  0
 13 14  1  1  0  0  0
 15  7  1  0  0  0  0
 15 16  1  6  0  0  0
 17 16  1  6  0  0  0
 18 17  1  0  0  0  0
 19 20  1  1  0  0  0
 19 18  1  0  0  0  0
 20 21  1  0  0  0  0
 22 24  1  0  0  0  0
 22 19  1  0  0  0  0
 22 23  1  6  0  0  0
 24 25  1  1  0  0  0
 24 26  1  0  0  0  0
 26 17  1  0  0  0  0
 26 27  1  6  0  0  0
 28 29  1  6  0  0  0
 28 30  1  0  0  0  0
 30 31  1  6  0  0  0
M  END
>  <CHROM.1>
178.63044522,-58.53557053,-88.00217852,-96.25027817,71.59037897,69.15132478
-62.17365018,99.06019523,72.23573097,174.93050589,-38.86554474,53.50031732
54.21244696,168.75383340,-68.09535151,-57.60882106,-0.51780404,4.07991874
3.49176652,0.24088263,-0.59301015,2.94837226

>  <Name>
lig.pdb

>  <RI>
2.74555e+07

>  <Rbt.Current_Directory>
/home/itssahil/PROJECTS/Mol_Feturizer/New_Systems/rnas/2n0j

>  <Rbt.Executable>
rbdock ($Id: //depot/dev/client3/rdock/2013.1/src/exe/rbdock.cxx#4 $)

>  <Rbt.Library>
libRbt.so (2013.1, Build901 2013/11/27)

>  <Rbt.Parameter_File>
/export/apps/rDock/src/rDock_2013.1_src/data/scripts/dock_solv.prm

>  <Rbt.Receptor>
prm/pocket_docking_6.prm

>  <SCORE>
-43.4078

>  <SCORE.INTER>
-38.6481

>  <SCORE.INTER.CONST>
1

>  <SCORE.INTER.POLAR>
-3.85488

>  <SCORE.INTER.ROT>
6

>  <SCORE.INTER.SOLV>
17.6326

>  <SCORE.INTER.VDW>
-26.3933

>  <SCORE.INTER.norm>
-1.24671

>  <SCORE.INTRA>
-4.75974

>  <SCORE.INTRA.DIHEDRAL>
-10.7517

>  <SCORE.INTRA.DIHEDRAL.0>
28.0161

>  <SCORE.INTRA.POLAR>
-0.176577

>  <SCORE.INTRA.POLAR.0>
-1.05798

>  <SCORE.INTRA.REPUL>
0

>  <SCORE.INTRA.REPUL.0>
0

>  <SCORE.INTRA.SOLV>
2.37256

>  <SCORE.INTRA.SOLV.lig_0>
-42.5945

>  <SCORE.INTRA.VDW>
0.0301764

>  <SCORE.INTRA.VDW.0>
-5.13869

>  <SCORE.INTRA.norm>
-0.15354

>  <SCORE.RESTR>
0

>  <SCORE.RESTR.CAVITY>
0

>  <SCORE.RESTR.norm>
0

>  <SCORE.SYSTEM>
0

>  <SCORE.SYSTEM.CONST>
0

>  <SCORE.SYSTEM.DIHEDRAL>
0

>  <SCORE.SYSTEM.SOLV>
0

>  <SCORE.SYSTEM.norm>
0

>  <SCORE.heavy>
31

>  <SCORE.norm>
-1.40025

>  <RMSD>
7.133

$$$$
lig.pdb
 OpenBabel11021811453D
libRbt.so/2013.1/901 2013/11/27
 31 33  0  0  0  0  0  0  0  0999 V2000
   -0.8182   -2.5692    2.0987 O   0  0  0  0  0  0  0  0  0  0  0  0
   -1.2065   -1.2317    2.3443 C   0  0  0  0  0  0  0  0  0  0  0  0
    0.0084   -0.2956    2.3985 C   0  0  1  0  0  0  0  0  0  0  0  0
   -0.3724    1.0685    2.3141 O   0  0  0  0  0  0  0  0  0  0  0  0
    0.6119    1.8802    2.9474 C   0  0  1  0  0  0  0  0  0  0  0  0
   -0.0182    2.8107    3.8198 O   0  0  0  0  0  0  0  0  0  0  0  0
   -0.8665    3.7813    3.2273 C   0  0  2  0  0  0  0  0  0  0  0  0
    0.0274    4.8483    2.5757 C   0  0  1  0  0  0  0  0  0  0  0  0
    0.6870    4.2955    1.4476 O   0  0  0  0  0  0  0  0  0  0  0  0
   -0.7327    6.0941    2.0956 C   0  0  2  0  0  0  0  0  0  0  0  0
    0.1944    7.1099    1.5734 N   0  0  0  0  0  0  0  0  0  0  0  0
   -1.5339    6.6842    3.2502 C   0  0  0  0  0  0  0  0  0  0  0  0
   -2.4663    5.6235    3.8226 C   0  0  2  0  0  0  0  0  0  0  0  0
   -3.2622    6.2331    4.8934 N   0  0  0  0  0  0  0  0  0  0  0  0
   -1.6549    4.4120    4.3300 C   0  0  1  0  0  0  0  0  0  0  0  0
   -2.6251    3.4940    4.8568 O   0  0  0  0  0  0  0  0  0  0  0  0
   -2.2729    2.7853    6.0401 C   0  0  1  0  0  0  0  0  0  0  0  0
   -2.0716    3.6866    7.1255 O   0  0  0  0  0  0  0  0  0  0  0  0
   -3.2336    4.3514    7.6166 C   0  0  2  0  0  0  0  0  0  0  0  0
   -2.8272    5.2718    8.7751 C   0  0  0  0  0  0  0  0  0  0  0  0
   -1.6100    6.0117    8.4734 N   0  0  0  0  0  0  0  0  0  0  0  0
   -4.2832    3.3342    8.1016 C   0  0  1  0  0  0  0  0  0  0  0  0
   -5.4490    4.0158    8.5293 O   0  0  0  0  0  0  0  0  0  0  0  0
   -4.6264    2.3894    6.9431 C   0  0  2  0  0  0  0  0  0  0  0  0
   -5.5242    1.3873    7.3820 O   0  0  0  0  0  0  0  0  0  0  0  0
   -3.3543    1.7502    6.3700 C   0  0  1  0  0  0  0  0  0  0  0  0
   -3.6828    0.9487    5.1825 N   0  0  0  0  0  0  0  0  0  0  0  0
    1.5082    0.9372    3.7631 C   0  0  2  0  0  0  0  0  0  0  0  0
    2.7826    0.8402    3.1548 O   0  0  0  0  0  0  0  0  0  0  0  0
    0.7288   -0.3767    3.7406 C   0  0  2  0  0  0  0  0  0  0  0  0
    1.5436   -1.5237    3.8810 O   0  0  0  0  0  0  0  0  0  0  0  0
  2  1  1  0  0  0  0
  3  2  1  1  0  0  0
  3 30  1  0  0  0  0
  4  5  1  0  0  0  0
  4  3  1  0  0  0  0
  5 28  1  0  0  0  0
  5  6  1  1  0  0  0
  7  6  1  1  0  0  0
  8  7  1  0  0  0  0
  8  9  1  6  0  0  0
 10 11  1  1  0  0  0
 10  8  1  0  0  0  0
 12 10  1  0  0  0  0
 13 12  1  0  0  0  0
 13 15  1  0  0  0  0
 13 14  1  1  0  0  0
 15  7  1  0  0  0  0
 15 16  1  6  0  0  0
 17 16  1  6  0  0  0
 18 17  1  0  0  0  0
 19 20  1  1  0  0  0
 19 18  1  0  0  0  0
 20 21  1  0  0  0  0
 22 24  1  0  0  0  0
 22 19  1  0  0  0  0
 22 23  1  6  0  0  0
 24 25  1  1  0  0  0
 24 26  1  0  0  0  0
 26 17  1  0  0  0  0
 26 27  1  6  0  0  0
 28 29  1  6  0  0  0
 28 30  1  0  0  0  0
 30 31  1  6  0  0  0
M  END
>  <CHROM.1>
80.44157747,165.56188200,-64.24094334,-76.19306861,68.66830263,17.24557535
-166.75063590,97.58445032,62.73032203,43.71370209,-34.81708540,-69.40749789
57.46261043,69.68072149,179.54313807,-57.57411857,-1.49537806,2.88617308
4.62068654,0.52216198,-0.84687029,3.08304399

>  <Name>
lig.pdb

>  <RI>
0

>  <Rbt.Current_Directory>
/home/itssahil/PROJECTS/Mol_Feturizer/New_Systems/rnas/2n0j

>  <Rbt.Executable>
rbdock ($Id: //depot/dev/client3/rdock/2013.1/src/exe/rbdock.cxx#4 $)

>  <Rbt.Library>
libRbt.so (2013.1, Build901 2013/11/27)

>  <Rbt.Parameter_File>
/export/apps/rDock/src/rDock_2013.1_src/data/scripts/dock_solv.prm

>  <Rbt.Receptor>
prm/pocket_docking_8.prm

>  <SCORE>
-34.5272

>  <SCORE.INTER>
-33.6695

>  <SCORE.INTER.CONST>
1

>  <SCORE.INTER.POLAR>
-4.88493

>  <SCORE.INTER.ROT>
6

>  <SCORE.INTER.SOLV>
14.6684

>  <SCORE.INTER.VDW>
-18.6527

>  <SCORE.INTER.norm>
-1.08611

>  <SCORE.INTRA>
-0.85772

>  <SCORE.INTRA.DIHEDRAL>
-12.0571

>  <SCORE.INTRA.DIHEDRAL.0>
28.0161

>  <SCORE.INTRA.POLAR>
0.803329

>  <SCORE.INTRA.POLAR.0>
-1.05798

>  <SCORE.INTRA.REPUL>
0.00927956

>  <SCORE.INTRA.REPUL.0>
0

>  <SCORE.INTRA.SOLV>
-0.104829

>  <SCORE.INTRA.SOLV.lig_0>
-42.5945

>  <SCORE.INTRA.VDW>
2.44554

>  <SCORE.INTRA.VDW.0>
-5.13869

>  <SCORE.INTRA.norm>
-0.0276684

>  <SCORE.RESTR>
0

>  <SCORE.RESTR.CAVITY>
0

>  <SCORE.RESTR.norm>
0

>  <SCORE.SYSTEM>
0

>  <SCORE.SYSTEM.CONST>
0

>  <SCORE.SYSTEM.DIHEDRAL>
0

>  <SCORE.SYSTEM.SOLV>
0

>  <SCORE.SYSTEM.norm>
0

>  <SCORE.heavy>
31

>  <SCORE.norm>
-1.11378

>  <RMSD>
7.134

$$$$
lig.pdb
 OpenBabel11021811453D
libRbt.so/2013.1/901 2013/11/27
 31 33  0  0  0  0  0  0  0  0999 V2000
   -1.1762    1.0084   -0.0772 O   0  0  0  0  0  0  0  0  0  0  0  0
   -0.2609    0.2551    0.6940 C   0  0  0  0  0  0  0  0  0  0  0  0
    1.0289    1.0426    0.9615 C   0  0  1  0  0  0  0  0  0  0  0  0
    0.8148    2.4436    0.8954 O   0  0  0  0  0  0  0  0  0  0  0  0
    1.7820    3.1139    1.6979 C   0  0  1  0  0  0  0  0  0  0  0  0
    1.1399    4.0793    2.5222 O   0  0  0  0  0  0  0  0  0  0  0  0
    0.5315    5.1837    1.8718 C   0  0  2  0  0  0  0  0  0  0  0  0
    1.5828    6.2996    1.7630 C   0  0  1  0  0  0  0  0  0  0  0  0
    2.5883    5.9204    0.8364 O   0  0  0  0  0  0  0  0  0  0  0  0
    1.0172    7.6497    1.2967 C   0  0  2  0  0  0  0  0  0  0  0  0
    2.0567    8.6905    1.3092 N   0  0  0  0  0  0  0  0  0  0  0  0
   -0.1308    8.0683    2.2076 C   0  0  0  0  0  0  0  0  0  0  0  0
   -1.1918    6.9749    2.2315 C   0  0  2  0  0  0  0  0  0  0  0  0
   -2.3070    7.4272    3.0703 N   0  0  0  0  0  0  0  0  0  0  0  0
   -0.5874    5.6508    2.7465 C   0  0  1  0  0  0  0  0  0  0  0  0
   -1.6699    4.7076    2.7420 O   0  0  0  0  0  0  0  0  0  0  0  0
   -1.5543    3.5824    3.6064 C   0  0  1  0  0  0  0  0  0  0  0  0
   -1.4279    4.0005    4.9628 O   0  0  0  0  0  0  0  0  0  0  0  0
   -2.5828    4.5978    5.5485 C   0  0  2  0  0  0  0  0  0  0  0  0
   -2.2628    4.9796    6.9999 C   0  0  0  0  0  0  0  0  0  0  0  0
   -2.9078    6.2274    7.3830 N   0  0  0  0  0  0  0  0  0  0  0  0
   -3.7781    3.6274    5.5155 C   0  0  1  0  0  0  0  0  0  0  0  0
   -4.9262    4.2632    6.0485 O   0  0  0  0  0  0  0  0  0  0  0  0
   -4.0379    3.2144    4.0614 C   0  0  2  0  0  0  0  0  0  0  0  0
   -5.0758    2.2537    4.0064 O   0  0  0  0  0  0  0  0  0  0  0  0
   -2.7607    2.6551    3.4204 C   0  0  1  0  0  0  0  0  0  0  0  0
   -2.9890    2.3829    1.9941 N   0  0  0  0  0  0  0  0  0  0  0  0
    2.4456    2.0459    2.5795 C   0  0  2  0  0  0  0  0  0  0  0  0
    3.7750    1.8244    2.1470 O   0  0  0  0  0  0  0  0  0  0  0  0
    1.5387    0.8320    2.3836 C   0  0  2  0  0  0  0  0  0  0  0  0
    2.1954   -0.4054    2.5755 O   0  0  0  0  0  0  0  0  0  0  0  0
  2  1  1  0  0  0  0
  3  2  1  1  0  0  0
  3 30  1  0  0  0  0
  4  5  1  0  0  0  0
  4  3  1  0  0  0  0
  5 28  1  0  0  0  0
  5  6  1  1  0  0  0
  7  6  1  1  0  0  0
  8  7  1  0  0  0  0
  8  9  1  6  0  0  0
 10 11  1  1  0  0  0
 10  8  1  0  0  0  0
 12 10  1  0  0  0  0
 13 12  1  0  0  0  0
 13 15  1  0  0  0  0
 13 14  1  1  0  0  0
 15  7  1  0  0  0  0
 15 16  1  6  0  0  0
 17 16  1  6  0  0  0
 18 17  1  0  0  0  0
 19 20  1  1  0  0  0
 19 18  1  0  0  0  0
 20 21  1  0  0  0  0
 22 24  1  0  0  0  0
 22 19  1  0  0  0  0
 22 23  1  6  0  0  0
 24 25  1  1  0  0  0
 24 26  1  0  0  0  0
 26 17  1  0  0  0  0
 26 27  1  6  0  0  0
 28 29  1  6  0  0  0
 28 30  1  0  0  0  0
 30 31  1  6  0  0  0
M  END
>  <CHROM.1>
65.00516648,24.70303772,-66.18756028,-90.28313051,60.93078915,-175.44755466
-118.93545168,82.02033202,59.40883470,143.43852142,159.55098720,64.32424696
179.59552067,-179.54358626,-66.99688129,56.27925581,-0.63384986,4.01558151
2.89440015,0.37551420,-0.58855430,-3.01748132

>  <Name>
lig.pdb

>  <RI>
3.50357e+07

>  <Rbt.Current_Directory>
/home/itssahil/PROJECTS/Mol_Feturizer/New_Systems/rnas/2n0j

>  <Rbt.Executable>
rbdock ($Id: //depot/dev/client3/rdock/2013.1/src/exe/rbdock.cxx#4 $)

>  <Rbt.Library>
libRbt.so (2013.1, Build901 2013/11/27)

>  <Rbt.Parameter_File>
/export/apps/rDock/src/rDock_2013.1_src/data/scripts/dock_solv.prm

>  <Rbt.Receptor>
prm/pocket_docking_3.prm

>  <SCORE>
-43.8582

>  <SCORE.INTER>
-42.5149

>  <SCORE.INTER.CONST>
1

>  <SCORE.INTER.POLAR>
-4.7259

>  <SCORE.INTER.ROT>
6

>  <SCORE.INTER.SOLV>
16.2555

>  <SCORE.INTER.VDW>
-25.6088

>  <SCORE.INTER.norm>
-1.37145

>  <SCORE.INTRA>
-2.15157

>  <SCORE.INTRA.DIHEDRAL>
-9.72806

>  <SCORE.INTRA.DIHEDRAL.0>
28.0161

>  <SCORE.INTRA.POLAR>
0.0866308

>  <SCORE.INTRA.POLAR.0>
-1.05798

>  <SCORE.INTRA.REPUL>
0

>  <SCORE.INTRA.REPUL.0>
0

>  <SCORE.INTRA.SOLV>
0.548289

>  <SCORE.INTRA.SOLV.lig_0>
-42.5945

>  <SCORE.INTRA.VDW>
2.14378

>  <SCORE.INTRA.VDW.0>
-5.13869

>  <SCORE.INTRA.norm>
-0.0694053

>  <SCORE.RESTR>
0.808244

>  <SCORE.RESTR.CAVITY>
0.808244

>  <SCORE.RESTR.norm>
0.0260724

>  <SCORE.SYSTEM>
0

>  <SCORE.SYSTEM.CONST>
0

>  <SCORE.SYSTEM.DIHEDRAL>
0

>  <SCORE.SYSTEM.SOLV>
0

>  <SCORE.SYSTEM.norm>
0

>  <SCORE.heavy>
31

>  <SCORE.norm>
-1.41478

>  <RMSD>
7.135

$$$$
lig.pdb
 OpenBabel11021811453D
libRbt.so/2013.1/901 2013/11/27
 31 33  0  0  0  0  0  0  0  0999 V2000
   -0.1632    0.2655   -0.3515 O   0  0  0  0  0  0  0  0  0  0  0  0
    0.7363    0.3520    0.7364 C   0  0  0  0  0  0  0  0  0  0  0  0
    1.0932    1.8103    1.0547 C   0  0  1  0  0  0  0  0  0  0  0  0
   -0.0270    2.5340    1.5388 O   0  0  0  0  0  0  0  0  0  0  0  0
    0.4168    3.6111    2.3583 C   0  0  1  0  0  0  0  0  0  0  0  0
   -0.3266    3.6329    3.5711 O   0  0  0  0  0  0  0  0  0  0  0  0
   -1.7250    3.8490    3.4691 C   0  0  2  0  0  0  0  0  0  0  0  0
   -1.9718    5.3635    3.5564 C   0  0  1  0  0  0  0  0  0  0  0  0
   -1.4828    5.9959    2.3841 O   0  0  0  0  0  0  0  0  0  0  0  0
   -3.4517    5.7497    3.7005 C   0  0  2  0  0  0  0  0  0  0  0  0
   -3.6039    7.2024    3.8755 N   0  0  0  0  0  0  0  0  0  0  0  0
   -4.0570    5.0282    4.8989 C   0  0  0  0  0  0  0  0  0  0  0  0
   -3.8649    3.5246    4.7433 C   0  0  2  0  0  0  0  0  0  0  0  0
   -4.5036    2.8540    5.8808 N   0  0  0  0  0  0  0  0  0  0  0  0
   -2.3626    3.1820    4.6456 C   0  0  1  0  0  0  0  0  0  0  0  0
   -2.3025    1.7530    4.5197 O   0  0  0  0  0  0  0  0  0  0  0  0
   -1.0143    1.1498    4.5771 C   0  0  1  0  0  0  0  0  0  0  0  0
   -0.5927    0.9911    5.9290 O   0  0  0  0  0  0  0  0  0  0  0  0
   -1.3086    0.0320    6.7042 C   0  0  2  0  0  0  0  0  0  0  0  0
   -0.7189   -0.0026    8.1204 C   0  0  0  0  0  0  0  0  0  0  0  0
    0.7349   -0.0775    8.0964 N   0  0  0  0  0  0  0  0  0  0  0  0
   -1.2170   -1.3667    6.0664 C   0  0  1  0  0  0  0  0  0  0  0  0
   -1.9831   -2.2886    6.8212 O   0  0  0  0  0  0  0  0  0  0  0  0
   -1.7559   -1.2911    4.6324 C   0  0  2  0  0  0  0  0  0  0  0  0
   -1.6041   -2.5424    3.9888 O   0  0  0  0  0  0  0  0  0  0  0  0
   -1.0336   -0.1937    3.8392 C   0  0  1  0  0  0  0  0  0  0  0  0
   -1.6448   -0.0455    2.5107 N   0  0  0  0  0  0  0  0  0  0  0  0
    1.8983    3.3524    2.6687 C   0  0  2  0  0  0  0  0  0  0  0  0
    2.7047    4.2841    1.9721 O   0  0  0  0  0  0  0  0  0  0  0  0
    2.0981    1.9127    2.1978 C   0  0  2  0  0  0  0  0  0  0  0  0
    3.4272    1.6187    1.8155 O   0  0  0  0  0  0  0  0  0  0  0  0
  2  1  1  0  0  0  0
  3  2  1  1  0  0  0
  3 30  1  0  0  0  0
  4  5  1  0  0  0  0
  4  3  1  0  0  0  0
  5 28  1  0  0  0  0
  5  6  1  1  0  0  0
  7  6  1  1  0  0  0
  8  7  1  0  0  0  0
  8  9  1  6  0  0  0
 10 11  1  1  0  0  0
 10  8  1  0  0  0  0
 12 10  1  0  0  0  0
 13 12  1  0  0  0  0
 13 15  1  0  0  0  0
 13 14  1  1  0  0  0
 15  7  1  0  0  0  0
 15 16  1  6  0  0  0
 17 16  1  1  0  0  0
 18 17  1  0  0  0  0
 19 20  1  1  0  0  0
 19 18  1  0  0  0  0
 20 21  1  0  0  0  0
 22 24  1  0  0  0  0
 22 19  1  0  0  0  0
 22 23  1  1  0  0  0
 24 25  1  6  0  0  0
 24 26  1  0  0  0  0
 26 17  1  0  0  0  0
 26 27  1  6  0  0  0
 28 29  1  6  0  0  0
 28 30  1  0  0  0  0
 30 31  1  6  0  0  0
M  END
>  <CHROM.1>
70.78742576,66.50249118,-62.37982636,-90.58308926,93.45917642,-161.12240529
64.20946129,66.75487863,81.64438086,-47.36097329,-95.01510280,61.19343690
60.36860038,165.24770235,-56.00996170,-58.99862962,-0.94565878,1.98677836
3.87132812,-1.59792543,-0.75106834,2.64446560

>  <Name>
lig.pdb

>  <RI>
3.32461e+07

>  <Rbt.Current_Directory>
/home/itssahil/PROJECTS/Mol_Feturizer/New_Systems/rnas/2n0j

>  <Rbt.Executable>
rbdock ($Id: //depot/dev/client3/rdock/2013.1/src/exe/rbdock.cxx#4 $)

>  <Rbt.Library>
libRbt.so (2013.1, Build901 2013/11/27)

>  <Rbt.Parameter_File>
/export/apps/rDock/src/rDock_2013.1_src/data/scripts/dock_solv.prm

>  <Rbt.Receptor>
prm/pocket_docking_7.prm

>  <SCORE>
-39.5628

>  <SCORE.INTER>
-36.023

>  <SCORE.INTER.CONST>
1

>  <SCORE.INTER.POLAR>
-5.55318

>  <SCORE.INTER.ROT>
6

>  <SCORE.INTER.SOLV>
18.1309

>  <SCORE.INTER.VDW>
-19.1484

>  <SCORE.INTER.norm>
-1.16203

>  <SCORE.INTRA>
-3.53974

>  <SCORE.INTRA.DIHEDRAL>
-12.4285

>  <SCORE.INTRA.DIHEDRAL.0>
28.0161

>  <SCORE.INTRA.POLAR>
0.0560854

>  <SCORE.INTRA.POLAR.0>
-1.05798

>  <SCORE.INTRA.REPUL>
0

>  <SCORE.INTRA.REPUL.0>
0

>  <SCORE.INTRA.SOLV>
0.591199

>  <SCORE.INTRA.SOLV.lig_0>
-42.5945

>  <SCORE.INTRA.VDW>
2.18822

>  <SCORE.INTRA.VDW.0>
-5.13869

>  <SCORE.INTRA.norm>
-0.114185

>  <SCORE.RESTR>
0

>  <SCORE.RESTR.CAVITY>
0

>  <SCORE.RESTR.norm>
0

>  <SCORE.SYSTEM>
0

>  <SCORE.SYSTEM.CONST>
0

>  <SCORE.SYSTEM.DIHEDRAL>
0

>  <SCORE.SYSTEM.SOLV>
0

>  <SCORE.SYSTEM.norm>
0

>  <SCORE.heavy>
31

>  <SCORE.norm>
-1.27622

>  <RMSD>
7.144

$$$$
lig.pdb
 OpenBabel11021811453D
libRbt.so/2013.1/901 2013/11/27
 31 33  0  0  0  0  0  0  0  0999 V2000
    4.5351    4.2100    0.3279 O   0  0  0  0  0  0  0  0  0  0  0  0
    4.4957    5.5323    0.8280 C   0  0  0  0  0  0  0  0  0  0  0  0
    3.0782    6.1163    0.7591 C   0  0  1  0  0  0  0  0  0  0  0  0
    2.0891    5.1322    1.0165 O   0  0  0  0  0  0  0  0  0  0  0  0
    0.9169    5.7554    1.5326 C   0  0  1  0  0  0  0  0  0  0  0  0
    0.4639    5.0530    2.6839 O   0  0  0  0  0  0  0  0  0  0  0  0
   -0.9385    4.9737    2.8834 C   0  0  2  0  0  0  0  0  0  0  0  0
   -1.4093    6.3278    3.4376 C   0  0  1  0  0  0  0  0  0  0  0  0
   -1.3039    7.3200    2.4288 O   0  0  0  0  0  0  0  0  0  0  0  0
   -2.8640    6.3309    3.9315 C   0  0  2  0  0  0  0  0  0  0  0  0
   -3.2141    7.6259    4.5351 N   0  0  0  0  0  0  0  0  0  0  0  0
   -3.0604    5.2225    4.9591 C   0  0  0  0  0  0  0  0  0  0  0  0
   -2.6591    3.8835    4.3526 C   0  0  2  0  0  0  0  0  0  0  0  0
   -2.9096    2.8307    5.3429 N   0  0  0  0  0  0  0  0  0  0  0  0
   -1.1799    3.9151    3.9113 C   0  0  1  0  0  0  0  0  0  0  0  0
   -0.9113    2.6101    3.3762 O   0  0  0  0  0  0  0  0  0  0  0  0
    0.3729    2.0535    3.6362 C   0  0  1  0  0  0  0  0  0  0  0  0
    0.3036    1.0999    4.6929 O   0  0  0  0  0  0  0  0  0  0  0  0
   -0.3955   -0.1093    4.4059 C   0  0  2  0  0  0  0  0  0  0  0  0
   -0.3656   -1.0078    5.6495 C   0  0  0  0  0  0  0  0  0  0  0  0
    0.9723   -1.0975    6.2168 N   0  0  0  0  0  0  0  0  0  0  0  0
    0.2473   -0.8446    3.2152 C   0  0  1  0  0  0  0  0  0  0  0  0
   -0.4984   -2.0103    2.9128 O   0  0  0  0  0  0  0  0  0  0  0  0
    0.2601    0.0958    2.0036 C   0  0  2  0  0  0  0  0  0  0  0  0
    0.9245   -0.5203    0.9163 O   0  0  0  0  0  0  0  0  0  0  0  0
    0.9386    1.4261    2.3571 C   0  0  1  0  0  0  0  0  0  0  0  0
    0.8310    2.3632    1.2298 N   0  0  0  0  0  0  0  0  0  0  0  0
    1.3107    7.1865    1.9262 C   0  0  2  0  0  0  0  0  0  0  0  0
    0.7299    8.1097    1.0240 O   0  0  0  0  0  0  0  0  0  0  0  0
    2.8365    7.1516    1.8529 C   0  0  2  0  0  0  0  0  0  0  0  0
    3.4218    8.4104    1.5846 O   0  0  0  0  0  0  0  0  0  0  0  0
  2  1  1  0  0  0  0
  3  2  1  1  0  0  0
  3 30  1  0  0  0  0
  4  5  1  0  0  0  0
  4  3  1  0  0  0  0
  5 28  1  0  0  0  0
  5  6  1  1  0  0  0
  7  6  1  1  0  0  0
  8  7  1  0  0  0  0
  8  9  1  6  0  0  0
 10 11  1  1  0  0  0
 10  8  1  0  0  0  0
 12 10  1  0  0  0  0
 13 12  1  0  0  0  0
 13 15  1  0  0  0  0
 13 14  1  1  0  0  0
 15  7  1  0  0  0  0
 15 16  1  6  0  0  0
 17 16  1  6  0  0  0
 18 17  1  0  0  0  0
 19 20  1  1  0  0  0
 19 18  1  0  0  0  0
 20 21  1  0  0  0  0
 22 24  1  0  0  0  0
 22 19  1  0  0  0  0
 22 23  1  6  0  0  0
 24 25  1  6  0  0  0
 24 26  1  0  0  0  0
 26 17  1  0  0  0  0
 26 27  1  6  0  0  0
 28 29  1  6  0  0  0
 28 30  1  0  0  0  0
 30 31  1  6  0  0  0
M  END
>  <CHROM.1>
-75.28200514,35.79169352,-144.94164182,-77.43609948,65.28191910,58.24605031
-57.48810003,96.48001397,101.19851754,-47.27402448,-66.56124139,-77.47073378
55.14197885,169.82265475,177.65327330,-173.17142978,0.24302426,3.70547746
2.89154750,-1.35495025,-0.57268868,2.97742145

>  <Name>
lig.pdb

>  <RI>
0

>  <Rbt.Current_Directory>
/home/itssahil/PROJECTS/Mol_Feturizer/New_Systems/rnas/2n0j

>  <Rbt.Executable>
rbdock ($Id: //depot/dev/client3/rdock/2013.1/src/exe/rbdock.cxx#4 $)

>  <Rbt.Library>
libRbt.so (2013.1, Build901 2013/11/27)

>  <Rbt.Parameter_File>
/export/apps/rDock/src/rDock_2013.1_src/data/scripts/dock_solv.prm

>  <Rbt.Receptor>
prm/pocket_docking_8.prm

>  <SCORE>
-44.7639

>  <SCORE.INTER>
-43.1938

>  <SCORE.INTER.CONST>
1

>  <SCORE.INTER.POLAR>
-4.93111

>  <SCORE.INTER.ROT>
6

>  <SCORE.INTER.SOLV>
16.8097

>  <SCORE.INTER.VDW>
-25.5621

>  <SCORE.INTER.norm>
-1.39335

>  <SCORE.INTRA>
-1.57012

>  <SCORE.INTRA.DIHEDRAL>
-5.64165

>  <SCORE.INTRA.DIHEDRAL.0>
28.0161

>  <SCORE.INTRA.POLAR>
-0.231872

>  <SCORE.INTRA.POLAR.0>
-1.05798

>  <SCORE.INTRA.REPUL>
0

>  <SCORE.INTRA.REPUL.0>
0

>  <SCORE.INTRA.SOLV>
1.41806

>  <SCORE.INTRA.SOLV.lig_0>
-42.5945

>  <SCORE.INTRA.VDW>
1.33004

>  <SCORE.INTRA.VDW.0>
-5.13869

>  <SCORE.INTRA.norm>
-0.0506492

>  <SCORE.RESTR>
0

>  <SCORE.RESTR.CAVITY>
0

>  <SCORE.RESTR.norm>
0

>  <SCORE.SYSTEM>
0

>  <SCORE.SYSTEM.CONST>
0

>  <SCORE.SYSTEM.DIHEDRAL>
0

>  <SCORE.SYSTEM.SOLV>
0

>  <SCORE.SYSTEM.norm>
0

>  <SCORE.heavy>
31

>  <SCORE.norm>
-1.444

>  <RMSD>
7.147

$$$$
lig.pdb
 OpenBabel11021811453D
libRbt.so/2013.1/901 2013/11/27
 31 33  0  0  0  0  0  0  0  0999 V2000
   -0.1173   -0.4963   -0.6604 O   0  0  0  0  0  0  0  0  0  0  0  0
   -0.2542    0.8301   -0.1892 C   0  0  0  0  0  0  0  0  0  0  0  0
    1.0190    1.3068    0.5228 C   0  0  1  0  0  0  0  0  0  0  0  0
    1.0405    2.7170    0.6772 O   0  0  0  0  0  0  0  0  0  0  0  0
    1.8463    3.0633    1.7996 C   0  0  1  0  0  0  0  0  0  0  0  0
    1.1576    4.0023    2.6168 O   0  0  0  0  0  0  0  0  0  0  0  0
    0.5180    5.0852    1.9601 C   0  0  2  0  0  0  0  0  0  0  0  0
    1.5506    6.2127    1.8032 C   0  0  1  0  0  0  0  0  0  0  0  0
    2.5381    5.8286    0.8594 O   0  0  0  0  0  0  0  0  0  0  0  0
    0.9549    7.5455    1.3247 C   0  0  2  0  0  0  0  0  0  0  0  0
    1.9799    8.6002    1.2907 N   0  0  0  0  0  0  0  0  0  0  0  0
   -0.1759    7.9668    2.2556 C   0  0  0  0  0  0  0  0  0  0  0  0
   -1.2207    6.8599    2.3276 C   0  0  2  0  0  0  0  0  0  0  0  0
   -2.3209    7.3139    3.1849 N   0  0  0  0  0  0  0  0  0  0  0  0
   -0.5854    5.5547    2.8533 C   0  0  1  0  0  0  0  0  0  0  0  0
   -1.6544    4.5971    2.8944 O   0  0  0  0  0  0  0  0  0  0  0  0
   -1.3977    3.3655    3.5606 C   0  0  1  0  0  0  0  0  0  0  0  0
   -1.4412    3.5395    4.9743 O   0  0  0  0  0  0  0  0  0  0  0  0
   -2.7217    3.8194    5.5359 C   0  0  2  0  0  0  0  0  0  0  0  0
   -2.5751    3.9723    7.0557 C   0  0  0  0  0  0  0  0  0  0  0  0
   -1.6892    5.0743    7.4029 N   0  0  0  0  0  0  0  0  0  0  0  0
   -3.7182    2.6889    5.2188 C   0  0  1  0  0  0  0  0  0  0  0  0
   -4.9955    3.0171    5.7360 O   0  0  0  0  0  0  0  0  0  0  0  0
   -3.8000    2.5161    3.6970 C   0  0  2  0  0  0  0  0  0  0  0  0
   -4.6422    1.4251    3.3756 O   0  0  0  0  0  0  0  0  0  0  0  0
   -2.4024    2.3035    3.0998 C   0  0  1  0  0  0  0  0  0  0  0  0
   -2.4804    2.2671    1.6325 N   0  0  0  0  0  0  0  0  0  0  0  0
    2.0840    1.7698    2.5923 C   0  0  2  0  0  0  0  0  0  0  0  0
    3.4326    1.3628    2.4541 O   0  0  0  0  0  0  0  0  0  0  0  0
    1.0929    0.7953    1.9579 C   0  0  2  0  0  0  0  0  0  0  0  0
    1.4835   -0.5598    2.0599 O   0  0  0  0  0  0  0  0  0  0  0  0
  2  1  1  0  0  0  0
  3  2  1  1  0  0  0
  3 30  1  0  0  0  0
  4  5  1  0  0  0  0
  4  3  1  0  0  0  0
  5 28  1  0  0  0  0
  5  6  1  1  0  0  0
  7  6  1  1  0  0  0
  8  7  1  0  0  0  0
  8  9  1  6  0  0  0
 10 11  1  1  0  0  0
 10  8  1  0  0  0  0
 12 10  1  0  0  0  0
 13 12  1  0  0  0  0
 13 15  1  0  0  0  0
 13 14  1  1  0  0  0
 15  7  1  0  0  0  0
 15 16  1  6  0  0  0
 17 16  1  6  0  0  0
 18 17  1  0  0  0  0
 19 20  1  1  0  0  0
 19 18  1  0  0  0  0
 20 21  1  0  0  0  0
 22 24  1  0  0  0  0
 22 19  1  0  0  0  0
 22 23  1  6  0  0  0
 24 25  1  1  0  0  0
 24 26  1  0  0  0  0
 26 17  1  0  0  0  0
 26 27  1  6  0  0  0
 28 29  1  6  0  0  0
 28 30  1  0  0  0  0
 30 31  1  6  0  0  0
M  END
>  <CHROM.1>
-69.62160646,164.11426355,-45.28870976,-87.39841234,63.59506025,-171.68356595
-128.59964007,69.72287183,76.71208943,61.18994228,179.71264154,64.58163714
-179.45414786,44.83671341,-69.74208000,-172.65327544,-0.56775181,3.67075778
2.76236035,0.28753207,-0.65845525,-2.94703831

>  <Name>
lig.pdb

>  <RI>
3.50357e+07

>  <Rbt.Current_Directory>
/home/itssahil/PROJECTS/Mol_Feturizer/New_Systems/rnas/2n0j

>  <Rbt.Executable>
rbdock ($Id: //depot/dev/client3/rdock/2013.1/src/exe/rbdock.cxx#4 $)

>  <Rbt.Library>
libRbt.so (2013.1, Build901 2013/11/27)

>  <Rbt.Parameter_File>
/export/apps/rDock/src/rDock_2013.1_src/data/scripts/dock_solv.prm

>  <Rbt.Receptor>
prm/pocket_docking_3.prm

>  <SCORE>
-43.8224

>  <SCORE.INTER>
-42.2277

>  <SCORE.INTER.CONST>
1

>  <SCORE.INTER.POLAR>
-4.74991

>  <SCORE.INTER.ROT>
6

>  <SCORE.INTER.SOLV>
16.2809

>  <SCORE.INTER.VDW>
-25.3457

>  <SCORE.INTER.norm>
-1.36218

>  <SCORE.INTRA>
-1.59488

>  <SCORE.INTRA.DIHEDRAL>
-15.4924

>  <SCORE.INTRA.DIHEDRAL.0>
28.0161

>  <SCORE.INTRA.POLAR>
1.04883

>  <SCORE.INTRA.POLAR.0>
-1.05798

>  <SCORE.INTRA.REPUL>
0

>  <SCORE.INTRA.REPUL.0>
0

>  <SCORE.INTRA.SOLV>
-0.156392

>  <SCORE.INTRA.SOLV.lig_0>
-42.5945

>  <SCORE.INTRA.VDW>
2.6635

>  <SCORE.INTRA.VDW.0>
-5.13869

>  <SCORE.INTRA.norm>
-0.0514477

>  <SCORE.RESTR>
0.000157358

>  <SCORE.RESTR.CAVITY>
0.000157358

>  <SCORE.RESTR.norm>
5.07608e-06

>  <SCORE.SYSTEM>
0

>  <SCORE.SYSTEM.CONST>
0

>  <SCORE.SYSTEM.DIHEDRAL>
0

>  <SCORE.SYSTEM.SOLV>
0

>  <SCORE.SYSTEM.norm>
0

>  <SCORE.heavy>
31

>  <SCORE.norm>
-1.41363

>  <RMSD>
7.153

$$$$
lig.pdb
 OpenBabel11021811453D
libRbt.so/2013.1/901 2013/11/27
 31 33  0  0  0  0  0  0  0  0999 V2000
    2.9546    7.1345    2.5036 O   0  0  0  0  0  0  0  0  0  0  0  0
    3.1682    6.0091    1.6742 C   0  0  0  0  0  0  0  0  0  0  0  0
    2.8206    4.7027    2.4005 C   0  0  1  0  0  0  0  0  0  0  0  0
    1.4521    4.6535    2.7716 O   0  0  0  0  0  0  0  0  0  0  0  0
    1.0311    3.2962    2.8687 C   0  0  1  0  0  0  0  0  0  0  0  0
   -0.1995    3.1219    2.1763 O   0  0  0  0  0  0  0  0  0  0  0  0
   -1.3671    3.6441    2.7902 C   0  0  2  0  0  0  0  0  0  0  0  0
   -1.2191    5.1726    2.8521 C   0  0  1  0  0  0  0  0  0  0  0  0
   -1.2989    5.7140    1.5429 O   0  0  0  0  0  0  0  0  0  0  0  0
   -2.2911    5.8718    3.7019 C   0  0  2  0  0  0  0  0  0  0  0  0
   -2.0314    7.3168    3.7955 N   0  0  0  0  0  0  0  0  0  0  0  0
   -2.3119    5.2685    5.1014 C   0  0  0  0  0  0  0  0  0  0  0  0
   -2.5387    3.7645    5.0084 C   0  0  2  0  0  0  0  0  0  0  0  0
   -2.6087    3.2198    6.3686 N   0  0  0  0  0  0  0  0  0  0  0  0
   -1.4151    3.1016    4.1827 C   0  0  1  0  0  0  0  0  0  0  0  0
   -1.7204    1.6987    4.1762 O   0  0  0  0  0  0  0  0  0  0  0  0
   -0.6790    0.8058    4.5566 C   0  0  1  0  0  0  0  0  0  0  0  0
   -0.8763    0.3409    5.8891 O   0  0  0  0  0  0  0  0  0  0  0  0
   -1.9861   -0.5307    6.0948 C   0  0  2  0  0  0  0  0  0  0  0  0
   -2.0391   -0.9265    7.5764 C   0  0  0  0  0  0  0  0  0  0  0  0
   -1.2453   -2.1173    7.8442 N   0  0  0  0  0  0  0  0  0  0  0  0
   -1.8609   -1.7929    5.2215 C   0  0  1  0  0  0  0  0  0  0  0  0
   -3.0016   -2.6136    5.3994 O   0  0  0  0  0  0  0  0  0  0  0  0
   -1.7484   -1.3669    3.7523 C   0  0  2  0  0  0  0  0  0  0  0  0
   -1.5439   -2.5011    2.9310 O   0  0  0  0  0  0  0  0  0  0  0  0
   -0.6042   -0.3614    3.5657 C   0  0  1  0  0  0  0  0  0  0  0  0
   -0.5885    0.1347    2.1822 N   0  0  0  0  0  0  0  0  0  0  0  0
    2.1206    2.4439    2.2019 C   0  0  2  0  0  0  0  0  0  0  0  0
    2.8276    1.7125    3.1861 O   0  0  0  0  0  0  0  0  0  0  0  0
    2.9821    3.4875    1.4927 C   0  0  2  0  0  0  0  0  0  0  0  0
    4.3260    3.0873    1.3111 O   0  0  0  0  0  0  0  0  0  0  0  0
  2  1  1  0  0  0  0
  3  2  1  6  0  0  0
  3 30  1  0  0  0  0
  4  5  1  0  0  0  0
  4  3  1  0  0  0  0
  5 28  1  0  0  0  0
  5  6  1  6  0  0  0
  7  6  1  6  0  0  0
  8  7  1  0  0  0  0
  8  9  1  6  0  0  0
 10 11  1  1  0  0  0
 10  8  1  0  0  0  0
 12 10  1  0  0  0  0
 13 12  1  0  0  0  0
 13 15  1  0  0  0  0
 13 14  1  1  0  0  0
 15  7  1  0  0  0  0
 15 16  1  6  0  0  0
 17 16  1  6  0  0  0
 18 17  1  0  0  0  0
 19 20  1  1  0  0  0
 19 18  1  0  0  0  0
 20 21  1  0  0  0  0
 22 24  1  0  0  0  0
 22 19  1  0  0  0  0
 22 23  1  6  0  0  0
 24 25  1  6  0  0  0
 24 26  1  0  0  0  0
 26 17  1  0  0  0  0
 26 27  1  6  0  0  0
 28 29  1  1  0  0  0
 28 30  1  0  0  0  0
 30 31  1  1  0  0  0
M  END
>  <CHROM.1>
-61.49292343,61.86444203,-73.85745909,64.60950561,84.14251472,-50.96558156
66.61303497,110.41854714,102.69415082,-88.84630402,23.40470336,172.23340686
-53.05930125,-85.74099312,-173.92935339,-55.84070808,-0.35528691,2.35579951
3.77632771,-1.07869555,-0.55398387,2.97055497

>  <Name>
lig.pdb

>  <RI>
3.33129e+07

>  <Rbt.Current_Directory>
/home/itssahil/PROJECTS/Mol_Feturizer/New_Systems/rnas/2n0j

>  <Rbt.Executable>
rbdock ($Id: //depot/dev/client3/rdock/2013.1/src/exe/rbdock.cxx#4 $)

>  <Rbt.Library>
libRbt.so (2013.1, Build901 2013/11/27)

>  <Rbt.Parameter_File>
/export/apps/rDock/src/rDock_2013.1_src/data/scripts/dock_solv.prm

>  <Rbt.Receptor>
prm/pocket_docking_4.prm

>  <SCORE>
-34.1706

>  <SCORE.INTER>
-37.5769

>  <SCORE.INTER.CONST>
1

>  <SCORE.INTER.POLAR>
-4.07664

>  <SCORE.INTER.ROT>
6

>  <SCORE.INTER.SOLV>
18.725

>  <SCORE.INTER.VDW>
-25.3041

>  <SCORE.INTER.norm>
-1.21216

>  <SCORE.INTRA>
2.67984

>  <SCORE.INTRA.DIHEDRAL>
-4.20586

>  <SCORE.INTRA.DIHEDRAL.0>
28.0161

>  <SCORE.INTRA.POLAR>
0.13876

>  <SCORE.INTRA.POLAR.0>
-1.05798

>  <SCORE.INTRA.REPUL>
0

>  <SCORE.INTRA.REPUL.0>
0

>  <SCORE.INTRA.SOLV>
1.04039

>  <SCORE.INTRA.SOLV.lig_0>
-42.5945

>  <SCORE.INTRA.VDW>
3.79079

>  <SCORE.INTRA.VDW.0>
-5.13869

>  <SCORE.INTRA.norm>
0.0864464

>  <SCORE.RESTR>
0.726464

>  <SCORE.RESTR.CAVITY>
0.726464

>  <SCORE.RESTR.norm>
0.0234343

>  <SCORE.SYSTEM>
0

>  <SCORE.SYSTEM.CONST>
0

>  <SCORE.SYSTEM.DIHEDRAL>
0

>  <SCORE.SYSTEM.SOLV>
0

>  <SCORE.SYSTEM.norm>
0

>  <SCORE.heavy>
31

>  <SCORE.norm>
-1.10228

>  <RMSD>
7.156

$$$$
lig.pdb
 OpenBabel11021811453D
libRbt.so/2013.1/901 2013/11/27
 31 33  0  0  0  0  0  0  0  0999 V2000
   -0.3525   -0.8035    2.1597 O   0  0  0  0  0  0  0  0  0  0  0  0
    0.7583   -0.4862    2.9756 C   0  0  0  0  0  0  0  0  0  0  0  0
    1.7530    0.4223    2.2404 C   0  0  1  0  0  0  0  0  0  0  0  0
    1.1738    1.6718    1.8995 O   0  0  0  0  0  0  0  0  0  0  0  0
    2.1945    2.6596    1.7944 C   0  0  1  0  0  0  0  0  0  0  0  0
    1.8121    3.8270    2.5119 O   0  0  0  0  0  0  0  0  0  0  0  0
    1.1422    4.8438    1.7837 C   0  0  2  0  0  0  0  0  0  0  0  0
    2.1673    5.9440    1.4658 C   0  0  1  0  0  0  0  0  0  0  0  0
    3.1065    5.4627    0.5173 O   0  0  0  0  0  0  0  0  0  0  0  0
    1.5504    7.2268    0.8878 C   0  0  2  0  0  0  0  0  0  0  0  0
    2.5738    8.2667    0.6997 N   0  0  0  0  0  0  0  0  0  0  0  0
    0.4674    7.7448    1.8269 C   0  0  0  0  0  0  0  0  0  0  0  0
   -0.5739    6.6568    2.0589 C   0  0  2  0  0  0  0  0  0  0  0  0
   -1.6299    7.1999    2.9200 N   0  0  0  0  0  0  0  0  0  0  0  0
    0.0849    5.4058    2.6791 C   0  0  1  0  0  0  0  0  0  0  0  0
   -0.9821    4.4636    2.8669 O   0  0  0  0  0  0  0  0  0  0  0  0
   -0.9517    3.6759    4.0523 C   0  0  1  0  0  0  0  0  0  0  0  0
   -1.3287    4.4553    5.1842 O   0  0  0  0  0  0  0  0  0  0  0  0
   -2.6930    4.8667    5.2401 C   0  0  2  0  0  0  0  0  0  0  0  0
   -2.9126    5.6873    6.5179 C   0  0  0  0  0  0  0  0  0  0  0  0
   -3.3418    7.0459    6.2182 N   0  0  0  0  0  0  0  0  0  0  0  0
   -3.6337    3.6474    5.2346 C   0  0  1  0  0  0  0  0  0  0  0  0
   -4.9818    4.0825    5.2314 O   0  0  0  0  0  0  0  0  0  0  0  0
   -3.3517    2.8126    3.9792 C   0  0  2  0  0  0  0  0  0  0  0  0
   -4.1401    1.6373    3.9890 O   0  0  0  0  0  0  0  0  0  0  0  0
   -1.8623    2.4536    3.8904 C   0  0  1  0  0  0  0  0  0  0  0  0
   -1.5835    1.7651    2.6220 N   0  0  0  0  0  0  0  0  0  0  0  0
    3.4598    2.0605    2.4256 C   0  0  2  0  0  0  0  0  0  0  0  0
    4.4095    1.7722    1.4164 O   0  0  0  0  0  0  0  0  0  0  0  0
    2.9304    0.8116    3.1287 C   0  0  2  0  0  0  0  0  0  0  0  0
    3.8958   -0.2110    3.2749 O   0  0  0  0  0  0  0  0  0  0  0  0
  2  1  1  0  0  0  0
  3  2  1  1  0  0  0
  3 30  1  0  0  0  0
  4  5  1  0  0  0  0
  4  3  1  0  0  0  0
  5 28  1  0  0  0  0
  5  6  1  1  0  0  0
  7  6  1  1  0  0  0
  8  7  1  0  0  0  0
  8  9  1  6  0  0  0
 10 11  1  1  0  0  0
 10  8  1  0  0  0  0
 12 10  1  0  0  0  0
 13 12  1  0  0  0  0
 13 15  1  0  0  0  0
 13 14  1  1  0  0  0
 15  7  1  0  0  0  0
 15 16  1  6  0  0  0
 17 16  1  6  0  0  0
 18 17  1  0  0  0  0
 19 20  1  1  0  0  0
 19 18  1  0  0  0  0
 20 21  1  0  0  0  0
 22 24  1  0  0  0  0
 22 19  1  0  0  0  0
 22 23  1  6  0  0  0
 24 25  1  1  0  0  0
 24 26  1  0  0  0  0
 26 17  1  0  0  0  0
 26 27  1  6  0  0  0
 28 29  1  6  0  0  0
 28 30  1  0  0  0  0
 30 31  1  6  0  0  0
M  END
>  <CHROM.1>
58.31631754,62.60351719,-92.86176437,-101.22240805,-72.89042175,-171.48680203
-166.59209353,97.79228050,74.71777782,118.79161584,-37.24874386,37.26691467
-58.72204934,25.48149418,75.99392817,162.50027291,-0.03642938,3.76692269
3.01801911,0.34880750,-0.49579398,3.02838854

>  <Name>
lig.pdb

>  <RI>
3.33129e+07

>  <Rbt.Current_Directory>
/home/itssahil/PROJECTS/Mol_Feturizer/New_Systems/rnas/2n0j

>  <Rbt.Executable>
rbdock ($Id: //depot/dev/client3/rdock/2013.1/src/exe/rbdock.cxx#4 $)

>  <Rbt.Library>
libRbt.so (2013.1, Build901 2013/11/27)

>  <Rbt.Parameter_File>
/export/apps/rDock/src/rDock_2013.1_src/data/scripts/dock_solv.prm

>  <Rbt.Receptor>
prm/pocket_docking_4.prm

>  <SCORE>
-41.9272

>  <SCORE.INTER>
-42.2796

>  <SCORE.INTER.CONST>
1

>  <SCORE.INTER.POLAR>
-4.44346

>  <SCORE.INTER.ROT>
6

>  <SCORE.INTER.SOLV>
17.9497

>  <SCORE.INTER.VDW>
-26.9581

>  <SCORE.INTER.norm>
-1.36386

>  <SCORE.INTRA>
0.352353

>  <SCORE.INTRA.DIHEDRAL>
2.9133

>  <SCORE.INTRA.DIHEDRAL.0>
28.0161

>  <SCORE.INTRA.POLAR>
-0.510358

>  <SCORE.INTRA.POLAR.0>
-1.05798

>  <SCORE.INTRA.REPUL>
0.0483814

>  <SCORE.INTRA.REPUL.0>
0

>  <SCORE.INTRA.SOLV>
1.27684

>  <SCORE.INTRA.SOLV.lig_0>
-42.5945

>  <SCORE.INTRA.VDW>
-0.249404

>  <SCORE.INTRA.VDW.0>
-5.13869

>  <SCORE.INTRA.norm>
0.0113662

>  <SCORE.RESTR>
0

>  <SCORE.RESTR.CAVITY>
0

>  <SCORE.RESTR.norm>
0

>  <SCORE.SYSTEM>
0

>  <SCORE.SYSTEM.CONST>
0

>  <SCORE.SYSTEM.DIHEDRAL>
0

>  <SCORE.SYSTEM.SOLV>
0

>  <SCORE.SYSTEM.norm>
0

>  <SCORE.heavy>
31

>  <SCORE.norm>
-1.35249

>  <RMSD>
7.159

$$$$
lig.pdb
 OpenBabel11021811453D
libRbt.so/2013.1/901 2013/11/27
 31 33  0  0  0  0  0  0  0  0999 V2000
    3.7005    1.9989    2.4661 O   0  0  0  0  0  0  0  0  0  0  0  0
    4.1958    3.1423    1.7972 C   0  0  0  0  0  0  0  0  0  0  0  0
    3.0633    4.1082    1.4234 C   0  0  1  0  0  0  0  0  0  0  0  0
    1.8086    3.4493    1.3563 O   0  0  0  0  0  0  0  0  0  0  0  0
    0.7636    4.3830    1.6112 C   0  0  1  0  0  0  0  0  0  0  0  0
   -0.1468    3.8411    2.5607 O   0  0  0  0  0  0  0  0  0  0  0  0
   -1.4726    4.3460    2.5473 C   0  0  2  0  0  0  0  0  0  0  0  0
   -1.5425    5.5033    3.5563 C   0  0  1  0  0  0  0  0  0  0  0  0
   -0.7946    6.6069    3.0704 O   0  0  0  0  0  0  0  0  0  0  0  0
   -2.9673    6.0046    3.8367 C   0  0  2  0  0  0  0  0  0  0  0  0
   -2.9664    7.0422    4.8795 N   0  0  0  0  0  0  0  0  0  0  0  0
   -3.8440    4.8397    4.2809 C   0  0  0  0  0  0  0  0  0  0  0  0
   -3.8152    3.7433    3.2230 C   0  0  2  0  0  0  0  0  0  0  0  0
   -4.7086    2.6612    3.6503 N   0  0  0  0  0  0  0  0  0  0  0  0
   -2.3708    3.2427    3.0071 C   0  0  1  0  0  0  0  0  0  0  0  0
   -2.4668    2.2115    2.0127 O   0  0  0  0  0  0  0  0  0  0  0  0
   -1.3812    1.2952    1.9206 C   0  0  1  0  0  0  0  0  0  0  0  0
   -1.2652    0.5304    3.1173 O   0  0  0  0  0  0  0  0  0  0  0  0
   -2.3101   -0.4064    3.3706 C   0  0  2  0  0  0  0  0  0  0  0  0
   -2.0173   -1.1328    4.6902 C   0  0  0  0  0  0  0  0  0  0  0  0
   -3.0543   -2.1025    5.0125 N   0  0  0  0  0  0  0  0  0  0  0  0
   -2.4185   -1.4294    2.2246 C   0  0  1  0  0  0  0  0  0  0  0  0
   -3.4992   -2.3116    2.4706 O   0  0  0  0  0  0  0  0  0  0  0  0
   -2.6501   -0.6744    0.9098 C   0  0  2  0  0  0  0  0  0  0  0  0
   -2.6668   -1.5818   -0.1762 O   0  0  0  0  0  0  0  0  0  0  0  0
   -1.5647    0.3897    0.6975 C   0  0  1  0  0  0  0  0  0  0  0  0
   -1.8687    1.1896   -0.4976 N   0  0  0  0  0  0  0  0  0  0  0  0
    1.4238    5.6414    2.1931 C   0  0  2  0  0  0  0  0  0  0  0  0
    1.3744    6.6916    1.2453 O   0  0  0  0  0  0  0  0  0  0  0  0
    2.8453    5.1704    2.4962 C   0  0  2  0  0  0  0  0  0  0  0  0
    3.8053    6.2082    2.4733 O   0  0  0  0  0  0  0  0  0  0  0  0
  2  1  1  0  0  0  0
  3  2  1  1  0  0  0
  3 30  1  0  0  0  0
  4  5  1  0  0  0  0
  4  3  1  0  0  0  0
  5 28  1  0  0  0  0
  5  6  1  1  0  0  0
  7  6  1  1  0  0  0
  8  7  1  0  0  0  0
  8  9  1  6  0  0  0
 10 11  1  1  0  0  0
 10  8  1  0  0  0  0
 12 10  1  0  0  0  0
 13 12  1  0  0  0  0
 13 15  1  0  0  0  0
 13 14  1  1  0  0  0
 15  7  1  0  0  0  0
 15 16  1  6  0  0  0
 17 16  1  1  0  0  0
 18 17  1  0  0  0  0
 19 20  1  1  0  0  0
 19 18  1  0  0  0  0
 20 21  1  0  0  0  0
 22 24  1  0  0  0  0
 22 19  1  0  0  0  0
 22 23  1  1  0  0  0
 24 25  1  6  0  0  0
 24 26  1  0  0  0  0
 26 17  1  0  0  0  0
 26 27  1  6  0  0  0
 28 29  1  6  0  0  0
 28 30  1  0  0  0  0
 30 31  1  6  0  0  0
M  END
>  <CHROM.1>
-175.99319644,-22.41718613,-155.61455478,-92.81314343,-165.74792280,-53.25447494
-57.84704732,78.48371597,64.17268944,179.68875743,102.48525542,64.28908275
61.64737295,-156.44174518,-56.29529357,-63.12400769,-0.93076446,2.71067467
2.49752559,-0.90725622,-0.32044200,-2.92161951

>  <Name>
lig.pdb

>  <RI>
3.50357e+07

>  <Rbt.Current_Directory>
/home/itssahil/PROJECTS/Mol_Feturizer/New_Systems/rnas/2n0j

>  <Rbt.Executable>
rbdock ($Id: //depot/dev/client3/rdock/2013.1/src/exe/rbdock.cxx#4 $)

>  <Rbt.Library>
libRbt.so (2013.1, Build901 2013/11/27)

>  <Rbt.Parameter_File>
/export/apps/rDock/src/rDock_2013.1_src/data/scripts/dock_solv.prm

>  <Rbt.Receptor>
prm/pocket_docking_3.prm

>  <SCORE>
-35.6698

>  <SCORE.INTER>
-37.4305

>  <SCORE.INTER.CONST>
1

>  <SCORE.INTER.POLAR>
-4.43049

>  <SCORE.INTER.ROT>
6

>  <SCORE.INTER.SOLV>
15.1129

>  <SCORE.INTER.VDW>
-22.823

>  <SCORE.INTER.norm>
-1.20744

>  <SCORE.INTRA>
1.76073

>  <SCORE.INTRA.DIHEDRAL>
-10.2491

>  <SCORE.INTRA.DIHEDRAL.0>
28.0161

>  <SCORE.INTRA.POLAR>
0.859605

>  <SCORE.INTRA.POLAR.0>
-1.05798

>  <SCORE.INTRA.REPUL>
0.00366586

>  <SCORE.INTRA.REPUL.0>
0

>  <SCORE.INTRA.SOLV>
1.09352

>  <SCORE.INTRA.SOLV.lig_0>
-42.5945

>  <SCORE.INTRA.VDW>
3.39751

>  <SCORE.INTRA.VDW.0>
-5.13869

>  <SCORE.INTRA.norm>
0.0567978

>  <SCORE.RESTR>
0

>  <SCORE.RESTR.CAVITY>
0

>  <SCORE.RESTR.norm>
0

>  <SCORE.SYSTEM>
0

>  <SCORE.SYSTEM.CONST>
0

>  <SCORE.SYSTEM.DIHEDRAL>
0

>  <SCORE.SYSTEM.SOLV>
0

>  <SCORE.SYSTEM.norm>
0

>  <SCORE.heavy>
31

>  <SCORE.norm>
-1.15064

>  <RMSD>
7.162

$$$$
lig.pdb
 OpenBabel11021811453D
libRbt.so/2013.1/901 2013/11/27
 31 33  0  0  0  0  0  0  0  0999 V2000
    0.5091   -0.1086    3.9764 O   0  0  0  0  0  0  0  0  0  0  0  0
    1.0674   -0.4511    2.7229 C   0  0  0  0  0  0  0  0  0  0  0  0
    1.7934    0.7422    2.0872 C   0  0  1  0  0  0  0  0  0  0  0  0
    0.9184    1.8379    1.8710 O   0  0  0  0  0  0  0  0  0  0  0  0
    1.6631    3.0521    1.8703 C   0  0  1  0  0  0  0  0  0  0  0  0
    1.0206    4.0128    2.6997 O   0  0  0  0  0  0  0  0  0  0  0  0
    0.3555    5.0856    2.0519 C   0  0  2  0  0  0  0  0  0  0  0  0
    1.4164    6.1283    1.6653 C   0  0  1  0  0  0  0  0  0  0  0  0
    2.2377    5.6131    0.6292 O   0  0  0  0  0  0  0  0  0  0  0  0
    0.8339    7.4597    1.1673 C   0  0  2  0  0  0  0  0  0  0  0  0
    1.9006    8.4392    0.9089 N   0  0  0  0  0  0  0  0  0  0  0  0
   -0.1289    8.0206    2.2073 C   0  0  0  0  0  0  0  0  0  0  0  0
   -1.2127    6.9932    2.5100 C   0  0  2  0  0  0  0  0  0  0  0  0
   -2.1538    7.5792    3.4705 N   0  0  0  0  0  0  0  0  0  0  0  0
   -0.5827    5.6899    3.0470 C   0  0  1  0  0  0  0  0  0  0  0  0
   -1.6866    4.8105    3.3106 O   0  0  0  0  0  0  0  0  0  0  0  0
   -1.5313    3.8733    4.3709 C   0  0  1  0  0  0  0  0  0  0  0  0
   -1.4270    4.5438    5.6240 O   0  0  0  0  0  0  0  0  0  0  0  0
   -2.6065    5.1954    6.0904 C   0  0  2  0  0  0  0  0  0  0  0  0
   -2.3078    5.8556    7.4430 C   0  0  0  0  0  0  0  0  0  0  0  0
   -1.4691    5.0106    8.2810 N   0  0  0  0  0  0  0  0  0  0  0  0
   -3.7634    4.1906    6.2443 C   0  0  1  0  0  0  0  0  0  0  0  0
   -4.9374    4.8704    6.6516 O   0  0  0  0  0  0  0  0  0  0  0  0
   -4.0008    3.5016    4.8947 C   0  0  2  0  0  0  0  0  0  0  0  0
   -5.0006    2.5083    5.0246 O   0  0  0  0  0  0  0  0  0  0  0  0
   -2.7002    2.8816    4.3664 C   0  0  1  0  0  0  0  0  0  0  0  0
   -2.9117    2.3372    3.0175 N   0  0  0  0  0  0  0  0  0  0  0  0
    3.0493    2.7239    2.4435 C   0  0  2  0  0  0  0  0  0  0  0  0
    4.0199    2.7791    1.4147 O   0  0  0  0  0  0  0  0  0  0  0  0
    2.8572    1.3201    3.0152 C   0  0  2  0  0  0  0  0  0  0  0  0
    4.0468    0.5574    3.0622 O   0  0  0  0  0  0  0  0  0  0  0  0
  2  1  1  0  0  0  0
  3  2  1  1  0  0  0
  3 30  1  0  0  0  0
  4  5  1  0  0  0  0
  4  3  1  0  0  0  0
  5 28  1  0  0  0  0
  5  6  1  1  0  0  0
  7  6  1  1  0  0  0
  8  7  1  0  0  0  0
  8  9  1  6  0  0  0
 10 11  1  1  0  0  0
 10  8  1  0  0  0  0
 12 10  1  0  0  0  0
 13 12  1  0  0  0  0
 13 15  1  0  0  0  0
 13 14  1  1  0  0  0
 15  7  1  0  0  0  0
 15 16  1  6  0  0  0
 17 16  1  6  0  0  0
 18 17  1  0  0  0  0
 19 20  1  1  0  0  0
 19 18  1  0  0  0  0
 20 21  1  0  0  0  0
 22 24  1  0  0  0  0
 22 19  1  0  0  0  0
 22 23  1  6  0  0  0
 24 25  1  1  0  0  0
 24 26  1  0  0  0  0
 26 17  1  0  0  0  0
 26 27  1  6  0  0  0
 28 29  1  6  0  0  0
 28 30  1  0  0  0  0
 30 31  1  6  0  0  0
M  END
>  <CHROM.1>
-69.18644286,-60.04953118,-107.01801808,-80.55606838,59.79987132,-174.82581489
61.68179814,89.88100552,65.58947237,-40.01544466,-70.79677428,-63.68506130
-59.97764545,62.36661584,-58.14998092,-50.66180370,-0.34680675,4.07758989
3.50546751,0.12501862,-0.62705635,2.89383384

>  <Name>
lig.pdb

>  <RI>
0

>  <Rbt.Current_Directory>
/home/itssahil/PROJECTS/Mol_Feturizer/New_Systems/rnas/2n0j

>  <Rbt.Executable>
rbdock ($Id: //depot/dev/client3/rdock/2013.1/src/exe/rbdock.cxx#4 $)

>  <Rbt.Library>
libRbt.so (2013.1, Build901 2013/11/27)

>  <Rbt.Parameter_File>
/export/apps/rDock/src/rDock_2013.1_src/data/scripts/dock_solv.prm

>  <Rbt.Receptor>
prm/pocket_docking_8.prm

>  <SCORE>
-34.6248

>  <SCORE.INTER>
-32.7097

>  <SCORE.INTER.CONST>
1

>  <SCORE.INTER.POLAR>
-2.64348

>  <SCORE.INTER.ROT>
6

>  <SCORE.INTER.SOLV>
17.0594

>  <SCORE.INTER.VDW>
-26.2814

>  <SCORE.INTER.norm>
-1.05515

>  <SCORE.INTRA>
-1.91512

>  <SCORE.INTRA.DIHEDRAL>
-13.036

>  <SCORE.INTRA.DIHEDRAL.0>
28.0161

>  <SCORE.INTRA.POLAR>
0.980872

>  <SCORE.INTRA.POLAR.0>
-1.05798

>  <SCORE.INTRA.REPUL>
0

>  <SCORE.INTRA.REPUL.0>
0

>  <SCORE.INTRA.SOLV>
0.300497

>  <SCORE.INTRA.SOLV.lig_0>
-42.5945

>  <SCORE.INTRA.VDW>
1.11765

>  <SCORE.INTRA.VDW.0>
-5.13869

>  <SCORE.INTRA.norm>
-0.0617781

>  <SCORE.RESTR>
0

>  <SCORE.RESTR.CAVITY>
0

>  <SCORE.RESTR.norm>
0

>  <SCORE.SYSTEM>
0

>  <SCORE.SYSTEM.CONST>
0

>  <SCORE.SYSTEM.DIHEDRAL>
0

>  <SCORE.SYSTEM.SOLV>
0

>  <SCORE.SYSTEM.norm>
0

>  <SCORE.heavy>
31

>  <SCORE.norm>
-1.11693

>  <RMSD>
7.165

$$$$
lig.pdb
 OpenBabel11021811453D
libRbt.so/2013.1/901 2013/11/27
 31 33  0  0  0  0  0  0  0  0999 V2000
   -2.6826   -2.0353    0.1077 O   0  0  0  0  0  0  0  0  0  0  0  0
   -2.6011   -0.7054    0.5820 C   0  0  0  0  0  0  0  0  0  0  0  0
   -1.1546   -0.3166    0.9163 C   0  0  1  0  0  0  0  0  0  0  0  0
   -1.0348    1.0658    1.2120 O   0  0  0  0  0  0  0  0  0  0  0  0
    0.0873    1.2776    2.0634 C   0  0  1  0  0  0  0  0  0  0  0  0
   -0.2838    2.1154    3.1516 O   0  0  0  0  0  0  0  0  0  0  0  0
   -1.0769    3.2529    2.8515 C   0  0  2  0  0  0  0  0  0  0  0  0
   -0.1266    4.4402    2.6293 C   0  0  1  0  0  0  0  0  0  0  0  0
    0.5995    4.2525    1.4247 O   0  0  0  0  0  0  0  0  0  0  0  0
   -0.8353    5.7995    2.5287 C   0  0  2  0  0  0  0  0  0  0  0  0
    0.1388    6.8959    2.4144 N   0  0  0  0  0  0  0  0  0  0  0  0
   -1.7038    6.0189    3.7618 C   0  0  0  0  0  0  0  0  0  0  0  0
   -2.6872    4.8642    3.9089 C   0  0  2  0  0  0  0  0  0  0  0  0
   -3.5446    5.1286    5.0694 N   0  0  0  0  0  0  0  0  0  0  0  0
   -1.9286    3.5269    4.0494 C   0  0  1  0  0  0  0  0  0  0  0  0
   -2.9446    2.5232    4.1967 O   0  0  0  0  0  0  0  0  0  0  0  0
   -2.5821    1.3275    4.8790 C   0  0  1  0  0  0  0  0  0  0  0  0
   -2.0613    1.6240    6.1719 O   0  0  0  0  0  0  0  0  0  0  0  0
   -2.9914    2.1356    7.1240 C   0  0  2  0  0  0  0  0  0  0  0  0
   -2.2577    2.3923    8.4471 C   0  0  0  0  0  0  0  0  0  0  0  0
   -1.4223    3.5827    8.3773 N   0  0  0  0  0  0  0  0  0  0  0  0
   -4.1455    1.1417    7.3515 C   0  0  1  0  0  0  0  0  0  0  0  0
   -5.0846    1.6967    8.2551 O   0  0  0  0  0  0  0  0  0  0  0  0
   -4.8226    0.8557    6.0053 C   0  0  2  0  0  0  0  0  0  0  0  0
   -5.8326   -0.1224    6.1666 O   0  0  0  0  0  0  0  0  0  0  0  0
   -3.7916    0.3901    4.9682 C   0  0  1  0  0  0  0  0  0  0  0  0
   -4.4301    0.2427    3.6525 N   0  0  0  0  0  0  0  0  0  0  0  0
    0.5076   -0.1000    2.5961 C   0  0  2  0  0  0  0  0  0  0  0  0
    1.7336   -0.4895    2.0056 O   0  0  0  0  0  0  0  0  0  0  0  0
   -0.6652   -0.9926    2.1932 C   0  0  2  0  0  0  0  0  0  0  0  0
   -0.3125   -2.3507    2.0191 O   0  0  0  0  0  0  0  0  0  0  0  0
  2  1  1  0  0  0  0
  3  2  1  1  0  0  0
  3 30  1  0  0  0  0
  4  5  1  0  0  0  0
  4  3  1  0  0  0  0
  5 28  1  0  0  0  0
  5  6  1  1  0  0  0
  7  6  1  1  0  0  0
  8  7  1  0  0  0  0
  8  9  1  6  0  0  0
 10 11  1  1  0  0  0
 10  8  1  0  0  0  0
 12 10  1  0  0  0  0
 13 12  1  0  0  0  0
 13 15  1  0  0  0  0
 13 14  1  1  0  0  0
 15  7  1  0  0  0  0
 15 16  1  6  0  0  0
 17 16  1  1  0  0  0
 18 17  1  0  0  0  0
 19 20  1  1  0  0  0
 19 18  1  0  0  0  0
 20 21  1  0  0  0  0
 22 24  1  0  0  0  0
 22 19  1  0  0  0  0
 22 23  1  1  0  0  0
 24 25  1  1  0  0  0
 24 26  1  0  0  0  0
 26 17  1  0  0  0  0
 26 27  1  6  0  0  0
 28 29  1  6  0  0  0
 28 30  1  0  0  0  0
 30 31  1  6  0  0  0
M  END
>  <CHROM.1>
-178.28009407,171.73561788,-43.97783376,-92.99382710,61.46427976,159.86828287
-171.04627971,84.62257286,55.45875254,74.65015350,64.57605464,-66.88464339
-57.57817459,-174.87766152,-174.03593785,-174.44264638,-1.93931594,1.89799772
3.90896142,0.72777712,-0.91440061,-2.70645219

>  <Name>
lig.pdb

>  <RI>
3.50357e+07

>  <Rbt.Current_Directory>
/home/itssahil/PROJECTS/Mol_Feturizer/New_Systems/rnas/2n0j

>  <Rbt.Executable>
rbdock ($Id: //depot/dev/client3/rdock/2013.1/src/exe/rbdock.cxx#4 $)

>  <Rbt.Library>
libRbt.so (2013.1, Build901 2013/11/27)

>  <Rbt.Parameter_File>
/export/apps/rDock/src/rDock_2013.1_src/data/scripts/dock_solv.prm

>  <Rbt.Receptor>
prm/pocket_docking_3.prm

>  <SCORE>
-38.7741

>  <SCORE.INTER>
-34.2967

>  <SCORE.INTER.CONST>
1

>  <SCORE.INTER.POLAR>
-5.74926

>  <SCORE.INTER.ROT>
6

>  <SCORE.INTER.SOLV>
10.6813

>  <SCORE.INTER.VDW>
-14.8607

>  <SCORE.INTER.norm>
-1.10634

>  <SCORE.INTRA>
-4.61515

>  <SCORE.INTRA.DIHEDRAL>
-16.7959

>  <SCORE.INTRA.DIHEDRAL.0>
28.0161

>  <SCORE.INTRA.POLAR>
1.01597

>  <SCORE.INTRA.POLAR.0>
-1.05798

>  <SCORE.INTRA.REPUL>
0

>  <SCORE.INTRA.REPUL.0>
0

>  <SCORE.INTRA.SOLV>
-0.286173

>  <SCORE.INTRA.SOLV.lig_0>
-42.5945

>  <SCORE.INTRA.VDW>
0.471586

>  <SCORE.INTRA.VDW.0>
-5.13869

>  <SCORE.INTRA.norm>
-0.148876

>  <SCORE.RESTR>
0.137675

>  <SCORE.RESTR.CAVITY>
0.137675

>  <SCORE.RESTR.norm>
0.00444113

>  <SCORE.SYSTEM>
0

>  <SCORE.SYSTEM.CONST>
0

>  <SCORE.SYSTEM.DIHEDRAL>
0

>  <SCORE.SYSTEM.SOLV>
0

>  <SCORE.SYSTEM.norm>
0

>  <SCORE.heavy>
31

>  <SCORE.norm>
-1.25078

>  <RMSD>
7.166

$$$$
lig.pdb
 OpenBabel11021811453D
libRbt.so/2013.1/901 2013/11/27
 31 33  0  0  0  0  0  0  0  0999 V2000
   -4.3797    1.1420   -0.4781 O   0  0  0  0  0  0  0  0  0  0  0  0
   -3.3120    0.2415   -0.2561 C   0  0  0  0  0  0  0  0  0  0  0  0
   -1.9575    0.9629   -0.2697 C   0  0  1  0  0  0  0  0  0  0  0  0
   -1.8624    1.9261    0.7677 O   0  0  0  0  0  0  0  0  0  0  0  0
   -0.4948    2.1235    1.1136 C   0  0  1  0  0  0  0  0  0  0  0  0
   -0.3429    2.0763    2.5273 O   0  0  0  0  0  0  0  0  0  0  0  0
    0.9800    2.1214    3.0378 C   0  0  2  0  0  0  0  0  0  0  0  0
    1.9221    2.4462    1.8677 C   0  0  1  0  0  0  0  0  0  0  0  0
    1.7160    3.7852    1.4456 O   0  0  0  0  0  0  0  0  0  0  0  0
    3.4136    2.2976    2.2045 C   0  0  2  0  0  0  0  0  0  0  0  0
    4.2490    2.5288    1.0159 N   0  0  0  0  0  0  0  0  0  0  0  0
    3.6810    0.8991    2.7483 C   0  0  0  0  0  0  0  0  0  0  0  0
    2.7876    0.6383    3.9548 C   0  0  2  0  0  0  0  0  0  0  0  0
    3.1045   -0.6904    4.4896 N   0  0  0  0  0  0  0  0  0  0  0  0
    1.3003    0.7567    3.5578 C   0  0  1  0  0  0  0  0  0  0  0  0
    0.5600    0.4777    4.7561 O   0  0  0  0  0  0  0  0  0  0  0  0
    0.8124   -0.7664    5.4004 C   0  0  1  0  0  0  0  0  0  0  0  0
    0.9123   -0.5914    6.8111 O   0  0  0  0  0  0  0  0  0  0  0  0
   -0.2925   -0.2436    7.4900 C   0  0  2  0  0  0  0  0  0  0  0  0
    0.0052   -0.0999    8.9885 C   0  0  0  0  0  0  0  0  0  0  0  0
    0.6235    1.1824    9.2940 N   0  0  0  0  0  0  0  0  0  0  0  0
   -1.3736   -1.3187    7.2734 C   0  0  1  0  0  0  0  0  0  0  0  0
   -2.5768   -0.9228    7.9076 O   0  0  0  0  0  0  0  0  0  0  0  0
   -1.6082   -1.4857    5.7669 C   0  0  2  0  0  0  0  0  0  0  0  0
   -2.5342   -2.5297    5.5313 O   0  0  0  0  0  0  0  0  0  0  0  0
   -0.2867   -1.7726    5.0412 C   0  0  1  0  0  0  0  0  0  0  0  0
   -0.5051   -1.8036    3.5880 N   0  0  0  0  0  0  0  0  0  0  0  0
    0.2962    0.9734    0.4735 C   0  0  2  0  0  0  0  0  0  0  0  0
    1.0749    1.4658   -0.6011 O   0  0  0  0  0  0  0  0  0  0  0  0
   -0.8037    0.0107    0.0283 C   0  0  2  0  0  0  0  0  0  0  0  0
   -0.4381   -0.8018   -1.0695 O   0  0  0  0  0  0  0  0  0  0  0  0
  2  1  1  0  0  0  0
  3  2  1  1  0  0  0
  3 30  1  0  0  0  0
  4  5  1  0  0  0  0
  4  3  1  0  0  0  0
  5 28  1  0  0  0  0
  5  6  1  1  0  0  0
  7  6  1  6  0  0  0
  8  7  1  0  0  0  0
  8  9  1  1  0  0  0
 10 11  1  6  0  0  0
 10  8  1  0  0  0  0
 12 10  1  0  0  0  0
 13 12  1  0  0  0  0
 13 15  1  0  0  0  0
 13 14  1  6  0  0  0
 15  7  1  0  0  0  0
 15 16  1  1  0  0  0
 17 16  1  6  0  0  0
 18 17  1  0  0  0  0
 19 20  1  1  0  0  0
 19 18  1  0  0  0  0
 20 21  1  0  0  0  0
 22 24  1  0  0  0  0
 22 19  1  0  0  0  0
 22 23  1  1  0  0  0
 24 25  1  1  0  0  0
 24 26  1  0  0  0  0
 26 17  1  0  0  0  0
 26 27  1  6  0  0  0
 28 29  1  6  0  0  0
 28 30  1  0  0  0  0
 30 31  1  6  0  0  0
M  END
>  <CHROM.1>
-52.51269245,62.20984563,173.85240563,9.16101571,172.71135906,-147.38755736
-87.19815589,-177.10625975,136.61687996,79.26110585,-54.10754107,68.50914337
58.19636592,91.32217317,-66.87504185,167.31055283,0.13394731,0.48771362,3.35411373
1.52759403,-0.37400559,-1.29965706

>  <Name>
lig.pdb

>  <RI>
0

>  <Rbt.Current_Directory>
/home/itssahil/PROJECTS/Mol_Feturizer/New_Systems/rnas/2n0j

>  <Rbt.Executable>
rbdock ($Id: //depot/dev/client3/rdock/2013.1/src/exe/rbdock.cxx#4 $)

>  <Rbt.Library>
libRbt.so (2013.1, Build901 2013/11/27)

>  <Rbt.Parameter_File>
/export/apps/rDock/src/rDock_2013.1_src/data/scripts/dock_solv.prm

>  <Rbt.Receptor>
prm/blind_docking_40.prm

>  <SCORE>
3.50339

>  <SCORE.INTER>
-20.0268

>  <SCORE.INTER.CONST>
1

>  <SCORE.INTER.POLAR>
-1.65763

>  <SCORE.INTER.ROT>
6

>  <SCORE.INTER.SOLV>
23.7894

>  <SCORE.INTER.VDW>
-23.3556

>  <SCORE.INTER.norm>
-0.646027

>  <SCORE.INTRA>
21.7903

>  <SCORE.INTRA.DIHEDRAL>
-6.07216

>  <SCORE.INTRA.DIHEDRAL.0>
28.0161

>  <SCORE.INTRA.POLAR>
0.849713

>  <SCORE.INTRA.POLAR.0>
-1.05798

>  <SCORE.INTRA.REPUL>
0

>  <SCORE.INTRA.REPUL.0>
0

>  <SCORE.INTRA.SOLV>
1.36214

>  <SCORE.INTRA.SOLV.lig_0>
-42.5945

>  <SCORE.INTRA.VDW>
21.2563

>  <SCORE.INTRA.VDW.0>
-5.13869

>  <SCORE.INTRA.norm>
0.702913

>  <SCORE.RESTR>
1.73993

>  <SCORE.RESTR.CAVITY>
1.73993

>  <SCORE.RESTR.norm>
0.0561267

>  <SCORE.SYSTEM>
0

>  <SCORE.SYSTEM.CONST>
0

>  <SCORE.SYSTEM.DIHEDRAL>
0

>  <SCORE.SYSTEM.SOLV>
0

>  <SCORE.SYSTEM.norm>
0

>  <SCORE.heavy>
31

>  <SCORE.norm>
0.113013

>  <RMSD>
7.172

$$$$
lig.pdb
 OpenBabel11021811453D
libRbt.so/2013.1/901 2013/11/27
 31 33  0  0  0  0  0  0  0  0999 V2000
   -0.2784   -0.3998   -0.6443 O   0  0  0  0  0  0  0  0  0  0  0  0
   -0.3588    0.8883   -0.0662 C   0  0  0  0  0  0  0  0  0  0  0  0
    0.9875    1.3207    0.5302 C   0  0  1  0  0  0  0  0  0  0  0  0
    1.0898    2.7321    0.6336 O   0  0  0  0  0  0  0  0  0  0  0  0
    1.9960    3.0709    1.6789 C   0  0  1  0  0  0  0  0  0  0  0  0
    1.4194    4.0688    2.5130 O   0  0  0  0  0  0  0  0  0  0  0  0
    0.6896    5.1040    1.8739 C   0  0  2  0  0  0  0  0  0  0  0  0
    1.6838    6.2149    1.5001 C   0  0  1  0  0  0  0  0  0  0  0  0
    2.5380    5.7625    0.4613 O   0  0  0  0  0  0  0  0  0  0  0  0
    1.0198    7.5120    1.0134 C   0  0  2  0  0  0  0  0  0  0  0  0
    2.0234    8.5590    0.7674 N   0  0  0  0  0  0  0  0  0  0  0  0
    0.0216    8.0011    2.0562 C   0  0  0  0  0  0  0  0  0  0  0  0
   -0.9962    6.9047    2.3462 C   0  0  2  0  0  0  0  0  0  0  0  0
   -1.9742    7.4211    3.3098 N   0  0  0  0  0  0  0  0  0  0  0  0
   -0.2867    5.6384    2.8722 C   0  0  1  0  0  0  0  0  0  0  0  0
   -1.3338    4.6889    3.1244 O   0  0  0  0  0  0  0  0  0  0  0  0
   -1.1898    3.8517    4.2667 C   0  0  1  0  0  0  0  0  0  0  0  0
   -1.2803    4.6164    5.4657 O   0  0  0  0  0  0  0  0  0  0  0  0
   -2.5610    5.1658    5.7679 C   0  0  2  0  0  0  0  0  0  0  0  0
   -2.4680    5.9487    7.0843 C   0  0  0  0  0  0  0  0  0  0  0  0
   -1.4740    5.3771    7.9815 N   0  0  0  0  0  0  0  0  0  0  0  0
   -3.6183    4.0533    5.8958 C   0  0  1  0  0  0  0  0  0  0  0  0
   -4.8906    4.6271    6.1375 O   0  0  0  0  0  0  0  0  0  0  0  0
   -3.6480    3.2488    4.5903 C   0  0  2  0  0  0  0  0  0  0  0  0
   -4.5485    2.1634    4.7079 O   0  0  0  0  0  0  0  0  0  0  0  0
   -2.2444    2.7397    4.2353 C   0  0  1  0  0  0  0  0  0  0  0  0
   -2.2633    2.0815    2.9212 N   0  0  0  0  0  0  0  0  0  0  0  0
    2.2310    1.7919    2.4957 C   0  0  2  0  0  0  0  0  0  0  0  0
    3.5433    1.3121    2.2697 O   0  0  0  0  0  0  0  0  0  0  0  0
    1.1473    0.8505    1.9725 C   0  0  2  0  0  0  0  0  0  0  0  0
    1.4780   -0.5191    2.0913 O   0  0  0  0  0  0  0  0  0  0  0  0
  2  1  1  0  0  0  0
  3  2  1  1  0  0  0
  3 30  1  0  0  0  0
  4  5  1  0  0  0  0
  4  3  1  0  0  0  0
  5 28  1  0  0  0  0
  5  6  1  1  0  0  0
  7  6  1  1  0  0  0
  8  7  1  0  0  0  0
  8  9  1  6  0  0  0
 10 11  1  1  0  0  0
 10  8  1  0  0  0  0
 12 10  1  0  0  0  0
 13 12  1  0  0  0  0
 13 15  1  0  0  0  0
 13 14  1  1  0  0  0
 15  7  1  0  0  0  0
 15 16  1  6  0  0  0
 17 16  1  6  0  0  0
 18 17  1  0  0  0  0
 19 20  1  1  0  0  0
 19 18  1  0  0  0  0
 20 21  1  0  0  0  0
 22 24  1  0  0  0  0
 22 19  1  0  0  0  0
 22 23  1  6  0  0  0
 24 25  1  1  0  0  0
 24 26  1  0  0  0  0
 26 17  1  0  0  0  0
 26 27  1  6  0  0  0
 28 29  1  6  0  0  0
 28 30  1  0  0  0  0
 30 31  1  6  0  0  0
M  END
>  <CHROM.1>
-64.67712736,157.07675644,-40.23145848,-87.52985828,-68.29464446,-51.47548152
59.73108635,96.67721533,67.26055908,-30.97686438,150.41449292,54.70690511
-61.07269380,77.69493550,57.86522143,-59.77295749,-0.43828707,3.99806588
2.96536731,0.50823712,-0.75215056,-2.98467494

>  <Name>
lig.pdb

>  <RI>
3.50357e+07

>  <Rbt.Current_Directory>
/home/itssahil/PROJECTS/Mol_Feturizer/New_Systems/rnas/2n0j

>  <Rbt.Executable>
rbdock ($Id: //depot/dev/client3/rdock/2013.1/src/exe/rbdock.cxx#4 $)

>  <Rbt.Library>
libRbt.so (2013.1, Build901 2013/11/27)

>  <Rbt.Parameter_File>
/export/apps/rDock/src/rDock_2013.1_src/data/scripts/dock_solv.prm

>  <Rbt.Receptor>
prm/pocket_docking_3.prm

>  <SCORE>
-46.5157

>  <SCORE.INTER>
-44.6792

>  <SCORE.INTER.CONST>
1

>  <SCORE.INTER.POLAR>
-4.82937

>  <SCORE.INTER.ROT>
6

>  <SCORE.INTER.SOLV>
18.6008

>  <SCORE.INTER.VDW>
-27.4885

>  <SCORE.INTER.norm>
-1.44127

>  <SCORE.INTRA>
-1.83647

>  <SCORE.INTRA.DIHEDRAL>
-10.263

>  <SCORE.INTRA.DIHEDRAL.0>
28.0161

>  <SCORE.INTRA.POLAR>
0.701202

>  <SCORE.INTRA.POLAR.0>
-1.05798

>  <SCORE.INTRA.REPUL>
0

>  <SCORE.INTRA.REPUL.0>
0

>  <SCORE.INTRA.SOLV>
-0.0561626

>  <SCORE.INTRA.SOLV.lig_0>
-42.5945

>  <SCORE.INTRA.VDW>
0.939027

>  <SCORE.INTRA.VDW.0>
-5.13869

>  <SCORE.INTRA.norm>
-0.059241

>  <SCORE.RESTR>
0

>  <SCORE.RESTR.CAVITY>
0

>  <SCORE.RESTR.norm>
0

>  <SCORE.SYSTEM>
0

>  <SCORE.SYSTEM.CONST>
0

>  <SCORE.SYSTEM.DIHEDRAL>
0

>  <SCORE.SYSTEM.SOLV>
0

>  <SCORE.SYSTEM.norm>
0

>  <SCORE.heavy>
31

>  <SCORE.norm>
-1.50051

>  <RMSD>
7.179

$$$$
lig.pdb
 OpenBabel11021811453D
libRbt.so/2013.1/901 2013/11/27
 31 33  0  0  0  0  0  0  0  0999 V2000
   -1.5265   -0.7361    2.0308 O   0  0  0  0  0  0  0  0  0  0  0  0
   -0.4152   -0.8985    1.1712 C   0  0  0  0  0  0  0  0  0  0  0  0
    0.6297    0.2038    1.3906 C   0  0  1  0  0  0  0  0  0  0  0  0
    0.0254    1.4735    1.5797 O   0  0  0  0  0  0  0  0  0  0  0  0
    0.8907    2.3060    2.3459 C   0  0  1  0  0  0  0  0  0  0  0  0
    0.1571    2.9317    3.3919 O   0  0  0  0  0  0  0  0  0  0  0  0
   -0.8279    3.8802    3.0139 C   0  0  2  0  0  0  0  0  0  0  0  0
   -0.1082    5.2011    2.6984 C   0  0  1  0  0  0  0  0  0  0  0  0
    0.6482    5.0605    1.5061 O   0  0  0  0  0  0  0  0  0  0  0  0
   -1.0521    6.3973    2.5023 C   0  0  2  0  0  0  0  0  0  0  0  0
   -0.2932    7.6414    2.3010 N   0  0  0  0  0  0  0  0  0  0  0  0
   -1.9546    6.5453    3.7216 C   0  0  0  0  0  0  0  0  0  0  0  0
   -2.7121    5.2448    3.9601 C   0  0  2  0  0  0  0  0  0  0  0  0
   -3.6114    5.4334    5.1035 N   0  0  0  0  0  0  0  0  0  0  0  0
   -1.7235    4.0822    4.1939 C   0  0  1  0  0  0  0  0  0  0  0  0
   -2.5407    2.9238    4.4216 O   0  0  0  0  0  0  0  0  0  0  0  0
   -2.0192    1.9214    5.2876 C   0  0  1  0  0  0  0  0  0  0  0  0
   -1.6370    2.4863    6.5387 O   0  0  0  0  0  0  0  0  0  0  0  0
   -2.6975    2.9518    7.3706 C   0  0  2  0  0  0  0  0  0  0  0  0
   -2.1009    3.5205    8.6649 C   0  0  0  0  0  0  0  0  0  0  0  0
   -0.7975    2.9412    8.9569 N   0  0  0  0  0  0  0  0  0  0  0  0
   -3.6743    1.8089    7.7042 C   0  0  1  0  0  0  0  0  0  0  0  0
   -4.7483    2.3081    8.4813 O   0  0  0  0  0  0  0  0  0  0  0  0
   -4.2088    1.2185    6.3934 C   0  0  2  0  0  0  0  0  0  0  0  0
   -5.0426    0.1075    6.6642 O   0  0  0  0  0  0  0  0  0  0  0  0
   -3.0519    0.8040    5.4742 C   0  0  1  0  0  0  0  0  0  0  0  0
   -3.5742    0.3598    4.1740 N   0  0  0  0  0  0  0  0  0  0  0  0
    1.9675    1.3923    2.9493 C   0  0  2  0  0  0  0  0  0  0  0  0
    3.2106    1.6322    2.3163 O   0  0  0  0  0  0  0  0  0  0  0  0
    1.4154   -0.0069    2.6810 C   0  0  2  0  0  0  0  0  0  0  0  0
    2.4140   -1.0031    2.5833 O   0  0  0  0  0  0  0  0  0  0  0  0
  2  1  1  0  0  0  0
  3  2  1  1  0  0  0
  3 30  1  0  0  0  0
  4  5  1  0  0  0  0
  4  3  1  0  0  0  0
  5 28  1  0  0  0  0
  5  6  1  1  0  0  0
  7  6  1  1  0  0  0
  8  7  1  0  0  0  0
  8  9  1  6  0  0  0
 10 11  1  1  0  0  0
 10  8  1  0  0  0  0
 12 10  1  0  0  0  0
 13 12  1  0  0  0  0
 13 15  1  0  0  0  0
 13 14  1  1  0  0  0
 15  7  1  0  0  0  0
 15 16  1  6  0  0  0
 17 16  1  6  0  0  0
 18 17  1  0  0  0  0
 19 20  1  1  0  0  0
 19 18  1  0  0  0  0
 20 21  1  0  0  0  0
 22 24  1  0  0  0  0
 22 19  1  0  0  0  0
 22 23  1  1  0  0  0
 24 25  1  1  0  0  0
 24 26  1  0  0  0  0
 26 17  1  0  0  0  0
 26 27  1  6  0  0  0
 28 29  1  6  0  0  0
 28 30  1  0  0  0  0
 30 31  1  6  0  0  0
M  END
>  <CHROM.1>
58.27688458,-40.76628274,-66.85169228,-79.58788789,54.31931840,-72.23609145
60.74853756,90.18256967,53.57534572,-24.72447529,73.16415783,-69.83066583
-57.76350725,59.37694549,174.97681371,54.25358730,-1.25484046,2.56684823
4.25442630,0.03402825,-0.85875879,3.04738582

>  <Name>
lig.pdb

>  <RI>
3.32461e+07

>  <Rbt.Current_Directory>
/home/itssahil/PROJECTS/Mol_Feturizer/New_Systems/rnas/2n0j

>  <Rbt.Executable>
rbdock ($Id: //depot/dev/client3/rdock/2013.1/src/exe/rbdock.cxx#4 $)

>  <Rbt.Library>
libRbt.so (2013.1, Build901 2013/11/27)

>  <Rbt.Parameter_File>
/export/apps/rDock/src/rDock_2013.1_src/data/scripts/dock_solv.prm

>  <Rbt.Receptor>
prm/pocket_docking_7.prm

>  <SCORE>
-39.3659

>  <SCORE.INTER>
-33.235

>  <SCORE.INTER.CONST>
1

>  <SCORE.INTER.POLAR>
-4.60314

>  <SCORE.INTER.ROT>
6

>  <SCORE.INTER.SOLV>
12.4781

>  <SCORE.INTER.VDW>
-18.5723

>  <SCORE.INTER.norm>
-1.0721

>  <SCORE.INTRA>
-6.13092

>  <SCORE.INTRA.DIHEDRAL>
-15.5274

>  <SCORE.INTRA.DIHEDRAL.0>
28.0161

>  <SCORE.INTRA.POLAR>
0.0945018

>  <SCORE.INTRA.POLAR.0>
-1.05798

>  <SCORE.INTRA.REPUL>
0

>  <SCORE.INTRA.REPUL.0>
0

>  <SCORE.INTRA.SOLV>
0.594732

>  <SCORE.INTRA.SOLV.lig_0>
-42.5945

>  <SCORE.INTRA.VDW>
1.01411

>  <SCORE.INTRA.VDW.0>
-5.13869

>  <SCORE.INTRA.norm>
-0.197772

>  <SCORE.RESTR>
0

>  <SCORE.RESTR.CAVITY>
0

>  <SCORE.RESTR.norm>
0

>  <SCORE.SYSTEM>
0

>  <SCORE.SYSTEM.CONST>
0

>  <SCORE.SYSTEM.DIHEDRAL>
0

>  <SCORE.SYSTEM.SOLV>
0

>  <SCORE.SYSTEM.norm>
0

>  <SCORE.heavy>
31

>  <SCORE.norm>
-1.26987

>  <RMSD>
7.186

$$$$
lig.pdb
 OpenBabel11021811453D
libRbt.so/2013.1/901 2013/11/27
 31 33  0  0  0  0  0  0  0  0999 V2000
   -4.4170    0.8464   -0.3939 O   0  0  0  0  0  0  0  0  0  0  0  0
   -3.2708    0.0793   -0.0809 C   0  0  0  0  0  0  0  0  0  0  0  0
   -1.9890    0.9163   -0.1879 C   0  0  1  0  0  0  0  0  0  0  0  0
   -1.9037    1.8851    0.8452 O   0  0  0  0  0  0  0  0  0  0  0  0
   -0.5373    2.2015    1.0929 C   0  0  1  0  0  0  0  0  0  0  0  0
   -0.2802    2.1691    2.4918 O   0  0  0  0  0  0  0  0  0  0  0  0
    1.0693    2.3129    2.9053 C   0  0  2  0  0  0  0  0  0  0  0  0
    1.7058    3.4185    2.0482 C   0  0  1  0  0  0  0  0  0  0  0  0
    1.1477    4.6754    2.3978 O   0  0  0  0  0  0  0  0  0  0  0  0
    3.2294    3.5350    2.2066 C   0  0  2  0  0  0  0  0  0  0  0  0
    3.7803    4.5435    1.2883 N   0  0  0  0  0  0  0  0  0  0  0  0
    3.8800    2.1853    1.9273 C   0  0  0  0  0  0  0  0  0  0  0  0
    3.2827    1.1275    2.8473 C   0  0  2  0  0  0  0  0  0  0  0  0
    3.9644   -0.1466    2.5952 N   0  0  0  0  0  0  0  0  0  0  0  0
    1.7594    1.0172    2.6216 C   0  0  1  0  0  0  0  0  0  0  0  0
    1.3119   -0.0096    3.5199 O   0  0  0  0  0  0  0  0  0  0  0  0
    0.9688    0.3893    4.8427 C   0  0  1  0  0  0  0  0  0  0  0  0
   -0.3967    0.0911    5.1201 O   0  0  0  0  0  0  0  0  0  0  0  0
   -0.7317   -1.2911    5.2238 C   0  0  2  0  0  0  0  0  0  0  0  0
   -2.2310   -1.4180    5.5248 C   0  0  0  0  0  0  0  0  0  0  0  0
   -2.5441   -1.0028    6.8847 N   0  0  0  0  0  0  0  0  0  0  0  0
    0.0839   -1.9704    6.3396 C   0  0  1  0  0  0  0  0  0  0  0  0
   -0.2231   -3.3526    6.3838 O   0  0  0  0  0  0  0  0  0  0  0  0
    1.5770   -1.7766    6.0469 C   0  0  2  0  0  0  0  0  0  0  0  0
    2.3534   -2.3144    7.1009 O   0  0  0  0  0  0  0  0  0  0  0  0
    1.9023   -0.2896    5.8514 C   0  0  1  0  0  0  0  0  0  0  0  0
    3.3062   -0.1288    5.4466 N   0  0  0  0  0  0  0  0  0  0  0  0
    0.3029    1.1245    0.3913 C   0  0  2  0  0  0  0  0  0  0  0  0
    0.9561    1.6823   -0.7337 O   0  0  0  0  0  0  0  0  0  0  0  0
   -0.7379    0.0690    0.0212 C   0  0  2  0  0  0  0  0  0  0  0  0
   -0.3830   -0.7094   -1.1045 O   0  0  0  0  0  0  0  0  0  0  0  0
  2  1  1  0  0  0  0
  3  2  1  1  0  0  0
  3 30  1  0  0  0  0
  4  5  1  0  0  0  0
  4  3  1  0  0  0  0
  5 28  1  0  0  0  0
  5  6  1  1  0  0  0
  7  6  1  6  0  0  0
  8  7  1  0  0  0  0
  8  9  1  1  0  0  0
 10 11  1  6  0  0  0
 10  8  1  0  0  0  0
 12 10  1  0  0  0  0
 13 12  1  0  0  0  0
 13 15  1  0  0  0  0
 13 14  1  6  0  0  0
 15  7  1  0  0  0  0
 15 16  1  1  0  0  0
 17 16  1  6  0  0  0
 18 17  1  0  0  0  0
 19 20  1  1  0  0  0
 19 18  1  0  0  0  0
 20 21  1  0  0  0  0
 22 24  1  0  0  0  0
 22 19  1  0  0  0  0
 22 23  1  6  0  0  0
 24 25  1  1  0  0  0
 24 26  1  0  0  0  0
 26 17  1  0  0  0  0
 26 27  1  6  0  0  0
 28 29  1  6  0  0  0
 28 30  1  0  0  0  0
 30 31  1  6  0  0  0
M  END
>  <CHROM.1>
-177.02244861,69.93398798,173.06395887,42.12289052,-63.32413695,9.56343191
70.92249458,-33.48965401,119.42530887,-71.58278593,-172.10093397,-178.24984287
65.10681575,36.40794684,-119.84447746,176.09920027,0.54029741,0.62258867
2.95148220,1.65563700,-0.40205677,-0.97838561

>  <Name>
lig.pdb

>  <RI>
1.79691e+07

>  <Rbt.Current_Directory>
/home/itssahil/PROJECTS/Mol_Feturizer/New_Systems/rnas/2n0j

>  <Rbt.Executable>
rbdock ($Id: //depot/dev/client3/rdock/2013.1/src/exe/rbdock.cxx#4 $)

>  <Rbt.Library>
libRbt.so (2013.1, Build901 2013/11/27)

>  <Rbt.Parameter_File>
/export/apps/rDock/src/rDock_2013.1_src/data/scripts/dock_solv.prm

>  <Rbt.Receptor>
prm/blind_docking_20.prm

>  <SCORE>
-7.22682

>  <SCORE.INTER>
-24.9364

>  <SCORE.INTER.CONST>
1

>  <SCORE.INTER.POLAR>
-4.08943

>  <SCORE.INTER.ROT>
6

>  <SCORE.INTER.SOLV>
27.469

>  <SCORE.INTER.VDW>
-19.7492

>  <SCORE.INTER.norm>
-0.804399

>  <SCORE.INTRA>
15.1384

>  <SCORE.INTRA.DIHEDRAL>
-2.70746

>  <SCORE.INTRA.DIHEDRAL.0>
28.0161

>  <SCORE.INTRA.POLAR>
1.02744

>  <SCORE.INTRA.POLAR.0>
-1.05798

>  <SCORE.INTRA.REPUL>
0

>  <SCORE.INTRA.REPUL.0>
0

>  <SCORE.INTRA.SOLV>
1.29653

>  <SCORE.INTRA.SOLV.lig_0>
-42.5945

>  <SCORE.INTRA.VDW>
12.3506

>  <SCORE.INTRA.VDW.0>
-5.13869

>  <SCORE.INTRA.norm>
0.488336

>  <SCORE.RESTR>
2.57114

>  <SCORE.RESTR.CAVITY>
2.57114

>  <SCORE.RESTR.norm>
0.0829401

>  <SCORE.SYSTEM>
0

>  <SCORE.SYSTEM.CONST>
0

>  <SCORE.SYSTEM.DIHEDRAL>
0

>  <SCORE.SYSTEM.SOLV>
0

>  <SCORE.SYSTEM.norm>
0

>  <SCORE.heavy>
31

>  <SCORE.norm>
-0.233123

>  <RMSD>
7.187

$$$$
lig.pdb
 OpenBabel11021811453D
libRbt.so/2013.1/901 2013/11/27
 31 33  0  0  0  0  0  0  0  0999 V2000
    5.4667    2.9331    1.1188 O   0  0  0  0  0  0  0  0  0  0  0  0
    5.1408    4.0338    1.9448 C   0  0  0  0  0  0  0  0  0  0  0  0
    3.8705    4.7440    1.4578 C   0  0  1  0  0  0  0  0  0  0  0  0
    2.7582    3.8642    1.4136 O   0  0  0  0  0  0  0  0  0  0  0  0
    1.5528    4.6092    1.5580 C   0  0  1  0  0  0  0  0  0  0  0  0
    0.7147    3.9884    2.5255 O   0  0  0  0  0  0  0  0  0  0  0  0
   -0.6859    4.0635    2.3120 C   0  0  2  0  0  0  0  0  0  0  0  0
   -1.1808    5.3868    2.9170 C   0  0  1  0  0  0  0  0  0  0  0  0
   -0.6993    6.4753    2.1446 O   0  0  0  0  0  0  0  0  0  0  0  0
   -2.7106    5.5130    2.9808 C   0  0  2  0  0  0  0  0  0  0  0  0
   -3.1102    6.7568    3.6570 N   0  0  0  0  0  0  0  0  0  0  0  0
   -3.2942    4.3194    3.7276 C   0  0  0  0  0  0  0  0  0  0  0  0
   -2.8487    3.0261    3.0560 C   0  0  2  0  0  0  0  0  0  0  0  0
   -3.4682    1.8987    3.7610 N   0  0  0  0  0  0  0  0  0  0  0  0
   -1.3082    2.9245    3.0542 C   0  0  1  0  0  0  0  0  0  0  0  0
   -1.0071    1.6727    2.4187 O   0  0  0  0  0  0  0  0  0  0  0  0
    0.1336    0.9632    2.8899 C   0  0  1  0  0  0  0  0  0  0  0  0
   -0.0136    0.6318    4.2680 O   0  0  0  0  0  0  0  0  0  0  0  0
   -1.0093   -0.3402    4.5797 C   0  0  2  0  0  0  0  0  0  0  0  0
   -1.0227   -0.5689    6.0970 C   0  0  0  0  0  0  0  0  0  0  0  0
    0.3142   -0.8215    6.6152 N   0  0  0  0  0  0  0  0  0  0  0  0
   -0.7248   -1.6684    3.8542 C   0  0  1  0  0  0  0  0  0  0  0  0
   -1.7573   -2.5973    4.1328 O   0  0  0  0  0  0  0  0  0  0  0  0
   -0.6561   -1.4013    2.3454 C   0  0  2  0  0  0  0  0  0  0  0  0
   -0.3088   -2.5877    1.6564 O   0  0  0  0  0  0  0  0  0  0  0  0
    0.3573   -0.2908    2.0371 C   0  0  1  0  0  0  0  0  0  0  0  0
    0.3207    0.0432    0.6062 N   0  0  0  0  0  0  0  0  0  0  0  0
    1.9512    6.0094    2.0466 C   0  0  2  0  0  0  0  0  0  0  0  0
    1.7548    6.9535    1.0104 O   0  0  0  0  0  0  0  0  0  0  0  0
    3.4199    5.8312    2.4282 C   0  0  2  0  0  0  0  0  0  0  0  0
    4.1784    7.0214    2.3418 O   0  0  0  0  0  0  0  0  0  0  0  0
  2  1  1  0  0  0  0
  3  2  1  1  0  0  0
  3 30  1  0  0  0  0
  4  5  1  0  0  0  0
  4  3  1  0  0  0  0
  5 28  1  0  0  0  0
  5  6  1  1  0  0  0
  7  6  1  1  0  0  0
  8  7  1  0  0  0  0
  8  9  1  6  0  0  0
 10 11  1  1  0  0  0
 10  8  1  0  0  0  0
 12 10  1  0  0  0  0
 13 12  1  0  0  0  0
 13 15  1  0  0  0  0
 13 14  1  1  0  0  0
 15  7  1  0  0  0  0
 15 16  1  6  0  0  0
 17 16  1  6  0  0  0
 18 17  1  0  0  0  0
 19 20  1  1  0  0  0
 19 18  1  0  0  0  0
 20 21  1  0  0  0  0
 22 24  1  0  0  0  0
 22 19  1  0  0  0  0
 22 23  1  6  0  0  0
 24 25  1  6  0  0  0
 24 26  1  0  0  0  0
 26 17  1  0  0  0  0
 26 27  1  6  0  0  0
 28 29  1  6  0  0  0
 28 30  1  0  0  0  0
 30 31  1  6  0  0  0
M  END
>  <CHROM.1>
-165.20478422,58.14264585,-145.89252964,-86.13966141,57.14052146,-27.09594609
173.34066625,93.27932249,60.65391380,-50.01256754,-29.96494727,60.44635726
63.63592162,-37.16116713,-60.98022309,-178.74557460,0.21319355,2.67710011
2.79912935,-1.09636242,-0.29354941,3.01285077

>  <Name>
lig.pdb

>  <RI>
3.50357e+07

>  <Rbt.Current_Directory>
/home/itssahil/PROJECTS/Mol_Feturizer/New_Systems/rnas/2n0j

>  <Rbt.Executable>
rbdock ($Id: //depot/dev/client3/rdock/2013.1/src/exe/rbdock.cxx#4 $)

>  <Rbt.Library>
libRbt.so (2013.1, Build901 2013/11/27)

>  <Rbt.Parameter_File>
/export/apps/rDock/src/rDock_2013.1_src/data/scripts/dock_solv.prm

>  <Rbt.Receptor>
prm/pocket_docking_3.prm

>  <SCORE>
-37.1546

>  <SCORE.INTER>
-39.6019

>  <SCORE.INTER.CONST>
1

>  <SCORE.INTER.POLAR>
-5.07641

>  <SCORE.INTER.ROT>
6

>  <SCORE.INTER.SOLV>
15.8545

>  <SCORE.INTER.VDW>
-22.3647

>  <SCORE.INTER.norm>
-1.27748

>  <SCORE.INTRA>
1.07281

>  <SCORE.INTRA.DIHEDRAL>
-9.56073

>  <SCORE.INTRA.DIHEDRAL.0>
28.0161

>  <SCORE.INTRA.POLAR>
0.915897

>  <SCORE.INTRA.POLAR.0>
-1.05798

>  <SCORE.INTRA.REPUL>
0

>  <SCORE.INTRA.REPUL.0>
0

>  <SCORE.INTRA.SOLV>
0.510238

>  <SCORE.INTRA.SOLV.lig_0>
-42.5945

>  <SCORE.INTRA.VDW>
2.484

>  <SCORE.INTRA.VDW.0>
-5.13869

>  <SCORE.INTRA.norm>
0.0346066

>  <SCORE.RESTR>
1.37444

>  <SCORE.RESTR.CAVITY>
1.37444

>  <SCORE.RESTR.norm>
0.0443368

>  <SCORE.SYSTEM>
0

>  <SCORE.SYSTEM.CONST>
0

>  <SCORE.SYSTEM.DIHEDRAL>
0

>  <SCORE.SYSTEM.SOLV>
0

>  <SCORE.SYSTEM.norm>
0

>  <SCORE.heavy>
31

>  <SCORE.norm>
-1.19854

>  <RMSD>
7.196

$$$$
lig.pdb
 OpenBabel11021811453D
libRbt.so/2013.1/901 2013/11/27
 31 33  0  0  0  0  0  0  0  0999 V2000
    0.7757    0.3985    4.5354 O   0  0  0  0  0  0  0  0  0  0  0  0
    1.0131   -0.2021    3.2772 C   0  0  0  0  0  0  0  0  0  0  0  0
    1.5642    0.8125    2.2662 C   0  0  1  0  0  0  0  0  0  0  0  0
    0.7252    1.9508    2.1503 O   0  0  0  0  0  0  0  0  0  0  0  0
    1.4951    3.0717    1.7265 C   0  0  1  0  0  0  0  0  0  0  0  0
    1.1987    4.1976    2.5440 O   0  0  0  0  0  0  0  0  0  0  0  0
    0.5805    5.3091    1.9152 C   0  0  2  0  0  0  0  0  0  0  0  0
    1.6199    6.4383    1.8343 C   0  0  1  0  0  0  0  0  0  0  0  0
    2.6326    6.0901    0.9034 O   0  0  0  0  0  0  0  0  0  0  0  0
    1.0412    7.7920    1.3950 C   0  0  2  0  0  0  0  0  0  0  0  0
    2.0693    8.8434    1.4336 N   0  0  0  0  0  0  0  0  0  0  0  0
   -0.1143    8.1785    2.3106 C   0  0  0  0  0  0  0  0  0  0  0  0
   -1.1634    7.0733    2.3072 C   0  0  2  0  0  0  0  0  0  0  0  0
   -2.2862    7.4954    3.1515 N   0  0  0  0  0  0  0  0  0  0  0  0
   -0.5464    5.7451    2.7958 C   0  0  1  0  0  0  0  0  0  0  0  0
   -1.6185    4.7906    2.7671 O   0  0  0  0  0  0  0  0  0  0  0  0
   -1.5132    3.6695    3.6381 C   0  0  1  0  0  0  0  0  0  0  0  0
   -1.7916    4.0492    4.9831 O   0  0  0  0  0  0  0  0  0  0  0  0
   -3.1407    4.4118    5.2694 C   0  0  2  0  0  0  0  0  0  0  0  0
   -3.2505    4.7858    6.7536 C   0  0  0  0  0  0  0  0  0  0  0  0
   -2.8178    3.6961    7.6168 N   0  0  0  0  0  0  0  0  0  0  0  0
   -4.0998    3.2496    4.9517 C   0  0  1  0  0  0  0  0  0  0  0  0
   -5.4368    3.6535    5.1883 O   0  0  0  0  0  0  0  0  0  0  0  0
   -3.9264    2.8555    3.4796 C   0  0  2  0  0  0  0  0  0  0  0  0
   -4.7317    1.7313    3.1786 O   0  0  0  0  0  0  0  0  0  0  0  0
   -2.4540    2.5539    3.1691 C   0  0  1  0  0  0  0  0  0  0  0  0
   -2.2823    2.3027    1.7311 N   0  0  0  0  0  0  0  0  0  0  0  0
    2.9719    2.6872    1.8980 C   0  0  2  0  0  0  0  0  0  0  0  0
    3.5703    2.5015    0.6287 O   0  0  0  0  0  0  0  0  0  0  0  0
    2.8954    1.4023    2.7212 C   0  0  2  0  0  0  0  0  0  0  0  0
    3.9969    0.5371    2.5287 O   0  0  0  0  0  0  0  0  0  0  0  0
  2  1  1  0  0  0  0
  3  2  1  1  0  0  0
  3 30  1  0  0  0  0
  4  5  1  0  0  0  0
  4  3  1  0  0  0  0
  5 28  1  0  0  0  0
  5  6  1  1  0  0  0
  7  6  1  1  0  0  0
  8  7  1  0  0  0  0
  8  9  1  6  0  0  0
 10 11  1  1  0  0  0
 10  8  1  0  0  0  0
 12 10  1  0  0  0  0
 13 12  1  0  0  0  0
 13 15  1  0  0  0  0
 13 14  1  1  0  0  0
 15  7  1  0  0  0  0
 15 16  1  6  0  0  0
 17 16  1  6  0  0  0
 18 17  1  0  0  0  0
 19 20  1  1  0  0  0
 19 18  1  0  0  0  0
 20 21  1  0  0  0  0
 22 24  1  0  0  0  0
 22 19  1  0  0  0  0
 22 23  1  6  0  0  0
 24 25  1  1  0  0  0
 24 26  1  0  0  0  0
 26 17  1  0  0  0  0
 26 27  1  6  0  0  0
 28 29  1  6  0  0  0
 28 30  1  0  0  0  0
 30 31  1  6  0  0  0
M  END
>  <CHROM.1>
-57.24900753,-54.37498798,-115.32310491,-108.68511525,58.71046652,63.91490336
-130.84164642,83.92282901,75.30618335,-57.50701613,58.50634304,-169.73356404
64.77784386,48.31327216,174.21643563,46.72669448,-0.42374899,3.91521270,3.07405734
-0.08808129,-0.46742694,2.95843006

>  <Name>
lig.pdb

>  <RI>
0

>  <Rbt.Current_Directory>
/home/itssahil/PROJECTS/Mol_Feturizer/New_Systems/rnas/2n0j

>  <Rbt.Executable>
rbdock ($Id: //depot/dev/client3/rdock/2013.1/src/exe/rbdock.cxx#4 $)

>  <Rbt.Library>
libRbt.so (2013.1, Build901 2013/11/27)

>  <Rbt.Parameter_File>
/export/apps/rDock/src/rDock_2013.1_src/data/scripts/dock_solv.prm

>  <Rbt.Receptor>
prm/pocket_docking_5.prm

>  <SCORE>
-40.2687

>  <SCORE.INTER>
-39.2283

>  <SCORE.INTER.CONST>
1

>  <SCORE.INTER.POLAR>
-4.61376

>  <SCORE.INTER.ROT>
6

>  <SCORE.INTER.SOLV>
14.4279

>  <SCORE.INTER.VDW>
-23.1823

>  <SCORE.INTER.norm>
-1.26543

>  <SCORE.INTRA>
-1.04033

>  <SCORE.INTRA.DIHEDRAL>
-4.98637

>  <SCORE.INTRA.DIHEDRAL.0>
28.0161

>  <SCORE.INTRA.POLAR>
0.0488756

>  <SCORE.INTRA.POLAR.0>
-1.05798

>  <SCORE.INTRA.REPUL>
0

>  <SCORE.INTRA.REPUL.0>
0

>  <SCORE.INTRA.SOLV>
1.08551

>  <SCORE.INTRA.SOLV.lig_0>
-42.5945

>  <SCORE.INTRA.VDW>
0.743919

>  <SCORE.INTRA.VDW.0>
-5.13869

>  <SCORE.INTRA.norm>
-0.0335591

>  <SCORE.RESTR>
0

>  <SCORE.RESTR.CAVITY>
0

>  <SCORE.RESTR.norm>
0

>  <SCORE.SYSTEM>
0

>  <SCORE.SYSTEM.CONST>
0

>  <SCORE.SYSTEM.DIHEDRAL>
0

>  <SCORE.SYSTEM.SOLV>
0

>  <SCORE.SYSTEM.norm>
0

>  <SCORE.heavy>
31

>  <SCORE.norm>
-1.29899

>  <RMSD>
7.197

$$$$
lig.pdb
 OpenBabel11021811453D
libRbt.so/2013.1/901 2013/11/27
 31 33  0  0  0  0  0  0  0  0999 V2000
    4.3141    8.3520   -2.4884 O   0  0  0  0  0  0  0  0  0  0  0  0
    5.0616    7.7575   -1.4454 C   0  0  0  0  0  0  0  0  0  0  0  0
    4.2142    7.5802   -0.1783 C   0  0  1  0  0  0  0  0  0  0  0  0
    3.1719    6.6365   -0.3684 O   0  0  0  0  0  0  0  0  0  0  0  0
    2.8166    6.0572    0.8833 C   0  0  1  0  0  0  0  0  0  0  0  0
    2.7435    4.6421    0.7569 O   0  0  0  0  0  0  0  0  0  0  0  0
    2.6664    3.8883    1.9564 C   0  0  2  0  0  0  0  0  0  0  0  0
    3.3605    2.5400    1.7068 C   0  0  1  0  0  0  0  0  0  0  0  0
    4.7581    2.7406    1.5661 O   0  0  0  0  0  0  0  0  0  0  0  0
    3.1571    1.5132    2.8313 C   0  0  2  0  0  0  0  0  0  0  0  0
    3.7648    0.2198    2.4818 N   0  0  0  0  0  0  0  0  0  0  0  0
    1.6672    1.3206    3.0883 C   0  0  0  0  0  0  0  0  0  0  0  0
    1.0241    2.6642    3.4097 C   0  0  2  0  0  0  0  0  0  0  0  0
   -0.3952    2.4415    3.7057 N   0  0  0  0  0  0  0  0  0  0  0  0
    1.2174    3.6472    2.2349 C   0  0  1  0  0  0  0  0  0  0  0  0
    0.5639    4.8603    2.6384 O   0  0  0  0  0  0  0  0  0  0  0  0
   -0.4764    5.3480    1.7978 C   0  0  1  0  0  0  0  0  0  0  0  0
   -1.5975    4.4686    1.8228 O   0  0  0  0  0  0  0  0  0  0  0  0
   -2.3262    4.4108    3.0471 C   0  0  2  0  0  0  0  0  0  0  0  0
   -3.4889    3.4223    2.8873 C   0  0  0  0  0  0  0  0  0  0  0  0
   -4.5447    3.9648    2.0443 N   0  0  0  0  0  0  0  0  0  0  0  0
   -2.8710    5.8003    3.4268 C   0  0  1  0  0  0  0  0  0  0  0  0
   -3.5395    5.7285    4.6736 O   0  0  0  0  0  0  0  0  0  0  0  0
   -1.6962    6.7819    3.5203 C   0  0  2  0  0  0  0  0  0  0  0  0
   -2.1732    8.0884    3.7821 O   0  0  0  0  0  0  0  0  0  0  0  0
   -0.8720    6.7657    2.2259 C   0  0  1  0  0  0  0  0  0  0  0  0
    0.3200    7.6126    2.3755 N   0  0  0  0  0  0  0  0  0  0  0  0
    3.9281    6.4274    1.8762 C   0  0  2  0  0  0  0  0  0  0  0  0
    3.4429    7.3754    2.8086 O   0  0  0  0  0  0  0  0  0  0  0  0
    5.0241    6.9827    0.9680 C   0  0  2  0  0  0  0  0  0  0  0  0
    5.8762    7.9119    1.6078 O   0  0  0  0  0  0  0  0  0  0  0  0
  2  1  1  0  0  0  0
  3  2  1  6  0  0  0
  3 30  1  0  0  0  0
  4  5  1  0  0  0  0
  4  3  1  0  0  0  0
  5 28  1  0  0  0  0
  5  6  1  6  0  0  0
  7  6  1  6  0  0  0
  8  7  1  0  0  0  0
  8  9  1  1  0  0  0
 10 11  1  6  0  0  0
 10  8  1  0  0  0  0
 12 10  1  0  0  0  0
 13 12  1  0  0  0  0
 13 15  1  0  0  0  0
 13 14  1  6  0  0  0
 15  7  1  0  0  0  0
 15 16  1  1  0  0  0
 17 16  1  1  0  0  0
 18 17  1  0  0  0  0
 19 20  1  6  0  0  0
 19 18  1  0  0  0  0
 20 21  1  0  0  0  0
 22 24  1  0  0  0  0
 22 19  1  0  0  0  0
 22 23  1  1  0  0  0
 24 25  1  6  0  0  0
 24 26  1  0  0  0  0
 26 17  1  0  0  0  0
 26 27  1  1  0  0  0
 28 29  1  1  0  0  0
 28 30  1  0  0  0  0
 30 31  1  1  0  0  0
M  END
>  <CHROM.1>
176.87978358,66.57413116,167.69448884,-148.80367707,90.39253814,-53.59231594
38.09675640,117.20900863,67.43562035,-72.70074521,-65.43970227,58.09708165
61.99248933,-85.99104973,-61.71355580,-60.75443150,1.25450383,5.12221116
1.98848999,0.31132607,0.31930960,-0.26870799

>  <Name>
lig.pdb

>  <RI>
3.32461e+07

>  <Rbt.Current_Directory>
/home/itssahil/PROJECTS/Mol_Feturizer/New_Systems/rnas/2n0j

>  <Rbt.Executable>
rbdock ($Id: //depot/dev/client3/rdock/2013.1/src/exe/rbdock.cxx#4 $)

>  <Rbt.Library>
libRbt.so (2013.1, Build901 2013/11/27)

>  <Rbt.Parameter_File>
/export/apps/rDock/src/rDock_2013.1_src/data/scripts/dock_solv.prm

>  <Rbt.Receptor>
prm/pocket_docking_7.prm

>  <SCORE>
-45.8355

>  <SCORE.INTER>
-49.0916

>  <SCORE.INTER.CONST>
1

>  <SCORE.INTER.POLAR>
-5.57574

>  <SCORE.INTER.ROT>
6

>  <SCORE.INTER.SOLV>
19.8829

>  <SCORE.INTER.VDW>
-28.3696

>  <SCORE.INTER.norm>
-1.5836

>  <SCORE.INTRA>
3.25617

>  <SCORE.INTRA.DIHEDRAL>
-8.58139

>  <SCORE.INTRA.DIHEDRAL.0>
28.0161

>  <SCORE.INTRA.POLAR>
1.03393

>  <SCORE.INTRA.POLAR.0>
-1.05798

>  <SCORE.INTRA.REPUL>
0

>  <SCORE.INTRA.REPUL.0>
0

>  <SCORE.INTRA.SOLV>
0.997199

>  <SCORE.INTRA.SOLV.lig_0>
-42.5945

>  <SCORE.INTRA.VDW>
3.5329

>  <SCORE.INTRA.VDW.0>
-5.13869

>  <SCORE.INTRA.norm>
0.105038

>  <SCORE.RESTR>
0

>  <SCORE.RESTR.CAVITY>
0

>  <SCORE.RESTR.norm>
0

>  <SCORE.SYSTEM>
0

>  <SCORE.SYSTEM.CONST>
0

>  <SCORE.SYSTEM.DIHEDRAL>
0

>  <SCORE.SYSTEM.SOLV>
0

>  <SCORE.SYSTEM.norm>
0

>  <SCORE.heavy>
31

>  <SCORE.norm>
-1.47856

>  <RMSD>
7.197

$$$$
lig.pdb
 OpenBabel11021811453D
libRbt.so/2013.1/901 2013/11/27
 31 33  0  0  0  0  0  0  0  0999 V2000
   -1.3736    0.8467    0.6078 O   0  0  0  0  0  0  0  0  0  0  0  0
   -0.1959    0.0905    0.8113 C   0  0  0  0  0  0  0  0  0  0  0  0
    1.0192    0.9973    1.0486 C   0  0  1  0  0  0  0  0  0  0  0  0
    0.6786    2.3714    0.9537 O   0  0  0  0  0  0  0  0  0  0  0  0
    1.5873    3.1445    1.7316 C   0  0  1  0  0  0  0  0  0  0  0  0
    0.8668    4.0666    2.5406 O   0  0  0  0  0  0  0  0  0  0  0  0
    0.3001    5.1929    1.8902 C   0  0  2  0  0  0  0  0  0  0  0  0
    1.3872    6.2755    1.7977 C   0  0  1  0  0  0  0  0  0  0  0  0
    2.3893    5.8693    0.8789 O   0  0  0  0  0  0  0  0  0  0  0  0
    0.8693    7.6451    1.3331 C   0  0  2  0  0  0  0  0  0  0  0  0
    1.9411    8.6524    1.3613 N   0  0  0  0  0  0  0  0  0  0  0  0
   -0.2739    8.0954    2.2350 C   0  0  0  0  0  0  0  0  0  0  0  0
   -1.3691    7.0360    2.2428 C   0  0  2  0  0  0  0  0  0  0  0  0
   -2.4776    7.5192    3.0731 N   0  0  0  0  0  0  0  0  0  0  0  0
   -0.8120    5.6909    2.7566 C   0  0  1  0  0  0  0  0  0  0  0  0
   -1.9238    4.7825    2.7365 O   0  0  0  0  0  0  0  0  0  0  0  0
   -1.9171    3.7269    3.6916 C   0  0  1  0  0  0  0  0  0  0  0  0
   -2.0368    4.2440    5.0141 O   0  0  0  0  0  0  0  0  0  0  0  0
   -3.2942    4.8254    5.3522 C   0  0  2  0  0  0  0  0  0  0  0  0
   -3.2381    5.3221    6.8030 C   0  0  0  0  0  0  0  0  0  0  0  0
   -3.7083    6.6949    6.9206 N   0  0  0  0  0  0  0  0  0  0  0  0
   -4.4322    3.7998    5.1952 C   0  0  1  0  0  0  0  0  0  0  0  0
   -5.6754    4.4163    5.4796 O   0  0  0  0  0  0  0  0  0  0  0  0
   -4.4276    3.2747    3.7542 C   0  0  2  0  0  0  0  0  0  0  0  0
   -5.4071    2.2647    3.6010 O   0  0  0  0  0  0  0  0  0  0  0  0
   -3.0415    2.7331    3.3791 C   0  0  1  0  0  0  0  0  0  0  0  0
   -3.0154    2.3517    1.9598 N   0  0  0  0  0  0  0  0  0  0  0  0
    2.3517    2.1613    2.6301 C   0  0  2  0  0  0  0  0  0  0  0  0
    3.6924    2.0511    2.1897 O   0  0  0  0  0  0  0  0  0  0  0  0
    1.5570    0.8662    2.4700 C   0  0  2  0  0  0  0  0  0  0  0  0
    2.3246   -0.3020    2.6828 O   0  0  0  0  0  0  0  0  0  0  0  0
  2  1  1  0  0  0  0
  3  2  1  1  0  0  0
  3 30  1  0  0  0  0
  4  5  1  0  0  0  0
  4  3  1  0  0  0  0
  5 28  1  0  0  0  0
  5  6  1  1  0  0  0
  7  6  1  1  0  0  0
  8  7  1  0  0  0  0
  8  9  1  6  0  0  0
 10 11  1  1  0  0  0
 10  8  1  0  0  0  0
 12 10  1  0  0  0  0
 13 12  1  0  0  0  0
 13 15  1  0  0  0  0
 13 14  1  1  0  0  0
 15  7  1  0  0  0  0
 15 16  1  6  0  0  0
 17 16  1  6  0  0  0
 18 17  1  0  0  0  0
 19 20  1  1  0  0  0
 19 18  1  0  0  0  0
 20 21  1  0  0  0  0
 22 24  1  0  0  0  0
 22 19  1  0  0  0  0
 22 23  1  6  0  0  0
 24 25  1  1  0  0  0
 24 26  1  0  0  0  0
 26 17  1  0  0  0  0
 26 27  1  6  0  0  0
 28 29  1  6  0  0  0
 28 30  1  0  0  0  0
 30 31  1  6  0  0  0
M  END
>  <CHROM.1>
70.61750931,-2.34668790,-74.11962518,-84.94075318,66.51506465,-55.86565014
-142.68033732,88.30326632,66.00507893,130.31126425,153.60099842,55.40133163
68.04530231,-178.26745394,68.45221667,49.18783075,-0.90900817,4.08925787
2.86936564,0.38385346,-0.49165658,-3.03748519

>  <Name>
lig.pdb

>  <RI>
0

>  <Rbt.Current_Directory>
/home/itssahil/PROJECTS/Mol_Feturizer/New_Systems/rnas/2n0j

>  <Rbt.Executable>
rbdock ($Id: //depot/dev/client3/rdock/2013.1/src/exe/rbdock.cxx#4 $)

>  <Rbt.Library>
libRbt.so (2013.1, Build901 2013/11/27)

>  <Rbt.Parameter_File>
/export/apps/rDock/src/rDock_2013.1_src/data/scripts/dock_solv.prm

>  <Rbt.Receptor>
prm/pocket_docking_5.prm

>  <SCORE>
-43.751

>  <SCORE.INTER>
-43.9875

>  <SCORE.INTER.CONST>
1

>  <SCORE.INTER.POLAR>
-5.2115

>  <SCORE.INTER.ROT>
6

>  <SCORE.INTER.SOLV>
16.9842

>  <SCORE.INTER.VDW>
-25.2147

>  <SCORE.INTER.norm>
-1.41895

>  <SCORE.INTRA>
0.236521

>  <SCORE.INTRA.DIHEDRAL>
-4.45686

>  <SCORE.INTRA.DIHEDRAL.0>
28.0161

>  <SCORE.INTRA.POLAR>
0.171243

>  <SCORE.INTRA.POLAR.0>
-1.05798

>  <SCORE.INTRA.REPUL>
0

>  <SCORE.INTRA.REPUL.0>
0

>  <SCORE.INTRA.SOLV>
1.13933

>  <SCORE.INTRA.SOLV.lig_0>
-42.5945

>  <SCORE.INTRA.VDW>
1.31306

>  <SCORE.INTRA.VDW.0>
-5.13869

>  <SCORE.INTRA.norm>
0.00762971

>  <SCORE.RESTR>
0

>  <SCORE.RESTR.CAVITY>
0

>  <SCORE.RESTR.norm>
0

>  <SCORE.SYSTEM>
0

>  <SCORE.SYSTEM.CONST>
0

>  <SCORE.SYSTEM.DIHEDRAL>
0

>  <SCORE.SYSTEM.SOLV>
0

>  <SCORE.SYSTEM.norm>
0

>  <SCORE.heavy>
31

>  <SCORE.norm>
-1.41132

>  <RMSD>
7.202

$$$$
lig.pdb
 OpenBabel11021811453D
libRbt.so/2013.1/901 2013/11/27
 31 33  0  0  0  0  0  0  0  0999 V2000
   -0.3297   -2.3557    1.7541 O   0  0  0  0  0  0  0  0  0  0  0  0
   -0.4481   -0.9740    1.4767 C   0  0  0  0  0  0  0  0  0  0  0  0
    0.8743   -0.2363    1.7259 C   0  0  1  0  0  0  0  0  0  0  0  0
    0.7161    1.1715    1.6472 O   0  0  0  0  0  0  0  0  0  0  0  0
    1.7160    1.8103    2.4351 C   0  0  1  0  0  0  0  0  0  0  0  0
    1.1200    2.8089    3.2544 O   0  0  0  0  0  0  0  0  0  0  0  0
    0.3761    3.8241    2.5996 C   0  0  2  0  0  0  0  0  0  0  0  0
    1.3735    4.8661    2.0689 C   0  0  1  0  0  0  0  0  0  0  0  0
    2.1257    4.3083    1.0029 O   0  0  0  0  0  0  0  0  0  0  0  0
    0.7161    6.1505    1.5413 C   0  0  2  0  0  0  0  0  0  0  0  0
    1.7311    7.1375    1.1416 N   0  0  0  0  0  0  0  0  0  0  0  0
   -0.1781    6.7508    2.6198 C   0  0  0  0  0  0  0  0  0  0  0  0
   -1.2052    5.7182    3.0679 C   0  0  2  0  0  0  0  0  0  0  0  0
   -2.0848    6.3393    4.0641 N   0  0  0  0  0  0  0  0  0  0  0  0
   -0.4984    4.4655    3.6288 C   0  0  1  0  0  0  0  0  0  0  0  0
   -1.5529    3.5778    4.0309 O   0  0  0  0  0  0  0  0  0  0  0  0
   -1.6471    3.2673    5.4171 C   0  0  1  0  0  0  0  0  0  0  0  0
   -2.7209    3.9833    6.0213 O   0  0  0  0  0  0  0  0  0  0  0  0
   -4.0361    3.5962    5.6293 C   0  0  2  0  0  0  0  0  0  0  0  0
   -5.0542    4.4675    6.3770 C   0  0  0  0  0  0  0  0  0  0  0  0
   -4.9054    4.3506    7.8206 N   0  0  0  0  0  0  0  0  0  0  0  0
   -4.2877    2.1105    5.9469 C   0  0  1  0  0  0  0  0  0  0  0  0
   -5.5772    1.7358    5.4958 O   0  0  0  0  0  0  0  0  0  0  0  0
   -3.2211    1.2670    5.2374 C   0  0  2  0  0  0  0  0  0  0  0  0
   -3.3722   -0.0977    5.5804 O   0  0  0  0  0  0  0  0  0  0  0  0
   -1.8127    1.7549    5.6032 C   0  0  1  0  0  0  0  0  0  0  0  0
   -0.8060    1.0239    4.8204 N   0  0  0  0  0  0  0  0  0  0  0  0
    2.3434    0.7253    3.3224 C   0  0  2  0  0  0  0  0  0  0  0  0
    3.6593    0.4463    2.8819 O   0  0  0  0  0  0  0  0  0  0  0  0
    1.3870   -0.4531    3.1462 C   0  0  2  0  0  0  0  0  0  0  0  0
    1.9951   -1.7139    3.3456 O   0  0  0  0  0  0  0  0  0  0  0  0
  2  1  1  0  0  0  0
  3  2  1  1  0  0  0
  3 30  1  0  0  0  0
  4  5  1  0  0  0  0
  4  3  1  0  0  0  0
  5 28  1  0  0  0  0
  5  6  1  1  0  0  0
  7  6  1  1  0  0  0
  8  7  1  0  0  0  0
  8  9  1  6  0  0  0
 10 11  1  1  0  0  0
 10  8  1  0  0  0  0
 12 10  1  0  0  0  0
 13 12  1  0  0  0  0
 13 15  1  0  0  0  0
 13 14  1  1  0  0  0
 15  7  1  0  0  0  0
 15 16  1  6  0  0  0
 17 16  1  6  0  0  0
 18 17  1  0  0  0  0
 19 20  1  1  0  0  0
 19 18  1  0  0  0  0
 20 21  1  0  0  0  0
 22 24  1  0  0  0  0
 22 19  1  0  0  0  0
 22 23  1  6  0  0  0
 24 25  1  1  0  0  0
 24 26  1  0  0  0  0
 26 17  1  0  0  0  0
 26 27  1  6  0  0  0
 28 29  1  6  0  0  0
 28 30  1  0  0  0  0
 30 31  1  6  0  0  0
M  END
>  <CHROM.1>
-64.69733640,-171.11416757,-56.89084010,-80.92966544,46.48450956,-58.42270108
-43.55615449,122.98500113,103.93288935,-58.07874298,174.43930701,54.77809657
-62.20364876,-98.79734429,-58.05899906,-62.27272726,-0.76406257,2.60358739
3.70475928,0.29433194,-0.61245604,3.06362561

>  <Name>
lig.pdb

>  <RI>
3.33129e+07

>  <Rbt.Current_Directory>
/home/itssahil/PROJECTS/Mol_Feturizer/New_Systems/rnas/2n0j

>  <Rbt.Executable>
rbdock ($Id: //depot/dev/client3/rdock/2013.1/src/exe/rbdock.cxx#4 $)

>  <Rbt.Library>
libRbt.so (2013.1, Build901 2013/11/27)

>  <Rbt.Parameter_File>
/export/apps/rDock/src/rDock_2013.1_src/data/scripts/dock_solv.prm

>  <Rbt.Receptor>
prm/pocket_docking_4.prm

>  <SCORE>
-34.1545

>  <SCORE.INTER>
-29.9461

>  <SCORE.INTER.CONST>
1

>  <SCORE.INTER.POLAR>
-3.42035

>  <SCORE.INTER.ROT>
6

>  <SCORE.INTER.SOLV>
14.7792

>  <SCORE.INTER.VDW>
-21.0893

>  <SCORE.INTER.norm>
-0.966004

>  <SCORE.INTRA>
-4.45391

>  <SCORE.INTRA.DIHEDRAL>
-7.79516

>  <SCORE.INTRA.DIHEDRAL.0>
28.0161

>  <SCORE.INTRA.POLAR>
-0.524548

>  <SCORE.INTRA.POLAR.0>
-1.05798

>  <SCORE.INTRA.REPUL>
0

>  <SCORE.INTRA.REPUL.0>
0

>  <SCORE.INTRA.SOLV>
1.25727

>  <SCORE.INTRA.SOLV.lig_0>
-42.5945

>  <SCORE.INTRA.VDW>
0.598496

>  <SCORE.INTRA.VDW.0>
-5.13869

>  <SCORE.INTRA.norm>
-0.143675

>  <SCORE.RESTR>
0.245583

>  <SCORE.RESTR.CAVITY>
0.245583

>  <SCORE.RESTR.norm>
0.00792203

>  <SCORE.SYSTEM>
0

>  <SCORE.SYSTEM.CONST>
0

>  <SCORE.SYSTEM.DIHEDRAL>
0

>  <SCORE.SYSTEM.SOLV>
0

>  <SCORE.SYSTEM.norm>
0

>  <SCORE.heavy>
31

>  <SCORE.norm>
-1.10176

>  <RMSD>
7.206

$$$$
lig.pdb
 OpenBabel11021811453D
libRbt.so/2013.1/901 2013/11/27
 31 33  0  0  0  0  0  0  0  0999 V2000
    3.6586    1.7523    2.5814 O   0  0  0  0  0  0  0  0  0  0  0  0
    3.8090    2.5736    1.4400 C   0  0  0  0  0  0  0  0  0  0  0  0
    2.7378    3.6717    1.3937 C   0  0  1  0  0  0  0  0  0  0  0  0
    1.4314    3.1413    1.5524 O   0  0  0  0  0  0  0  0  0  0  0  0
    0.5728    4.1388    2.0967 C   0  0  1  0  0  0  0  0  0  0  0  0
   -0.1739    3.5950    3.1786 O   0  0  0  0  0  0  0  0  0  0  0  0
   -1.5790    3.7906    3.1582 C   0  0  2  0  0  0  0  0  0  0  0  0
   -1.8448    5.2923    3.3483 C   0  0  1  0  0  0  0  0  0  0  0  0
   -1.4248    6.0021    2.1937 O   0  0  0  0  0  0  0  0  0  0  0  0
   -3.3216    5.6417    3.5874 C   0  0  2  0  0  0  0  0  0  0  0  0
   -3.4876    7.0784    3.8567 N   0  0  0  0  0  0  0  0  0  0  0  0
   -3.8550    4.8393    4.7684 C   0  0  0  0  0  0  0  0  0  0  0  0
   -3.6473    3.3514    4.5135 C   0  0  2  0  0  0  0  0  0  0  0  0
   -4.2180    2.6028    5.6385 N   0  0  0  0  0  0  0  0  0  0  0  0
   -2.1466    3.0433    4.3222 C   0  0  1  0  0  0  0  0  0  0  0  0
   -2.0704    1.6256    4.1079 O   0  0  0  0  0  0  0  0  0  0  0  0
   -0.7793    1.0286    4.1660 C   0  0  1  0  0  0  0  0  0  0  0  0
   -0.4234    0.7294    5.5130 O   0  0  0  0  0  0  0  0  0  0  0  0
   -1.1652   -0.3119    6.1446 C   0  0  2  0  0  0  0  0  0  0  0  0
   -0.6461   -0.4934    7.5772 C   0  0  0  0  0  0  0  0  0  0  0  0
   -1.3889   -1.5208    8.2929 N   0  0  0  0  0  0  0  0  0  0  0  0
   -1.0248   -1.6339    5.3672 C   0  0  1  0  0  0  0  0  0  0  0  0
   -1.8161   -2.6363    5.9800 O   0  0  0  0  0  0  0  0  0  0  0  0
   -1.4927   -1.4093    3.9239 C   0  0  2  0  0  0  0  0  0  0  0  0
   -1.2938   -2.5836    3.1595 O   0  0  0  0  0  0  0  0  0  0  0  0
   -0.7455   -0.2285    3.2895 C   0  0  1  0  0  0  0  0  0  0  0  0
   -1.2917    0.0565    1.9550 N   0  0  0  0  0  0  0  0  0  0  0  0
    1.4753    5.2691    2.6126 C   0  0  2  0  0  0  0  0  0  0  0  0
    1.3461    6.4054    1.7786 O   0  0  0  0  0  0  0  0  0  0  0  0
    2.8675    4.6416    2.5639 C   0  0  2  0  0  0  0  0  0  0  0  0
    3.9107    5.5834    2.4096 O   0  0  0  0  0  0  0  0  0  0  0  0
  2  1  1  0  0  0  0
  3  2  1  1  0  0  0
  3 30  1  0  0  0  0
  4  5  1  0  0  0  0
  4  3  1  0  0  0  0
  5 28  1  0  0  0  0
  5  6  1  1  0  0  0
  7  6  1  1  0  0  0
  8  7  1  0  0  0  0
  8  9  1  6  0  0  0
 10 11  1  1  0  0  0
 10  8  1  0  0  0  0
 12 10  1  0  0  0  0
 13 12  1  0  0  0  0
 13 15  1  0  0  0  0
 13 14  1  1  0  0  0
 15  7  1  0  0  0  0
 15 16  1  6  0  0  0
 17 16  1  1  0  0  0
 18 17  1  0  0  0  0
 19 20  1  1  0  0  0
 19 18  1  0  0  0  0
 20 21  1  0  0  0  0
 22 24  1  0  0  0  0
 22 19  1  0  0  0  0
 22 23  1  1  0  0  0
 24 25  1  6  0  0  0
 24 26  1  0  0  0  0
 26 17  1  0  0  0  0
 26 27  1  6  0  0  0
 28 29  1  6  0  0  0
 28 30  1  0  0  0  0
 30 31  1  6  0  0  0
M  END
>  <CHROM.1>
-164.36225850,-51.21781623,-129.57731428,-67.27108448,90.73591174,-156.31470443
-59.26617332,71.34979458,84.37597121,178.41243382,29.83560994,-174.87326761
-45.56660928,69.47380150,179.94036952,-164.86456273,-0.57318798,2.40191317
3.76307331,-1.19272546,-0.42283976,2.82157989

>  <Name>
lig.pdb

>  <RI>
0

>  <Rbt.Current_Directory>
/home/itssahil/PROJECTS/Mol_Feturizer/New_Systems/rnas/2n0j

>  <Rbt.Executable>
rbdock ($Id: //depot/dev/client3/rdock/2013.1/src/exe/rbdock.cxx#4 $)

>  <Rbt.Library>
libRbt.so (2013.1, Build901 2013/11/27)

>  <Rbt.Parameter_File>
/export/apps/rDock/src/rDock_2013.1_src/data/scripts/dock_solv.prm

>  <Rbt.Receptor>
prm/pocket_docking_8.prm

>  <SCORE>
-42.2792

>  <SCORE.INTER>
-43.5023

>  <SCORE.INTER.CONST>
1

>  <SCORE.INTER.POLAR>
-5.78198

>  <SCORE.INTER.ROT>
6

>  <SCORE.INTER.SOLV>
18.3982

>  <SCORE.INTER.VDW>
-23.461

>  <SCORE.INTER.norm>
-1.4033

>  <SCORE.INTRA>
1.2231

>  <SCORE.INTRA.DIHEDRAL>
-6.94182

>  <SCORE.INTRA.DIHEDRAL.0>
28.0161

>  <SCORE.INTRA.POLAR>
0.123671

>  <SCORE.INTRA.POLAR.0>
-1.05798

>  <SCORE.INTRA.REPUL>
0.00045677

>  <SCORE.INTRA.REPUL.0>
0

>  <SCORE.INTRA.SOLV>
1.39093

>  <SCORE.INTRA.SOLV.lig_0>
-42.5945

>  <SCORE.INTRA.VDW>
3.57578

>  <SCORE.INTRA.VDW.0>
-5.13869

>  <SCORE.INTRA.norm>
0.039455

>  <SCORE.RESTR>
0

>  <SCORE.RESTR.CAVITY>
0

>  <SCORE.RESTR.norm>
0

>  <SCORE.SYSTEM>
0

>  <SCORE.SYSTEM.CONST>
0

>  <SCORE.SYSTEM.DIHEDRAL>
0

>  <SCORE.SYSTEM.SOLV>
0

>  <SCORE.SYSTEM.norm>
0

>  <SCORE.heavy>
31

>  <SCORE.norm>
-1.36384

>  <RMSD>
7.209

$$$$
lig.pdb
 OpenBabel11021811453D
libRbt.so/2013.1/901 2013/11/27
 31 33  0  0  0  0  0  0  0  0999 V2000
    5.5617    3.1269    1.7991 O   0  0  0  0  0  0  0  0  0  0  0  0
    4.5104    4.0727    1.8197 C   0  0  0  0  0  0  0  0  0  0  0  0
    3.2927    3.5413    2.5879 C   0  0  1  0  0  0  0  0  0  0  0  0
    2.1545    4.3698    2.4107 O   0  0  0  0  0  0  0  0  0  0  0  0
    0.9697    3.6000    2.5906 C   0  0  1  0  0  0  0  0  0  0  0  0
    0.0610    3.8570    1.5266 O   0  0  0  0  0  0  0  0  0  0  0  0
   -0.4852    5.1638    1.4434 C   0  0  2  0  0  0  0  0  0  0  0  0
    0.6842    6.1514    1.3043 C   0  0  1  0  0  0  0  0  0  0  0  0
    1.2917    5.9968    0.0313 O   0  0  0  0  0  0  0  0  0  0  0  0
    0.2777    7.6266    1.4406 C   0  0  2  0  0  0  0  0  0  0  0  0
    1.4564    8.5056    1.3943 N   0  0  0  0  0  0  0  0  0  0  0  0
   -0.4605    7.8369    2.7574 C   0  0  0  0  0  0  0  0  0  0  0  0
   -1.6589    6.8985    2.8292 C   0  0  2  0  0  0  0  0  0  0  0  0
   -2.3805    7.1605    4.0792 N   0  0  0  0  0  0  0  0  0  0  0  0
   -1.1971    5.4285    2.7312 C   0  0  1  0  0  0  0  0  0  0  0  0
   -2.3953    4.6430    2.8257 O   0  0  0  0  0  0  0  0  0  0  0  0
   -2.3234    3.4374    3.5793 C   0  0  1  0  0  0  0  0  0  0  0  0
   -2.1298    3.7194    4.9627 O   0  0  0  0  0  0  0  0  0  0  0  0
   -3.2268    4.3267    5.6418 C   0  0  2  0  0  0  0  0  0  0  0  0
   -2.8395    4.5523    7.1093 C   0  0  0  0  0  0  0  0  0  0  0  0
   -1.6457    5.3770    7.2304 N   0  0  0  0  0  0  0  0  0  0  0  0
   -4.4806    3.4359    5.5639 C   0  0  1  0  0  0  0  0  0  0  0  0
   -5.5702    4.0861    6.1937 O   0  0  0  0  0  0  0  0  0  0  0  0
   -4.8100    3.1760    4.0886 C   0  0  2  0  0  0  0  0  0  0  0  0
   -5.9068    2.2876    3.9840 O   0  0  0  0  0  0  0  0  0  0  0  0
   -3.5902    2.6043    3.3535 C   0  0  1  0  0  0  0  0  0  0  0  0
   -3.8785    2.4799    1.9176 N   0  0  0  0  0  0  0  0  0  0  0  0
    1.3900    2.1233    2.5615 C   0  0  2  0  0  0  0  0  0  0  0  0
    1.2810    1.5673    3.8587 O   0  0  0  0  0  0  0  0  0  0  0  0
    2.8296    2.1896    2.0539 C   0  0  2  0  0  0  0  0  0  0  0  0
    3.6322    1.1051    2.4770 O   0  0  0  0  0  0  0  0  0  0  0  0
  2  1  1  0  0  0  0
  3  2  1  6  0  0  0
  3 30  1  0  0  0  0
  4  5  1  0  0  0  0
  4  3  1  0  0  0  0
  5 28  1  0  0  0  0
  5  6  1  6  0  0  0
  7  6  1  1  0  0  0
  8  7  1  0  0  0  0
  8  9  1  6  0  0  0
 10 11  1  1  0  0  0
 10  8  1  0  0  0  0
 12 10  1  0  0  0  0
 13 12  1  0  0  0  0
 13 15  1  0  0  0  0
 13 14  1  1  0  0  0
 15  7  1  0  0  0  0
 15 16  1  6  0  0  0
 17 16  1  6  0  0  0
 18 17  1  0  0  0  0
 19 20  1  1  0  0  0
 19 18  1  0  0  0  0
 20 21  1  0  0  0  0
 22 24  1  0  0  0  0
 22 19  1  0  0  0  0
 22 23  1  6  0  0  0
 24 25  1  1  0  0  0
 24 26  1  0  0  0  0
 26 17  1  0  0  0  0
 26 27  1  6  0  0  0
 28 29  1  1  0  0  0
 28 30  1  0  0  0  0
 30 31  1  1  0  0  0
M  END
>  <CHROM.1>
179.20271493,-169.29919866,-66.05995138,58.64937501,-61.78377583,52.69073368
-48.37728452,98.23486615,67.48648653,57.70501290,-176.22676969,59.50675397
167.89488889,75.81170656,176.94705527,-44.23485420,-0.61641525,4.32737058
3.17152996,-0.11143930,-0.39135668,2.88672556

>  <Name>
lig.pdb

>  <RI>
3.50357e+07

>  <Rbt.Current_Directory>
/home/itssahil/PROJECTS/Mol_Feturizer/New_Systems/rnas/2n0j

>  <Rbt.Executable>
rbdock ($Id: //depot/dev/client3/rdock/2013.1/src/exe/rbdock.cxx#4 $)

>  <Rbt.Library>
libRbt.so (2013.1, Build901 2013/11/27)

>  <Rbt.Parameter_File>
/export/apps/rDock/src/rDock_2013.1_src/data/scripts/dock_solv.prm

>  <Rbt.Receptor>
prm/pocket_docking_3.prm

>  <SCORE>
-38.0821

>  <SCORE.INTER>
-34.5838

>  <SCORE.INTER.CONST>
1

>  <SCORE.INTER.POLAR>
-4.30539

>  <SCORE.INTER.ROT>
6

>  <SCORE.INTER.SOLV>
19.6202

>  <SCORE.INTER.VDW>
-22.8446

>  <SCORE.INTER.norm>
-1.1156

>  <SCORE.INTRA>
-4.21497

>  <SCORE.INTRA.DIHEDRAL>
-18.6298

>  <SCORE.INTRA.DIHEDRAL.0>
28.0161

>  <SCORE.INTRA.POLAR>
0.269885

>  <SCORE.INTRA.POLAR.0>
-1.05798

>  <SCORE.INTRA.REPUL>
0.122432

>  <SCORE.INTRA.REPUL.0>
0

>  <SCORE.INTRA.SOLV>
0.630498

>  <SCORE.INTRA.SOLV.lig_0>
-42.5945

>  <SCORE.INTRA.VDW>
3.25493

>  <SCORE.INTRA.VDW.0>
-5.13869

>  <SCORE.INTRA.norm>
-0.135967

>  <SCORE.RESTR>
0.716612

>  <SCORE.RESTR.CAVITY>
0.716612

>  <SCORE.RESTR.norm>
0.0231165

>  <SCORE.SYSTEM>
0

>  <SCORE.SYSTEM.CONST>
0

>  <SCORE.SYSTEM.DIHEDRAL>
0

>  <SCORE.SYSTEM.SOLV>
0

>  <SCORE.SYSTEM.norm>
0

>  <SCORE.heavy>
31

>  <SCORE.norm>
-1.22846

>  <RMSD>
7.212

$$$$
lig.pdb
 OpenBabel11021811453D
libRbt.so/2013.1/901 2013/11/27
 31 33  0  0  0  0  0  0  0  0999 V2000
   -0.5239   -0.8396    1.7927 O   0  0  0  0  0  0  0  0  0  0  0  0
    0.6488   -0.4189    2.4620 C   0  0  0  0  0  0  0  0  0  0  0  0
    1.3270    0.7455    1.7275 C   0  0  1  0  0  0  0  0  0  0  0  0
    0.4650    1.8659    1.6054 O   0  0  0  0  0  0  0  0  0  0  0  0
    1.2398    3.0563    1.4986 C   0  0  1  0  0  0  0  0  0  0  0  0
    0.7321    4.0440    2.3877 O   0  0  0  0  0  0  0  0  0  0  0  0
    0.1720    5.2110    1.8071 C   0  0  2  0  0  0  0  0  0  0  0  0
    1.2932    6.2545    1.6803 C   0  0  1  0  0  0  0  0  0  0  0  0
    2.2216    5.8408    0.6901 O   0  0  0  0  0  0  0  0  0  0  0  0
    0.8025    7.6568    1.2892 C   0  0  2  0  0  0  0  0  0  0  0  0
    1.9128    8.6218    1.2816 N   0  0  0  0  0  0  0  0  0  0  0  0
   -0.2658    8.1204    2.2725 C   0  0  0  0  0  0  0  0  0  0  0  0
   -1.3993    7.1030    2.3159 C   0  0  2  0  0  0  0  0  0  0  0  0
   -2.4361    7.6005    3.2266 N   0  0  0  0  0  0  0  0  0  0  0  0
   -0.8656    5.7222    2.7544 C   0  0  1  0  0  0  0  0  0  0  0  0
   -2.0114    4.8571    2.7755 O   0  0  0  0  0  0  0  0  0  0  0  0
   -1.9278    3.6884    3.5839 C   0  0  1  0  0  0  0  0  0  0  0  0
   -1.5535    4.0244    4.9172 O   0  0  0  0  0  0  0  0  0  0  0  0
   -2.5209    4.7403    5.6821 C   0  0  2  0  0  0  0  0  0  0  0  0
   -1.9483    5.0107    7.0798 C   0  0  0  0  0  0  0  0  0  0  0  0
   -2.6413    6.1061    7.7428 N   0  0  0  0  0  0  0  0  0  0  0  0
   -3.8295    3.9370    5.8006 C   0  0  1  0  0  0  0  0  0  0  0  0
   -4.7926    4.6926    6.5133 O   0  0  0  0  0  0  0  0  0  0  0  0
   -4.3478    3.6279    4.3905 C   0  0  2  0  0  0  0  0  0  0  0  0
   -5.5038    2.8147    4.4643 O   0  0  0  0  0  0  0  0  0  0  0  0
   -3.2631    2.9362    3.5539 C   0  0  1  0  0  0  0  0  0  0  0  0
   -3.7273    2.7612    2.1703 N   0  0  0  0  0  0  0  0  0  0  0  0
    2.6753    2.6904    1.9031 C   0  0  2  0  0  0  0  0  0  0  0  0
    3.5142    2.7062    0.7632 O   0  0  0  0  0  0  0  0  0  0  0  0
    2.5127    1.2985    2.5118 C   0  0  2  0  0  0  0  0  0  0  0  0
    3.6760    0.4997    2.4234 O   0  0  0  0  0  0  0  0  0  0  0  0
  2  1  1  0  0  0  0
  3  2  1  1  0  0  0
  3 30  1  0  0  0  0
  4  5  1  0  0  0  0
  4  3  1  0  0  0  0
  5 28  1  0  0  0  0
  5  6  1  1  0  0  0
  7  6  1  1  0  0  0
  8  7  1  0  0  0  0
  8  9  1  6  0  0  0
 10 11  1  1  0  0  0
 10  8  1  0  0  0  0
 12 10  1  0  0  0  0
 13 12  1  0  0  0  0
 13 15  1  0  0  0  0
 13 14  1  1  0  0  0
 15  7  1  0  0  0  0
 15 16  1  6  0  0  0
 17 16  1  6  0  0  0
 18 17  1  0  0  0  0
 19 20  1  1  0  0  0
 19 18  1  0  0  0  0
 20 21  1  0  0  0  0
 22 24  1  0  0  0  0
 22 19  1  0  0  0  0
 22 23  1  1  0  0  0
 24 25  1  1  0  0  0
 24 26  1  0  0  0  0
 26 17  1  0  0  0  0
 26 27  1  6  0  0  0
 28 29  1  6  0  0  0
 28 30  1  0  0  0  0
 30 31  1  6  0  0  0
M  END
>  <CHROM.1>
-55.47938705,58.96516199,-114.61586783,-91.39826749,60.20522955,-58.64168375
11.12469089,81.38193588,53.18023356,159.83254478,45.98696211,66.62707928
67.68576219,-38.52380685,-173.91598447,50.48726207,-0.67337990,4.09249031
3.06871090,0.31957184,-0.58471744,3.12628548

>  <Name>
lig.pdb

>  <RI>
3.50357e+07

>  <Rbt.Current_Directory>
/home/itssahil/PROJECTS/Mol_Feturizer/New_Systems/rnas/2n0j

>  <Rbt.Executable>
rbdock ($Id: //depot/dev/client3/rdock/2013.1/src/exe/rbdock.cxx#4 $)

>  <Rbt.Library>
libRbt.so (2013.1, Build901 2013/11/27)

>  <Rbt.Parameter_File>
/export/apps/rDock/src/rDock_2013.1_src/data/scripts/dock_solv.prm

>  <Rbt.Receptor>
prm/pocket_docking_3.prm

>  <SCORE>
-41.1128

>  <SCORE.INTER>
-41.9457

>  <SCORE.INTER.CONST>
1

>  <SCORE.INTER.POLAR>
-5.03758

>  <SCORE.INTER.ROT>
6

>  <SCORE.INTER.SOLV>
16.6828

>  <SCORE.INTER.VDW>
-24.3328

>  <SCORE.INTER.norm>
-1.35309

>  <SCORE.INTRA>
0.422709

>  <SCORE.INTRA.DIHEDRAL>
-7.16384

>  <SCORE.INTRA.DIHEDRAL.0>
28.0161

>  <SCORE.INTRA.POLAR>
0.585131

>  <SCORE.INTRA.POLAR.0>
-1.05798

>  <SCORE.INTRA.REPUL>
0

>  <SCORE.INTRA.REPUL.0>
0

>  <SCORE.INTRA.SOLV>
0.0522175

>  <SCORE.INTRA.SOLV.lig_0>
-42.5945

>  <SCORE.INTRA.VDW>
1.98907

>  <SCORE.INTRA.VDW.0>
-5.13869

>  <SCORE.INTRA.norm>
0.0136358

>  <SCORE.RESTR>
0.410192

>  <SCORE.RESTR.CAVITY>
0.410192

>  <SCORE.RESTR.norm>
0.013232

>  <SCORE.SYSTEM>
0

>  <SCORE.SYSTEM.CONST>
0

>  <SCORE.SYSTEM.DIHEDRAL>
0

>  <SCORE.SYSTEM.SOLV>
0

>  <SCORE.SYSTEM.norm>
0

>  <SCORE.heavy>
31

>  <SCORE.norm>
-1.32622

>  <RMSD>
7.213

$$$$
lig.pdb
 OpenBabel11021811453D
libRbt.so/2013.1/901 2013/11/27
 31 33  0  0  0  0  0  0  0  0999 V2000
    4.6608    4.3474    2.5191 O   0  0  0  0  0  0  0  0  0  0  0  0
    4.5738    4.9527    1.2438 C   0  0  0  0  0  0  0  0  0  0  0  0
    3.2165    5.6392    1.0400 C   0  0  1  0  0  0  0  0  0  0  0  0
    2.1517    4.7022    1.0027 O   0  0  0  0  0  0  0  0  0  0  0  0
    0.9435    5.3343    1.4144 C   0  0  1  0  0  0  0  0  0  0  0  0
    0.2763    4.5221    2.3731 O   0  0  0  0  0  0  0  0  0  0  0  0
   -1.1417    4.5683    2.3858 C   0  0  2  0  0  0  0  0  0  0  0  0
   -1.5613    5.8384    3.1428 C   0  0  1  0  0  0  0  0  0  0  0  0
   -1.2292    6.9844    2.3749 O   0  0  0  0  0  0  0  0  0  0  0  0
   -3.0642    5.9154    3.4521 C   0  0  2  0  0  0  0  0  0  0  0  0
   -3.3770    7.1047    4.2595 N   0  0  0  0  0  0  0  0  0  0  0  0
   -3.4991    4.6630    4.2041 C   0  0  0  0  0  0  0  0  0  0  0  0
   -3.1394    3.4255    3.3911 C   0  0  2  0  0  0  0  0  0  0  0  0
   -3.6175    2.2406    4.1116 N   0  0  0  0  0  0  0  0  0  0  0  0
   -1.6166    3.3696    3.1427 C   0  0  1  0  0  0  0  0  0  0  0  0
   -1.3945    2.1670    2.3904 O   0  0  0  0  0  0  0  0  0  0  0  0
   -0.4616    1.2319    2.9213 C   0  0  1  0  0  0  0  0  0  0  0  0
   -1.0652    0.4441    3.9439 O   0  0  0  0  0  0  0  0  0  0  0  0
   -2.0683   -0.4769    3.5207 C   0  0  2  0  0  0  0  0  0  0  0  0
   -2.5990   -1.2318    4.7467 C   0  0  0  0  0  0  0  0  0  0  0  0
   -3.3179   -0.3482    5.6534 N   0  0  0  0  0  0  0  0  0  0  0  0
   -1.4976   -1.4773    2.4985 C   0  0  1  0  0  0  0  0  0  0  0  0
   -2.5253   -2.3429    2.0500 O   0  0  0  0  0  0  0  0  0  0  0  0
   -0.9196   -0.6950    1.3126 C   0  0  2  0  0  0  0  0  0  0  0  0
   -0.3083   -1.5827    0.3953 O   0  0  0  0  0  0  0  0  0  0  0  0
    0.0933    0.3517    1.7958 C   0  0  1  0  0  0  0  0  0  0  0  0
    0.5430    1.1782    0.6665 N   0  0  0  0  0  0  0  0  0  0  0  0
    1.3382    6.6708    2.0593 C   0  0  2  0  0  0  0  0  0  0  0  0
    0.9570    7.7420    1.2162 O   0  0  0  0  0  0  0  0  0  0  0  0
    2.8521    6.5382    2.2172 C   0  0  2  0  0  0  0  0  0  0  0  0
    3.5341    7.7767    2.2201 O   0  0  0  0  0  0  0  0  0  0  0  0
  2  1  1  0  0  0  0
  3  2  1  1  0  0  0
  3 30  1  0  0  0  0
  4  5  1  0  0  0  0
  4  3  1  0  0  0  0
  5 28  1  0  0  0  0
  5  6  1  1  0  0  0
  7  6  1  1  0  0  0
  8  7  1  0  0  0  0
  8  9  1  6  0  0  0
 10 11  1  1  0  0  0
 10  8  1  0  0  0  0
 12 10  1  0  0  0  0
 13 12  1  0  0  0  0
 13 15  1  0  0  0  0
 13 14  1  1  0  0  0
 15  7  1  0  0  0  0
 15 16  1  6  0  0  0
 17 16  1  6  0  0  0
 18 17  1  0  0  0  0
 19 20  1  1  0  0  0
 19 18  1  0  0  0  0
 20 21  1  0  0  0  0
 22 24  1  0  0  0  0
 22 19  1  0  0  0  0
 22 23  1  6  0  0  0
 24 25  1  6  0  0  0
 24 26  1  0  0  0  0
 26 17  1  0  0  0  0
 26 27  1  6  0  0  0
 28 29  1  6  0  0  0
 28 30  1  0  0  0  0
 30 31  1  6  0  0  0
M  END
>  <CHROM.1>
60.07867146,-66.19870339,-148.02190858,-79.76964765,74.36328035,-174.65798973
50.20777517,114.47498127,80.35364177,66.59487062,-64.39502400,173.47020597
-62.85921982,34.64364558,51.57644843,64.23754276,-0.42609047,3.21057007,2.56761562
-1.00612991,-0.42771971,-3.04716122

>  <Name>
lig.pdb

>  <RI>
3.50357e+07

>  <Rbt.Current_Directory>
/home/itssahil/PROJECTS/Mol_Feturizer/New_Systems/rnas/2n0j

>  <Rbt.Executable>
rbdock ($Id: //depot/dev/client3/rdock/2013.1/src/exe/rbdock.cxx#4 $)

>  <Rbt.Library>
libRbt.so (2013.1, Build901 2013/11/27)

>  <Rbt.Parameter_File>
/export/apps/rDock/src/rDock_2013.1_src/data/scripts/dock_solv.prm

>  <Rbt.Receptor>
prm/pocket_docking_3.prm

>  <SCORE>
-37.2536

>  <SCORE.INTER>
-38.25

>  <SCORE.INTER.CONST>
1

>  <SCORE.INTER.POLAR>
-5.24859

>  <SCORE.INTER.ROT>
6

>  <SCORE.INTER.SOLV>
14.399

>  <SCORE.INTER.VDW>
-20.4044

>  <SCORE.INTER.norm>
-1.23387

>  <SCORE.INTRA>
0.996393

>  <SCORE.INTRA.DIHEDRAL>
-9.41929

>  <SCORE.INTRA.DIHEDRAL.0>
28.0161

>  <SCORE.INTRA.POLAR>
0.656735

>  <SCORE.INTRA.POLAR.0>
-1.05798

>  <SCORE.INTRA.REPUL>
0

>  <SCORE.INTRA.REPUL.0>
0

>  <SCORE.INTRA.SOLV>
1.87946

>  <SCORE.INTRA.SOLV.lig_0>
-42.5945

>  <SCORE.INTRA.VDW>
2.53341

>  <SCORE.INTRA.VDW.0>
-5.13869

>  <SCORE.INTRA.norm>
0.0321417

>  <SCORE.RESTR>
0

>  <SCORE.RESTR.CAVITY>
0

>  <SCORE.RESTR.norm>
0

>  <SCORE.SYSTEM>
0

>  <SCORE.SYSTEM.CONST>
0

>  <SCORE.SYSTEM.DIHEDRAL>
0

>  <SCORE.SYSTEM.SOLV>
0

>  <SCORE.SYSTEM.norm>
0

>  <SCORE.heavy>
31

>  <SCORE.norm>
-1.20173

>  <RMSD>
7.214

$$$$
lig.pdb
 OpenBabel11021811453D
libRbt.so/2013.1/901 2013/11/27
 31 33  0  0  0  0  0  0  0  0999 V2000
   -0.8080    1.0161   -0.9934 O   0  0  0  0  0  0  0  0  0  0  0  0
   -0.4806    0.5524    0.3020 C   0  0  0  0  0  0  0  0  0  0  0  0
    0.8571    1.1303    0.7833 C   0  0  1  0  0  0  0  0  0  0  0  0
    0.8407    2.5488    0.8080 O   0  0  0  0  0  0  0  0  0  0  0  0
    1.7775    3.0215    1.7712 C   0  0  1  0  0  0  0  0  0  0  0  0
    1.1688    4.0123    2.5907 O   0  0  0  0  0  0  0  0  0  0  0  0
    0.4921    5.0709    1.9317 C   0  0  2  0  0  0  0  0  0  0  0  0
    1.5314    6.1515    1.5935 C   0  0  1  0  0  0  0  0  0  0  0  0
    2.4042    5.6752    0.5813 O   0  0  0  0  0  0  0  0  0  0  0  0
    0.9235    7.4694    1.0899 C   0  0  2  0  0  0  0  0  0  0  0  0
    1.9663    8.4856    0.8794 N   0  0  0  0  0  0  0  0  0  0  0  0
   -0.0922    7.9868    2.1016 C   0  0  0  0  0  0  0  0  0  0  0  0
   -1.1520    6.9217    2.3553 C   0  0  2  0  0  0  0  0  0  0  0  0
   -2.1441    7.4659    3.2886 N   0  0  0  0  0  0  0  0  0  0  0  0
   -0.4990    5.6330    2.8998 C   0  0  1  0  0  0  0  0  0  0  0  0
   -1.5823    4.7156    3.1153 O   0  0  0  0  0  0  0  0  0  0  0  0
   -1.5044    3.8769    4.2630 C   0  0  1  0  0  0  0  0  0  0  0  0
   -1.8732    4.5951    5.4372 O   0  0  0  0  0  0  0  0  0  0  0  0
   -3.2453    4.9688    5.5427 C   0  0  2  0  0  0  0  0  0  0  0  0
   -3.4543    5.7257    6.8610 C   0  0  0  0  0  0  0  0  0  0  0  0
   -3.6195    7.1554    6.6406 N   0  0  0  0  0  0  0  0  0  0  0  0
   -4.1559    3.7275    5.5035 C   0  0  1  0  0  0  0  0  0  0  0  0
   -5.5139    4.1278    5.5507 O   0  0  0  0  0  0  0  0  0  0  0  0
   -3.8837    2.9569    4.2056 C   0  0  2  0  0  0  0  0  0  0  0  0
   -4.6428    1.7627    4.1803 O   0  0  0  0  0  0  0  0  0  0  0  0
   -2.3885    2.6402    4.0668 C   0  0  1  0  0  0  0  0  0  0  0  0
   -2.1235    2.0163    2.7625 N   0  0  0  0  0  0  0  0  0  0  0  0
    2.1754    1.8151    2.6339 C   0  0  2  0  0  0  0  0  0  0  0  0
    3.5082    1.4363    2.3443 O   0  0  0  0  0  0  0  0  0  0  0  0
    1.1483    0.7572    2.2335 C   0  0  2  0  0  0  0  0  0  0  0  0
    1.6053   -0.5705    2.3989 O   0  0  0  0  0  0  0  0  0  0  0  0
  2  1  1  0  0  0  0
  3  2  1  1  0  0  0
  3 30  1  0  0  0  0
  4  5  1  0  0  0  0
  4  3  1  0  0  0  0
  5 28  1  0  0  0  0
  5  6  1  1  0  0  0
  7  6  1  1  0  0  0
  8  7  1  0  0  0  0
  8  9  1  6  0  0  0
 10 11  1  1  0  0  0
 10  8  1  0  0  0  0
 12 10  1  0  0  0  0
 13 12  1  0  0  0  0
 13 15  1  0  0  0  0
 13 14  1  1  0  0  0
 15  7  1  0  0  0  0
 15 16  1  6  0  0  0
 17 16  1  6  0  0  0
 18 17  1  0  0  0  0
 19 20  1  1  0  0  0
 19 18  1  0  0  0  0
 20 21  1  0  0  0  0
 22 24  1  0  0  0  0
 22 19  1  0  0  0  0
 22 23  1  6  0  0  0
 24 25  1  1  0  0  0
 24 26  1  0  0  0  0
 26 17  1  0  0  0  0
 26 27  1  6  0  0  0
 28 29  1  6  0  0  0
 28 30  1  0  0  0  0
 30 31  1  6  0  0  0
M  END
>  <CHROM.1>
178.15013121,58.57732140,-50.28193129,-85.58459057,-173.44971706,-168.48504177
-17.21604798,97.00183796,78.62974597,105.54656986,166.38943855,-62.76347231
174.64073025,58.63319245,-178.65550141,-58.18741890,-0.74748513,4.01745372
2.88497817,0.46548348,-0.62978598,-3.03102097

>  <Name>
lig.pdb

>  <RI>
3.50357e+07

>  <Rbt.Current_Directory>
/home/itssahil/PROJECTS/Mol_Feturizer/New_Systems/rnas/2n0j

>  <Rbt.Executable>
rbdock ($Id: //depot/dev/client3/rdock/2013.1/src/exe/rbdock.cxx#4 $)

>  <Rbt.Library>
libRbt.so (2013.1, Build901 2013/11/27)

>  <Rbt.Parameter_File>
/export/apps/rDock/src/rDock_2013.1_src/data/scripts/dock_solv.prm

>  <Rbt.Receptor>
prm/pocket_docking_3.prm

>  <SCORE>
-35.9179

>  <SCORE.INTER>
-36.3092

>  <SCORE.INTER.CONST>
1

>  <SCORE.INTER.POLAR>
-3.13802

>  <SCORE.INTER.ROT>
6

>  <SCORE.INTER.SOLV>
18.9799

>  <SCORE.INTER.VDW>
-27.6727

>  <SCORE.INTER.norm>
-1.17126

>  <SCORE.INTRA>
0.036273

>  <SCORE.INTRA.DIHEDRAL>
-9.26463

>  <SCORE.INTRA.DIHEDRAL.0>
28.0161

>  <SCORE.INTRA.POLAR>
1.04746

>  <SCORE.INTRA.POLAR.0>
-1.05798

>  <SCORE.INTRA.REPUL>
0

>  <SCORE.INTRA.REPUL.0>
0

>  <SCORE.INTRA.SOLV>
-0.0401996

>  <SCORE.INTRA.SOLV.lig_0>
-42.5945

>  <SCORE.INTRA.VDW>
1.12733

>  <SCORE.INTRA.VDW.0>
-5.13869

>  <SCORE.INTRA.norm>
0.0011701

>  <SCORE.RESTR>
0.355035

>  <SCORE.RESTR.CAVITY>
0.355035

>  <SCORE.RESTR.norm>
0.0114527

>  <SCORE.SYSTEM>
0

>  <SCORE.SYSTEM.CONST>
0

>  <SCORE.SYSTEM.DIHEDRAL>
0

>  <SCORE.SYSTEM.SOLV>
0

>  <SCORE.SYSTEM.norm>
0

>  <SCORE.heavy>
31

>  <SCORE.norm>
-1.15864

>  <RMSD>
7.219

$$$$
lig.pdb
 OpenBabel11021811453D
libRbt.so/2013.1/901 2013/11/27
 31 33  0  0  0  0  0  0  0  0999 V2000
    4.1966    3.8675    0.3712 O   0  0  0  0  0  0  0  0  0  0  0  0
    4.2543    5.0638    1.1233 C   0  0  0  0  0  0  0  0  0  0  0  0
    2.8819    5.7467    1.1975 C   0  0  1  0  0  0  0  0  0  0  0  0
    1.8275    4.8025    1.2963 O   0  0  0  0  0  0  0  0  0  0  0  0
    0.7098    5.3996    1.9466 C   0  0  1  0  0  0  0  0  0  0  0  0
    0.2213    4.5310    2.9618 O   0  0  0  0  0  0  0  0  0  0  0  0
   -1.1813    4.5086    3.1747 C   0  0  2  0  0  0  0  0  0  0  0  0
   -1.5886    5.8738    3.7513 C   0  0  1  0  0  0  0  0  0  0  0  0
   -1.4509    6.8741    2.7544 O   0  0  0  0  0  0  0  0  0  0  0  0
   -3.0371    5.9319    4.2600 C   0  0  2  0  0  0  0  0  0  0  0  0
   -3.3259    7.2324    4.8840 N   0  0  0  0  0  0  0  0  0  0  0  0
   -3.2705    4.8191    5.2750 C   0  0  0  0  0  0  0  0  0  0  0  0
   -2.9324    3.4726    4.6470 C   0  0  2  0  0  0  0  0  0  0  0  0
   -3.2179    2.4181    5.6259 N   0  0  0  0  0  0  0  0  0  0  0  0
   -1.4576    3.4474    4.1910 C   0  0  1  0  0  0  0  0  0  0  0  0
   -1.2499    2.1395    3.6362 O   0  0  0  0  0  0  0  0  0  0  0  0
   -0.6036    1.1783    4.4639 C   0  0  1  0  0  0  0  0  0  0  0  0
   -1.5109    0.1450    4.8379 O   0  0  0  0  0  0  0  0  0  0  0  0
   -1.9365   -0.7285    3.7941 C   0  0  2  0  0  0  0  0  0  0  0  0
   -2.9003   -1.7693    4.3792 C   0  0  0  0  0  0  0  0  0  0  0  0
   -4.1128   -1.1501    4.8952 N   0  0  0  0  0  0  0  0  0  0  0  0
   -0.7320   -1.4377    3.1478 C   0  0  1  0  0  0  0  0  0  0  0  0
   -1.1742   -2.2535    2.0775 O   0  0  0  0  0  0  0  0  0  0  0  0
    0.2439   -0.3757    2.6260 C   0  0  2  0  0  0  0  0  0  0  0  0
    1.4041   -0.9955    2.1038 O   0  0  0  0  0  0  0  0  0  0  0  0
    0.6222    0.6076    3.7418 C   0  0  1  0  0  0  0  0  0  0  0  0
    1.4541    1.6912    3.1994 N   0  0  0  0  0  0  0  0  0  0  0  0
    1.2107    6.7038    2.5839 C   0  0  2  0  0  0  0  0  0  0  0  0
    0.6872    7.8145    1.8797 O   0  0  0  0  0  0  0  0  0  0  0  0
    2.7289    6.5781    2.4672 C   0  0  2  0  0  0  0  0  0  0  0  0
    3.4003    7.8214    2.4178 O   0  0  0  0  0  0  0  0  0  0  0  0
  2  1  1  0  0  0  0
  3  2  1  1  0  0  0
  3 30  1  0  0  0  0
  4  5  1  0  0  0  0
  4  3  1  0  0  0  0
  5 28  1  0  0  0  0
  5  6  1  1  0  0  0
  7  6  1  1  0  0  0
  8  7  1  0  0  0  0
  8  9  1  6  0  0  0
 10 11  1  1  0  0  0
 10  8  1  0  0  0  0
 12 10  1  0  0  0  0
 13 12  1  0  0  0  0
 13 15  1  0  0  0  0
 13 14  1  1  0  0  0
 15  7  1  0  0  0  0
 15 16  1  6  0  0  0
 17 16  1  6  0  0  0
 18 17  1  0  0  0  0
 19 20  1  1  0  0  0
 19 18  1  0  0  0  0
 20 21  1  0  0  0  0
 22 24  1  0  0  0  0
 22 19  1  0  0  0  0
 22 23  1  6  0  0  0
 24 25  1  1  0  0  0
 24 26  1  0  0  0  0
 26 17  1  0  0  0  0
 26 27  1  6  0  0  0
 28 29  1  6  0  0  0
 28 30  1  0  0  0  0
 30 31  1  6  0  0  0
M  END
>  <CHROM.1>
-72.92445061,36.76687749,-144.65895018,-67.64778245,70.15950380,170.30196562
68.66832813,139.03264949,111.55818228,63.58437630,127.97591168,-68.95704679
54.36819380,92.87091530,63.57490078,55.47813457,-0.31572428,3.22113786,3.20135312
-1.06591577,-0.49864550,-3.12719042

>  <Name>
lig.pdb

>  <RI>
3.50357e+07

>  <Rbt.Current_Directory>
/home/itssahil/PROJECTS/Mol_Feturizer/New_Systems/rnas/2n0j

>  <Rbt.Executable>
rbdock ($Id: //depot/dev/client3/rdock/2013.1/src/exe/rbdock.cxx#4 $)

>  <Rbt.Library>
libRbt.so (2013.1, Build901 2013/11/27)

>  <Rbt.Parameter_File>
/export/apps/rDock/src/rDock_2013.1_src/data/scripts/dock_solv.prm

>  <Rbt.Receptor>
prm/pocket_docking_3.prm

>  <SCORE>
-40.1976

>  <SCORE.INTER>
-39.101

>  <SCORE.INTER.CONST>
1

>  <SCORE.INTER.POLAR>
-4.8109

>  <SCORE.INTER.ROT>
6

>  <SCORE.INTER.SOLV>
15.6792

>  <SCORE.INTER.VDW>
-22.8574

>  <SCORE.INTER.norm>
-1.26132

>  <SCORE.INTRA>
-1.11034

>  <SCORE.INTRA.DIHEDRAL>
-0.832545

>  <SCORE.INTRA.DIHEDRAL.0>
28.0161

>  <SCORE.INTRA.POLAR>
-1.5164

>  <SCORE.INTRA.POLAR.0>
-1.05798

>  <SCORE.INTRA.REPUL>
0.0379077

>  <SCORE.INTRA.REPUL.0>
0

>  <SCORE.INTRA.SOLV>
1.14996

>  <SCORE.INTRA.SOLV.lig_0>
-42.5945

>  <SCORE.INTRA.VDW>
3.69718

>  <SCORE.INTRA.VDW.0>
-5.13869

>  <SCORE.INTRA.norm>
-0.0358173

>  <SCORE.RESTR>
0.0137077

>  <SCORE.RESTR.CAVITY>
0.0137077

>  <SCORE.RESTR.norm>
0.000442183

>  <SCORE.SYSTEM>
0

>  <SCORE.SYSTEM.CONST>
0

>  <SCORE.SYSTEM.DIHEDRAL>
0

>  <SCORE.SYSTEM.SOLV>
0

>  <SCORE.SYSTEM.norm>
0

>  <SCORE.heavy>
31

>  <SCORE.norm>
-1.2967

>  <RMSD>
7.226

$$$$
lig.pdb
 OpenBabel11021811453D
libRbt.so/2013.1/901 2013/11/27
 31 33  0  0  0  0  0  0  0  0999 V2000
    6.4626    4.3782    2.9763 O   0  0  0  0  0  0  0  0  0  0  0  0
    5.7346    5.5612    2.7103 C   0  0  0  0  0  0  0  0  0  0  0  0
    4.5065    5.2793    1.8342 C   0  0  1  0  0  0  0  0  0  0  0  0
    3.7775    4.1525    2.2946 O   0  0  0  0  0  0  0  0  0  0  0  0
    2.4151    4.2684    1.8957 C   0  0  1  0  0  0  0  0  0  0  0  0
    1.5634    3.9976    3.0026 O   0  0  0  0  0  0  0  0  0  0  0  0
    0.1678    4.1497    2.7977 C   0  0  2  0  0  0  0  0  0  0  0  0
   -0.2881    5.3888    3.5844 C   0  0  1  0  0  0  0  0  0  0  0  0
    0.2351    6.5597    2.9773 O   0  0  0  0  0  0  0  0  0  0  0  0
   -1.8133    5.5561    3.6608 C   0  0  2  0  0  0  0  0  0  0  0  0
   -2.1772    6.7031    4.5069 N   0  0  0  0  0  0  0  0  0  0  0  0
   -2.4418    4.2883    4.2272 C   0  0  0  0  0  0  0  0  0  0  0  0
   -2.0339    3.0901    3.3787 C   0  0  2  0  0  0  0  0  0  0  0  0
   -2.6957    1.8950    3.9130 N   0  0  0  0  0  0  0  0  0  0  0  0
   -0.4976    2.9379    3.3672 C   0  0  1  0  0  0  0  0  0  0  0  0
   -0.2328    1.7804    2.5599 O   0  0  0  0  0  0  0  0  0  0  0  0
    0.9148    1.0061    2.8917 C   0  0  1  0  0  0  0  0  0  0  0  0
    0.9947    0.8027    4.2998 O   0  0  0  0  0  0  0  0  0  0  0  0
   -0.0015   -0.0419    4.8723 C   0  0  2  0  0  0  0  0  0  0  0  0
    0.2431   -0.1450    6.3837 C   0  0  0  0  0  0  0  0  0  0  0  0
    1.6093   -0.5506    6.6816 N   0  0  0  0  0  0  0  0  0  0  0  0
    0.0406   -1.4455    4.2399 C   0  0  1  0  0  0  0  0  0  0  0  0
   -0.9943   -2.2464    4.7822 O   0  0  0  0  0  0  0  0  0  0  0  0
   -0.1452   -1.3089    2.7236 C   0  0  2  0  0  0  0  0  0  0  0  0
   -0.0239   -2.5747    2.1024 O   0  0  0  0  0  0  0  0  0  0  0  0
    0.8798   -0.3283    2.1381 C   0  0  1  0  0  0  0  0  0  0  0  0
    0.6103   -0.1090    0.7099 N   0  0  0  0  0  0  0  0  0  0  0  0
    2.2093    5.7178    1.4319 C   0  0  2  0  0  0  0  0  0  0  0  0
    2.0436    5.7534    0.0267 O   0  0  0  0  0  0  0  0  0  0  0  0
    3.4860    6.4108    1.9054 C   0  0  2  0  0  0  0  0  0  0  0  0
    3.8373    7.5434    1.1354 O   0  0  0  0  0  0  0  0  0  0  0  0
  2  1  1  0  0  0  0
  3  2  1  1  0  0  0
  3 30  1  0  0  0  0
  4  5  1  0  0  0  0
  4  3  1  0  0  0  0
  5 28  1  0  0  0  0
  5  6  1  1  0  0  0
  7  6  1  1  0  0  0
  8  7  1  0  0  0  0
  8  9  1  6  0  0  0
 10 11  1  1  0  0  0
 10  8  1  0  0  0  0
 12 10  1  0  0  0  0
 13 12  1  0  0  0  0
 13 15  1  0  0  0  0
 13 14  1  1  0  0  0
 15  7  1  0  0  0  0
 15 16  1  6  0  0  0
 17 16  1  1  0  0  0
 18 17  1  0  0  0  0
 19 20  1  1  0  0  0
 19 18  1  0  0  0  0
 20 21  1  0  0  0  0
 22 24  1  0  0  0  0
 22 19  1  0  0  0  0
 22 23  1  1  0  0  0
 24 25  1  6  0  0  0
 24 26  1  0  0  0  0
 26 17  1  0  0  0  0
 26 27  1  6  0  0  0
 28 29  1  6  0  0  0
 28 30  1  0  0  0  0
 30 31  1  6  0  0  0
M  END
>  <CHROM.1>
62.35923023,46.31440080,176.26363173,-109.54639729,-158.82530521,-78.45716707
58.54773745,90.55024467,44.75536280,-53.07117501,-39.37698374,-167.68302478
-91.10314758,-43.76744245,68.11285388,-55.46175570,0.93405746,2.83931882
3.09358374,-1.10660083,-0.28300978,3.00058101

>  <Name>
lig.pdb

>  <RI>
0

>  <Rbt.Current_Directory>
/home/itssahil/PROJECTS/Mol_Feturizer/New_Systems/rnas/2n0j

>  <Rbt.Executable>
rbdock ($Id: //depot/dev/client3/rdock/2013.1/src/exe/rbdock.cxx#4 $)

>  <Rbt.Library>
libRbt.so (2013.1, Build901 2013/11/27)

>  <Rbt.Parameter_File>
/export/apps/rDock/src/rDock_2013.1_src/data/scripts/dock_solv.prm

>  <Rbt.Receptor>
prm/pocket_docking_8.prm

>  <SCORE>
-45.4961

>  <SCORE.INTER>
-48.4509

>  <SCORE.INTER.CONST>
1

>  <SCORE.INTER.POLAR>
-5.9846

>  <SCORE.INTER.ROT>
6

>  <SCORE.INTER.SOLV>
18.6684

>  <SCORE.INTER.VDW>
-26.1747

>  <SCORE.INTER.norm>
-1.56293

>  <SCORE.INTRA>
2.95478

>  <SCORE.INTRA.DIHEDRAL>
-6.09391

>  <SCORE.INTRA.DIHEDRAL.0>
28.0161

>  <SCORE.INTRA.POLAR>
0.97281

>  <SCORE.INTRA.POLAR.0>
-1.05798

>  <SCORE.INTRA.REPUL>
0

>  <SCORE.INTRA.REPUL.0>
0

>  <SCORE.INTRA.SOLV>
0.163461

>  <SCORE.INTRA.SOLV.lig_0>
-42.5945

>  <SCORE.INTRA.VDW>
2.61245

>  <SCORE.INTRA.VDW.0>
-5.13869

>  <SCORE.INTRA.norm>
0.0953153

>  <SCORE.RESTR>
0

>  <SCORE.RESTR.CAVITY>
0

>  <SCORE.RESTR.norm>
0

>  <SCORE.SYSTEM>
0

>  <SCORE.SYSTEM.CONST>
0

>  <SCORE.SYSTEM.DIHEDRAL>
0

>  <SCORE.SYSTEM.SOLV>
0

>  <SCORE.SYSTEM.norm>
0

>  <SCORE.heavy>
31

>  <SCORE.norm>
-1.46762

>  <RMSD>
7.247

$$$$
lig.pdb
 OpenBabel11021811453D
libRbt.so/2013.1/901 2013/11/27
 31 33  0  0  0  0  0  0  0  0999 V2000
    6.2951    4.3946    1.0014 O   0  0  0  0  0  0  0  0  0  0  0  0
    5.0225    3.7788    0.9624 C   0  0  0  0  0  0  0  0  0  0  0  0
    3.8958    4.8087    1.1209 C   0  0  1  0  0  0  0  0  0  0  0  0
    2.6143    4.2039    1.0491 O   0  0  0  0  0  0  0  0  0  0  0  0
    1.6713    4.9940    1.7668 C   0  0  1  0  0  0  0  0  0  0  0  0
    0.8957    4.1621    2.6214 O   0  0  0  0  0  0  0  0  0  0  0  0
   -0.5050    4.1319    2.3981 C   0  0  2  0  0  0  0  0  0  0  0  0
   -1.0902    5.4541    2.9190 C   0  0  1  0  0  0  0  0  0  0  0  0
   -0.6747    6.5230    2.0833 O   0  0  0  0  0  0  0  0  0  0  0  0
   -2.6254    5.4831    2.9687 C   0  0  2  0  0  0  0  0  0  0  0  0
   -3.1110    6.7368    3.5659 N   0  0  0  0  0  0  0  0  0  0  0  0
   -3.1358    4.3014    3.7849 C   0  0  0  0  0  0  0  0  0  0  0  0
   -2.6014    3.0018    3.1955 C   0  0  2  0  0  0  0  0  0  0  0  0
   -3.1514    1.8811    3.9656 N   0  0  0  0  0  0  0  0  0  0  0  0
   -1.0575    3.0017    3.2061 C   0  0  1  0  0  0  0  0  0  0  0  0
   -0.6701    1.7361    2.6497 O   0  0  0  0  0  0  0  0  0  0  0  0
    0.5361    1.1557    3.1342 C   0  0  1  0  0  0  0  0  0  0  0  0
    0.4688    0.9582    4.5438 O   0  0  0  0  0  0  0  0  0  0  0  0
   -0.4422   -0.0406    4.9977 C   0  0  2  0  0  0  0  0  0  0  0  0
   -0.3777   -0.1131    6.5291 C   0  0  0  0  0  0  0  0  0  0  0  0
   -1.4104   -0.9848    7.0707 N   0  0  0  0  0  0  0  0  0  0  0  0
   -0.0942   -1.4144    4.3950 C   0  0  1  0  0  0  0  0  0  0  0  0
   -1.0463   -2.3761    4.8134 O   0  0  0  0  0  0  0  0  0  0  0  0
   -0.1060   -1.2992    2.8656 C   0  0  2  0  0  0  0  0  0  0  0  0
    0.2960   -2.5244    2.2822 O   0  0  0  0  0  0  0  0  0  0  0  0
    0.8130   -0.1615    2.4006 C   0  0  1  0  0  0  0  0  0  0  0  0
    0.6948    0.0211    0.9470 N   0  0  0  0  0  0  0  0  0  0  0  0
    2.4780    5.9895    2.6132 C   0  0  2  0  0  0  0  0  0  0  0  0
    2.3331    7.2954    2.0866 O   0  0  0  0  0  0  0  0  0  0  0  0
    3.9038    5.4512    2.5043 C   0  0  2  0  0  0  0  0  0  0  0  0
    4.8995    6.4419    2.6661 O   0  0  0  0  0  0  0  0  0  0  0  0
  2  1  1  0  0  0  0
  3  2  1  1  0  0  0
  3 30  1  0  0  0  0
  4  5  1  0  0  0  0
  4  3  1  0  0  0  0
  5 28  1  0  0  0  0
  5  6  1  1  0  0  0
  7  6  1  1  0  0  0
  8  7  1  0  0  0  0
  8  9  1  6  0  0  0
 10 11  1  1  0  0  0
 10  8  1  0  0  0  0
 12 10  1  0  0  0  0
 13 12  1  0  0  0  0
 13 15  1  0  0  0  0
 13 14  1  1  0  0  0
 15  7  1  0  0  0  0
 15 16  1  6  0  0  0
 17 16  1  6  0  0  0
 18 17  1  0  0  0  0
 19 20  1  1  0  0  0
 19 18  1  0  0  0  0
 20 21  1  0  0  0  0
 22 24  1  0  0  0  0
 22 19  1  0  0  0  0
 22 23  1  6  0  0  0
 24 25  1  6  0  0  0
 24 26  1  0  0  0  0
 26 17  1  0  0  0  0
 26 27  1  6  0  0  0
 28 29  1  6  0  0  0
 28 30  1  0  0  0  0
 30 31  1  6  0  0  0
M  END
>  <CHROM.1>
-59.25968900,178.51423203,-119.14941987,-74.21013973,-178.27013728,86.70594294
-55.23288081,91.11153766,58.49874007,172.31733767,-70.92761999,-169.42228311
-167.09246042,2.12833524,-55.89948540,-171.49968625,0.48473553,2.79958824
3.00241291,-1.02095503,-0.33273694,2.96379840

>  <Name>
lig.pdb

>  <RI>
0

>  <Rbt.Current_Directory>
/home/itssahil/PROJECTS/Mol_Feturizer/New_Systems/rnas/2n0j

>  <Rbt.Executable>
rbdock ($Id: //depot/dev/client3/rdock/2013.1/src/exe/rbdock.cxx#4 $)

>  <Rbt.Library>
libRbt.so (2013.1, Build901 2013/11/27)

>  <Rbt.Parameter_File>
/export/apps/rDock/src/rDock_2013.1_src/data/scripts/dock_solv.prm

>  <Rbt.Receptor>
prm/pocket_docking_5.prm

>  <SCORE>
-38.8356

>  <SCORE.INTER>
-38.9998

>  <SCORE.INTER.CONST>
1

>  <SCORE.INTER.POLAR>
-5.18717

>  <SCORE.INTER.ROT>
6

>  <SCORE.INTER.SOLV>
14.4364

>  <SCORE.INTER.VDW>
-21.1215

>  <SCORE.INTER.norm>
-1.25806

>  <SCORE.INTRA>
0.164241

>  <SCORE.INTRA.DIHEDRAL>
-8.33381

>  <SCORE.INTRA.DIHEDRAL.0>
28.0161

>  <SCORE.INTRA.POLAR>
0.321308

>  <SCORE.INTRA.POLAR.0>
-1.05798

>  <SCORE.INTRA.REPUL>
0

>  <SCORE.INTRA.REPUL.0>
0

>  <SCORE.INTRA.SOLV>
1.02649

>  <SCORE.INTRA.SOLV.lig_0>
-42.5945

>  <SCORE.INTRA.VDW>
2.72545

>  <SCORE.INTRA.VDW.0>
-5.13869

>  <SCORE.INTRA.norm>
0.00529811

>  <SCORE.RESTR>
0

>  <SCORE.RESTR.CAVITY>
0

>  <SCORE.RESTR.norm>
0

>  <SCORE.SYSTEM>
0

>  <SCORE.SYSTEM.CONST>
0

>  <SCORE.SYSTEM.DIHEDRAL>
0

>  <SCORE.SYSTEM.SOLV>
0

>  <SCORE.SYSTEM.norm>
0

>  <SCORE.heavy>
31

>  <SCORE.norm>
-1.25276

>  <RMSD>
7.261

$$$$
lig.pdb
 OpenBabel11021811453D
libRbt.so/2013.1/901 2013/11/27
 31 33  0  0  0  0  0  0  0  0999 V2000
    0.3508   -0.6554   -0.0705 O   0  0  0  0  0  0  0  0  0  0  0  0
    0.1606    0.3529    0.9028 C   0  0  0  0  0  0  0  0  0  0  0  0
    1.4005    1.2478    1.0334 C   0  0  1  0  0  0  0  0  0  0  0  0
    1.0648    2.6253    0.9809 O   0  0  0  0  0  0  0  0  0  0  0  0
    2.0486    3.3845    1.6771 C   0  0  1  0  0  0  0  0  0  0  0  0
    1.4143    4.3056    2.5563 O   0  0  0  0  0  0  0  0  0  0  0  0
    0.7362    5.4026    1.9650 C   0  0  2  0  0  0  0  0  0  0  0  0
    1.7504    6.5458    1.8010 C   0  0  1  0  0  0  0  0  0  0  0  0
    2.6988    6.2038    0.8025 O   0  0  0  0  0  0  0  0  0  0  0  0
    1.1218    7.8872    1.3940 C   0  0  2  0  0  0  0  0  0  0  0  0
    2.1344    8.9534    1.3506 N   0  0  0  0  0  0  0  0  0  0  0  0
    0.0292    8.2653    2.3871 C   0  0  0  0  0  0  0  0  0  0  0  0
   -1.0010    7.1454    2.4676 C   0  0  2  0  0  0  0  0  0  0  0  0
   -2.0665    7.5589    3.3870 N   0  0  0  0  0  0  0  0  0  0  0  0
   -0.3309    5.8304    2.9209 C   0  0  1  0  0  0  0  0  0  0  0  0
   -1.3882    4.8605    2.9766 O   0  0  0  0  0  0  0  0  0  0  0  0
   -1.0964    3.6173    3.6058 C   0  0  1  0  0  0  0  0  0  0  0  0
   -1.2429    3.7222    5.0194 O   0  0  0  0  0  0  0  0  0  0  0  0
   -2.5726    3.8962    5.5042 C   0  0  2  0  0  0  0  0  0  0  0  0
   -2.5354    3.9868    7.0356 C   0  0  0  0  0  0  0  0  0  0  0  0
   -1.5972    5.0022    7.4921 N   0  0  0  0  0  0  0  0  0  0  0  0
   -3.4713    2.7225    5.0725 C   0  0  1  0  0  0  0  0  0  0  0  0
   -4.7980    2.9469    5.5152 O   0  0  0  0  0  0  0  0  0  0  0  0
   -3.4426    2.6162    3.5426 C   0  0  2  0  0  0  0  0  0  0  0  0
   -4.1899    1.4915    3.1188 O   0  0  0  0  0  0  0  0  0  0  0  0
   -1.9983    2.5181    3.0332 C   0  0  1  0  0  0  0  0  0  0  0  0
   -1.9781    2.5455    1.5637 N   0  0  0  0  0  0  0  0  0  0  0  0
    2.8840    2.3876    2.4934 C   0  0  2  0  0  0  0  0  0  0  0  0
    4.1771    2.2701    1.9298 O   0  0  0  0  0  0  0  0  0  0  0  0
    2.0664    1.1004    2.3978 C   0  0  2  0  0  0  0  0  0  0  0  0
    2.8400   -0.0757    2.5297 O   0  0  0  0  0  0  0  0  0  0  0  0
  2  1  1  0  0  0  0
  3  2  1  1  0  0  0
  3 30  1  0  0  0  0
  4  5  1  0  0  0  0
  4  3  1  0  0  0  0
  5 28  1  0  0  0  0
  5  6  1  1  0  0  0
  7  6  1  1  0  0  0
  8  7  1  0  0  0  0
  8  9  1  6  0  0  0
 10 11  1  1  0  0  0
 10  8  1  0  0  0  0
 12 10  1  0  0  0  0
 13 12  1  0  0  0  0
 13 15  1  0  0  0  0
 13 14  1  1  0  0  0
 15  7  1  0  0  0  0
 15 16  1  6  0  0  0
 17 16  1  6  0  0  0
 18 17  1  0  0  0  0
 19 20  1  1  0  0  0
 19 18  1  0  0  0  0
 20 21  1  0  0  0  0
 22 24  1  0  0  0  0
 22 19  1  0  0  0  0
 22 23  1  6  0  0  0
 24 25  1  1  0  0  0
 24 26  1  0  0  0  0
 26 17  1  0  0  0  0
 26 27  1  6  0  0  0
 28 29  1  6  0  0  0
 28 30  1  0  0  0  0
 30 31  1  6  0  0  0
M  END
>  <CHROM.1>
17.27636789,130.62437518,-70.71937256,-88.82507658,53.00014625,-59.14724148
-56.52792680,70.57468272,83.34027950,53.01006280,-50.14000732,-175.56975052
175.16783972,37.81659248,169.71542960,48.18770086,-0.21777508,3.87125558
2.84297648,0.13545395,-0.59106178,-3.03811513

>  <Name>
lig.pdb

>  <RI>
0

>  <Rbt.Current_Directory>
/home/itssahil/PROJECTS/Mol_Feturizer/New_Systems/rnas/2n0j

>  <Rbt.Executable>
rbdock ($Id: //depot/dev/client3/rdock/2013.1/src/exe/rbdock.cxx#4 $)

>  <Rbt.Library>
libRbt.so (2013.1, Build901 2013/11/27)

>  <Rbt.Parameter_File>
/export/apps/rDock/src/rDock_2013.1_src/data/scripts/dock_solv.prm

>  <Rbt.Receptor>
prm/pocket_docking_8.prm

>  <SCORE>
-45.9212

>  <SCORE.INTER>
-43.2029

>  <SCORE.INTER.CONST>
1

>  <SCORE.INTER.POLAR>
-5.46007

>  <SCORE.INTER.ROT>
6

>  <SCORE.INTER.SOLV>
16.7791

>  <SCORE.INTER.VDW>
-23.7947

>  <SCORE.INTER.norm>
-1.39364

>  <SCORE.INTRA>
-2.71823

>  <SCORE.INTRA.DIHEDRAL>
-7.10437

>  <SCORE.INTRA.DIHEDRAL.0>
28.0161

>  <SCORE.INTRA.POLAR>
0.0190991

>  <SCORE.INTRA.POLAR.0>
-1.05798

>  <SCORE.INTRA.REPUL>
0

>  <SCORE.INTRA.REPUL.0>
0

>  <SCORE.INTRA.SOLV>
-0.199928

>  <SCORE.INTRA.SOLV.lig_0>
-42.5945

>  <SCORE.INTRA.VDW>
0.868978

>  <SCORE.INTRA.VDW.0>
-5.13869

>  <SCORE.INTRA.norm>
-0.0876849

>  <SCORE.RESTR>
0

>  <SCORE.RESTR.CAVITY>
0

>  <SCORE.RESTR.norm>
0

>  <SCORE.SYSTEM>
0

>  <SCORE.SYSTEM.CONST>
0

>  <SCORE.SYSTEM.DIHEDRAL>
0

>  <SCORE.SYSTEM.SOLV>
0

>  <SCORE.SYSTEM.norm>
0

>  <SCORE.heavy>
31

>  <SCORE.norm>
-1.48133

>  <RMSD>
7.266

$$$$
lig.pdb
 OpenBabel11021811453D
libRbt.so/2013.1/901 2013/11/27
 31 33  0  0  0  0  0  0  0  0999 V2000
    1.4799   -0.3205    5.0177 O   0  0  0  0  0  0  0  0  0  0  0  0
    1.6671   -0.7527    3.6842 C   0  0  0  0  0  0  0  0  0  0  0  0
    1.6889    0.4315    2.7084 C   0  0  1  0  0  0  0  0  0  0  0  0
    0.5206    1.2288    2.8200 O   0  0  0  0  0  0  0  0  0  0  0  0
    0.8079    2.5599    2.4027 C   0  0  1  0  0  0  0  0  0  0  0  0
    0.3017    3.4850    3.3576 O   0  0  0  0  0  0  0  0  0  0  0  0
   -0.9319    4.1172    3.0553 C   0  0  2  0  0  0  0  0  0  0  0  0
   -0.6221    5.5495    2.5919 C   0  0  1  0  0  0  0  0  0  0  0  0
    0.0171    5.5146    1.3256 O   0  0  0  0  0  0  0  0  0  0  0  0
   -1.8626    6.4451    2.4531 C   0  0  2  0  0  0  0  0  0  0  0  0
   -1.4831    7.8223    2.1020 N   0  0  0  0  0  0  0  0  0  0  0  0
   -2.6410    6.4518    3.7635 C   0  0  0  0  0  0  0  0  0  0  0  0
   -3.0005    5.0235    4.1541 C   0  0  2  0  0  0  0  0  0  0  0  0
   -3.7943    5.0642    5.3869 N   0  0  0  0  0  0  0  0  0  0  0  0
   -1.7220    4.1746    4.3233 C   0  0  1  0  0  0  0  0  0  0  0  0
   -2.1772    2.8671    4.7035 O   0  0  0  0  0  0  0  0  0  0  0  0
   -1.2507    2.0305    5.3878 C   0  0  1  0  0  0  0  0  0  0  0  0
   -1.2118    2.3522    6.7755 O   0  0  0  0  0  0  0  0  0  0  0  0
   -2.3795    2.0334    7.5294 C   0  0  2  0  0  0  0  0  0  0  0  0
   -2.1558    2.4460    8.9903 C   0  0  0  0  0  0  0  0  0  0  0  0
   -1.9792    3.8851    9.1223 N   0  0  0  0  0  0  0  0  0  0  0  0
   -2.6860    0.5261    7.4538 C   0  0  1  0  0  0  0  0  0  0  0  0
   -3.8808    0.2442    8.1606 O   0  0  0  0  0  0  0  0  0  0  0  0
   -2.8447    0.1284    5.9810 C   0  0  2  0  0  0  0  0  0  0  0  0
   -3.0406   -1.2691    5.8727 O   0  0  0  0  0  0  0  0  0  0  0  0
   -1.6159    0.5580    5.1682 C   0  0  1  0  0  0  0  0  0  0  0  0
   -1.8348    0.2866    3.7403 N   0  0  0  0  0  0  0  0  0  0  0  0
    2.3369    2.6827    2.3293 C   0  0  2  0  0  0  0  0  0  0  0  0
    2.7478    2.7640    0.9772 O   0  0  0  0  0  0  0  0  0  0  0  0
    2.8141    1.4106    3.0282 C   0  0  2  0  0  0  0  0  0  0  0  0
    4.0888    0.9717    2.6021 O   0  0  0  0  0  0  0  0  0  0  0  0
  2  1  1  0  0  0  0
  3  2  1  1  0  0  0
  3 30  1  0  0  0  0
  4  5  1  0  0  0  0
  4  3  1  0  0  0  0
  5 28  1  0  0  0  0
  5  6  1  1  0  0  0
  7  6  1  1  0  0  0
  8  7  1  0  0  0  0
  8  9  1  6  0  0  0
 10 11  1  1  0  0  0
 10  8  1  0  0  0  0
 12 10  1  0  0  0  0
 13 12  1  0  0  0  0
 13 15  1  0  0  0  0
 13 14  1  1  0  0  0
 15  7  1  0  0  0  0
 15 16  1  6  0  0  0
 17 16  1  6  0  0  0
 18 17  1  0  0  0  0
 19 20  1  1  0  0  0
 19 18  1  0  0  0  0
 20 21  1  0  0  0  0
 22 24  1  0  0  0  0
 22 19  1  0  0  0  0
 22 23  1  1  0  0  0
 24 25  1  1  0  0  0
 24 26  1  0  0  0  0
 26 17  1  0  0  0  0
 26 27  1  6  0  0  0
 28 29  1  6  0  0  0
 28 30  1  0  0  0  0
 30 31  1  6  0  0  0
M  END
>  <CHROM.1>
-52.38441294,-55.37881567,-100.23528704,-103.16746205,52.81626093,-66.22955226
56.96483708,81.57857108,81.89121132,63.50787666,-58.37148657,-65.24654300
52.16189626,-172.21662698,-176.11756480,42.09273195,-0.79032614,2.59554958
4.42631280,-0.68045369,-0.71450371,2.61245500

>  <Name>
lig.pdb

>  <RI>
3.33129e+07

>  <Rbt.Current_Directory>
/home/itssahil/PROJECTS/Mol_Feturizer/New_Systems/rnas/2n0j

>  <Rbt.Executable>
rbdock ($Id: //depot/dev/client3/rdock/2013.1/src/exe/rbdock.cxx#4 $)

>  <Rbt.Library>
libRbt.so (2013.1, Build901 2013/11/27)

>  <Rbt.Parameter_File>
/export/apps/rDock/src/rDock_2013.1_src/data/scripts/dock_solv.prm

>  <Rbt.Receptor>
prm/pocket_docking_4.prm

>  <SCORE>
-36.7253

>  <SCORE.INTER>
-32.9612

>  <SCORE.INTER.CONST>
1

>  <SCORE.INTER.POLAR>
-4.46985

>  <SCORE.INTER.ROT>
6

>  <SCORE.INTER.SOLV>
17.0801

>  <SCORE.INTER.VDW>
-20.368

>  <SCORE.INTER.norm>
-1.06326

>  <SCORE.INTRA>
-4.10275

>  <SCORE.INTRA.DIHEDRAL>
-9.30263

>  <SCORE.INTRA.DIHEDRAL.0>
28.0161

>  <SCORE.INTRA.POLAR>
0.012687

>  <SCORE.INTRA.POLAR.0>
-1.05798

>  <SCORE.INTRA.REPUL>
0

>  <SCORE.INTRA.REPUL.0>
0

>  <SCORE.INTRA.SOLV>
1.30193

>  <SCORE.INTRA.SOLV.lig_0>
-42.5945

>  <SCORE.INTRA.VDW>
-0.145534

>  <SCORE.INTRA.VDW.0>
-5.13869

>  <SCORE.INTRA.norm>
-0.132347

>  <SCORE.RESTR>
0.338667

>  <SCORE.RESTR.CAVITY>
0.338667

>  <SCORE.RESTR.norm>
0.0109247

>  <SCORE.SYSTEM>
0

>  <SCORE.SYSTEM.CONST>
0

>  <SCORE.SYSTEM.DIHEDRAL>
0

>  <SCORE.SYSTEM.SOLV>
0

>  <SCORE.SYSTEM.norm>
0

>  <SCORE.heavy>
31

>  <SCORE.norm>
-1.18469

>  <RMSD>
7.275

$$$$
lig.pdb
 OpenBabel11021811453D
libRbt.so/2013.1/901 2013/11/27
 31 33  0  0  0  0  0  0  0  0999 V2000
    0.5453   -1.5121    2.3240 O   0  0  0  0  0  0  0  0  0  0  0  0
    0.0023   -0.2240    2.1091 C   0  0  0  0  0  0  0  0  0  0  0  0
    1.0828    0.7747    1.6728 C   0  0  1  0  0  0  0  0  0  0  0  0
    0.5532    2.0781    1.4892 O   0  0  0  0  0  0  0  0  0  0  0  0
    1.5812    3.0444    1.6855 C   0  0  1  0  0  0  0  0  0  0  0  0
    1.1147    4.0774    2.5452 O   0  0  0  0  0  0  0  0  0  0  0  0
    0.4391    5.1679    1.9393 C   0  0  2  0  0  0  0  0  0  0  0  0
    1.4871    6.2427    1.6101 C   0  0  1  0  0  0  0  0  0  0  0  0
    2.3260    5.7869    0.5604 O   0  0  0  0  0  0  0  0  0  0  0  0
    0.8885    7.5861    1.1661 C   0  0  2  0  0  0  0  0  0  0  0  0
    1.9422    8.5923    0.9624 N   0  0  0  0  0  0  0  0  0  0  0  0
   -0.0925    8.0853    2.2204 C   0  0  0  0  0  0  0  0  0  0  0  0
   -1.1629    7.0290    2.4662 C   0  0  2  0  0  0  0  0  0  0  0  0
   -2.1219    7.5572    3.4425 N   0  0  0  0  0  0  0  0  0  0  0  0
   -0.5177    5.7127    2.9508 C   0  0  1  0  0  0  0  0  0  0  0  0
   -1.6102    4.8058    3.1640 O   0  0  0  0  0  0  0  0  0  0  0  0
   -1.5067    3.9126    4.2677 C   0  0  1  0  0  0  0  0  0  0  0  0
   -1.8066    4.5841    5.4883 O   0  0  0  0  0  0  0  0  0  0  0  0
   -3.1625    4.9865    5.6698 C   0  0  2  0  0  0  0  0  0  0  0  0
   -3.2957    5.6859    7.0291 C   0  0  0  0  0  0  0  0  0  0  0  0
   -3.6589    7.0879    6.8798 N   0  0  0  0  0  0  0  0  0  0  0  0
   -4.1070    3.7714    5.6133 C   0  0  1  0  0  0  0  0  0  0  0  0
   -5.4505    4.2027    5.7372 O   0  0  0  0  0  0  0  0  0  0  0  0
   -3.9102    3.0558    4.2711 C   0  0  2  0  0  0  0  0  0  0  0  0
   -4.7014    1.8833    4.2240 O   0  0  0  0  0  0  0  0  0  0  0  0
   -2.4312    2.7088    4.0536 C   0  0  1  0  0  0  0  0  0  0  0  0
   -2.2378    2.1402    2.7120 N   0  0  0  0  0  0  0  0  0  0  0  0
    2.7567    2.3141    2.3511 C   0  0  2  0  0  0  0  0  0  0  0  0
    3.8241    2.1836    1.4307 O   0  0  0  0  0  0  0  0  0  0  0  0
    2.1412    0.9747    2.7530 C   0  0  2  0  0  0  0  0  0  0  0  0
    3.0787   -0.0806    2.8336 O   0  0  0  0  0  0  0  0  0  0  0  0
  2  1  1  0  0  0  0
  3  2  1  1  0  0  0
  3 30  1  0  0  0  0
  4  5  1  0  0  0  0
  4  3  1  0  0  0  0
  5 28  1  0  0  0  0
  5  6  1  1  0  0  0
  7  6  1  1  0  0  0
  8  7  1  0  0  0  0
  8  9  1  6  0  0  0
 10 11  1  1  0  0  0
 10  8  1  0  0  0  0
 12 10  1  0  0  0  0
 13 12  1  0  0  0  0
 13 15  1  0  0  0  0
 13 14  1  1  0  0  0
 15  7  1  0  0  0  0
 15 16  1  6  0  0  0
 17 16  1  6  0  0  0
 18 17  1  0  0  0  0
 19 20  1  1  0  0  0
 19 18  1  0  0  0  0
 20 21  1  0  0  0  0
 22 24  1  0  0  0  0
 22 19  1  0  0  0  0
 22 23  1  6  0  0  0
 24 25  1  1  0  0  0
 24 26  1  0  0  0  0
 26 17  1  0  0  0  0
 26 27  1  6  0  0  0
 28 29  1  6  0  0  0
 28 30  1  0  0  0  0
 30 31  1  6  0  0  0
M  END
>  <CHROM.1>
-171.21893945,-178.44278705,-87.54143121,-91.08277835,59.45592118,67.77071932
-56.38696369,95.97509348,78.11610645,115.33117765,165.05202557,51.93433529
-178.52403367,-69.78317952,66.90452022,54.38961947,-0.58793035,3.99230820
3.14256355,0.45687859,-0.57393720,3.09586939

>  <Name>
lig.pdb

>  <RI>
3.50357e+07

>  <Rbt.Current_Directory>
/home/itssahil/PROJECTS/Mol_Feturizer/New_Systems/rnas/2n0j

>  <Rbt.Executable>
rbdock ($Id: //depot/dev/client3/rdock/2013.1/src/exe/rbdock.cxx#4 $)

>  <Rbt.Library>
libRbt.so (2013.1, Build901 2013/11/27)

>  <Rbt.Parameter_File>
/export/apps/rDock/src/rDock_2013.1_src/data/scripts/dock_solv.prm

>  <Rbt.Receptor>
prm/pocket_docking_3.prm

>  <SCORE>
-46.4814

>  <SCORE.INTER>
-44.0876

>  <SCORE.INTER.CONST>
1

>  <SCORE.INTER.POLAR>
-4.77207

>  <SCORE.INTER.ROT>
6

>  <SCORE.INTER.SOLV>
18.5031

>  <SCORE.INTER.VDW>
-27.2525

>  <SCORE.INTER.norm>
-1.42218

>  <SCORE.INTRA>
-3.19191

>  <SCORE.INTRA.DIHEDRAL>
-7.28239

>  <SCORE.INTRA.DIHEDRAL.0>
28.0161

>  <SCORE.INTRA.POLAR>
0.051918

>  <SCORE.INTRA.POLAR.0>
-1.05798

>  <SCORE.INTRA.REPUL>
0

>  <SCORE.INTRA.REPUL.0>
0

>  <SCORE.INTRA.SOLV>
0.528391

>  <SCORE.INTRA.SOLV.lig_0>
-42.5945

>  <SCORE.INTRA.VDW>
0.00857063

>  <SCORE.INTRA.VDW.0>
-5.13869

>  <SCORE.INTRA.norm>
-0.102965

>  <SCORE.RESTR>
0.798135

>  <SCORE.RESTR.CAVITY>
0.798135

>  <SCORE.RESTR.norm>
0.0257463

>  <SCORE.SYSTEM>
0

>  <SCORE.SYSTEM.CONST>
0

>  <SCORE.SYSTEM.DIHEDRAL>
0

>  <SCORE.SYSTEM.SOLV>
0

>  <SCORE.SYSTEM.norm>
0

>  <SCORE.heavy>
31

>  <SCORE.norm>
-1.4994

>  <RMSD>
7.285

$$$$
lig.pdb
 OpenBabel11021811453D
libRbt.so/2013.1/901 2013/11/27
 31 33  0  0  0  0  0  0  0  0999 V2000
   -0.8954   -0.5248    3.5617 O   0  0  0  0  0  0  0  0  0  0  0  0
   -2.2361   -0.9242    3.7695 C   0  0  0  0  0  0  0  0  0  0  0  0
   -3.1847    0.2821    3.7866 C   0  0  1  0  0  0  0  0  0  0  0  0
   -2.6859    1.3340    4.5976 O   0  0  0  0  0  0  0  0  0  0  0  0
   -3.2099    2.5781    4.1433 C   0  0  1  0  0  0  0  0  0  0  0  0
   -2.1602    3.5317    4.0310 O   0  0  0  0  0  0  0  0  0  0  0  0
   -2.4915    4.7973    3.4818 C   0  0  2  0  0  0  0  0  0  0  0  0
   -1.2536    5.3229    2.7379 C   0  0  1  0  0  0  0  0  0  0  0  0
   -1.0259    4.5404    1.5763 O   0  0  0  0  0  0  0  0  0  0  0  0
   -1.3683    6.7871    2.2874 C   0  0  2  0  0  0  0  0  0  0  0  0
   -0.1152    7.2498    1.6712 N   0  0  0  0  0  0  0  0  0  0  0  0
   -1.7004    7.6690    3.4853 C   0  0  0  0  0  0  0  0  0  0  0  0
   -2.9754    7.1685    4.1531 C   0  0  2  0  0  0  0  0  0  0  0  0
   -3.3004    8.0663    5.2667 N   0  0  0  0  0  0  0  0  0  0  0  0
   -2.7972    5.7097    4.6261 C   0  0  1  0  0  0  0  0  0  0  0  0
   -4.0414    5.3534    5.2479 O   0  0  0  0  0  0  0  0  0  0  0  0
   -4.0308    4.2336    6.1268 C   0  0  1  0  0  0  0  0  0  0  0  0
   -3.2071    4.4915    7.2607 O   0  0  0  0  0  0  0  0  0  0  0  0
   -3.6857    5.4736    8.1771 C   0  0  2  0  0  0  0  0  0  0  0  0
   -2.6776    5.6149    9.3254 C   0  0  0  0  0  0  0  0  0  0  0  0
   -2.2583    6.9973    9.5067 N   0  0  0  0  0  0  0  0  0  0  0  0
   -5.0633    5.0747    8.7381 C   0  0  1  0  0  0  0  0  0  0  0  0
   -5.5429    6.0920    9.5992 O   0  0  0  0  0  0  0  0  0  0  0  0
   -6.0350    4.8807    7.5674 C   0  0  2  0  0  0  0  0  0  0  0  0
   -7.2880    4.4279    8.0449 O   0  0  0  0  0  0  0  0  0  0  0  0
   -5.4634    3.8866    6.5475 C   0  0  1  0  0  0  0  0  0  0  0  0
   -6.3428    3.8069    5.3724 N   0  0  0  0  0  0  0  0  0  0  0  0
   -3.8227    2.3235    2.7585 C   0  0  2  0  0  0  0  0  0  0  0  0
   -5.2342    2.3933    2.8378 O   0  0  0  0  0  0  0  0  0  0  0  0
   -3.3076    0.9279    2.4102 C   0  0  2  0  0  0  0  0  0  0  0  0
   -4.1466    0.2176    1.5210 O   0  0  0  0  0  0  0  0  0  0  0  0
  2  1  1  0  0  0  0
  3  2  1  6  0  0  0
  3 30  1  0  0  0  0
  4  5  1  0  0  0  0
  4  3  1  0  0  0  0
  5 28  1  0  0  0  0
  5  6  1  6  0  0  0
  7  6  1  1  0  0  0
  8  7  1  0  0  0  0
  8  9  1  6  0  0  0
 10 11  1  1  0  0  0
 10  8  1  0  0  0  0
 12 10  1  0  0  0  0
 13 12  1  0  0  0  0
 13 15  1  0  0  0  0
 13 14  1  1  0  0  0
 15  7  1  0  0  0  0
 15 16  1  6  0  0  0
 17 16  1  6  0  0  0
 18 17  1  0  0  0  0
 19 20  1  1  0  0  0
 19 18  1  0  0  0  0
 20 21  1  0  0  0  0
 22 24  1  0  0  0  0
 22 19  1  0  0  0  0
 22 23  1  1  0  0  0
 24 25  1  1  0  0  0
 24 26  1  0  0  0  0
 26 17  1  0  0  0  0
 26 27  1  6  0  0  0
 28 29  1  1  0  0  0
 28 30  1  0  0  0  0
 30 31  1  6  0  0  0
M  END
>  <CHROM.1>
-175.26464709,-46.51008993,174.84305161,-148.52673247,-167.41969567,-138.09277381
172.04010816,78.06306710,64.20098712,126.06963493,163.94662070,-60.44491167
-52.05399428,-178.13596388,-177.12668331,65.95391802,-3.34558378,4.18648369
4.97963969,1.09979650,-0.94283848,-2.62312946

>  <Name>
lig.pdb

>  <RI>
2.74555e+07

>  <Rbt.Current_Directory>
/home/itssahil/PROJECTS/Mol_Feturizer/New_Systems/rnas/2n0j

>  <Rbt.Executable>
rbdock ($Id: //depot/dev/client3/rdock/2013.1/src/exe/rbdock.cxx#4 $)

>  <Rbt.Library>
libRbt.so (2013.1, Build901 2013/11/27)

>  <Rbt.Parameter_File>
/export/apps/rDock/src/rDock_2013.1_src/data/scripts/dock_solv.prm

>  <Rbt.Receptor>
prm/pocket_docking_6.prm

>  <SCORE>
-33.0705

>  <SCORE.INTER>
-32.2783

>  <SCORE.INTER.CONST>
1

>  <SCORE.INTER.POLAR>
-4.39063

>  <SCORE.INTER.ROT>
6

>  <SCORE.INTER.SOLV>
15.5445

>  <SCORE.INTER.VDW>
-19.6649

>  <SCORE.INTER.norm>
-1.04124

>  <SCORE.INTRA>
-0.792244

>  <SCORE.INTRA.DIHEDRAL>
-11.2527

>  <SCORE.INTRA.DIHEDRAL.0>
28.0161

>  <SCORE.INTRA.POLAR>
0.163327

>  <SCORE.INTRA.POLAR.0>
-1.05798

>  <SCORE.INTRA.REPUL>
0

>  <SCORE.INTRA.REPUL.0>
0

>  <SCORE.INTRA.SOLV>
0.940691

>  <SCORE.INTRA.SOLV.lig_0>
-42.5945

>  <SCORE.INTRA.VDW>
3.80847

>  <SCORE.INTRA.VDW.0>
-5.13869

>  <SCORE.INTRA.norm>
-0.0255563

>  <SCORE.RESTR>
0

>  <SCORE.RESTR.CAVITY>
0

>  <SCORE.RESTR.norm>
0

>  <SCORE.SYSTEM>
0

>  <SCORE.SYSTEM.CONST>
0

>  <SCORE.SYSTEM.DIHEDRAL>
0

>  <SCORE.SYSTEM.SOLV>
0

>  <SCORE.SYSTEM.norm>
0

>  <SCORE.heavy>
31

>  <SCORE.norm>
-1.06679

>  <RMSD>
7.286

$$$$
lig.pdb
 OpenBabel11021811453D
libRbt.so/2013.1/901 2013/11/27
 31 33  0  0  0  0  0  0  0  0999 V2000
    5.8800    7.4722   -2.1277 O   0  0  0  0  0  0  0  0  0  0  0  0
    4.5403    7.1047   -1.8626 C   0  0  0  0  0  0  0  0  0  0  0  0
    4.2897    6.9444   -0.3571 C   0  0  1  0  0  0  0  0  0  0  0  0
    2.9979    6.4221   -0.0899 O   0  0  0  0  0  0  0  0  0  0  0  0
    3.0066    5.7404    1.1608 C   0  0  1  0  0  0  0  0  0  0  0  0
    2.3802    4.4706    1.0227 O   0  0  0  0  0  0  0  0  0  0  0  0
    2.3562    3.6330    2.1675 C   0  0  2  0  0  0  0  0  0  0  0  0
    3.1686    2.3701    1.8401 C   0  0  1  0  0  0  0  0  0  0  0  0
    4.5448    2.7003    1.7370 O   0  0  0  0  0  0  0  0  0  0  0  0
    3.0436    1.2552    2.8896 C   0  0  2  0  0  0  0  0  0  0  0  0
    3.7663    0.0464    2.4648 N   0  0  0  0  0  0  0  0  0  0  0  0
    1.5735    0.9171    3.1077 C   0  0  0  0  0  0  0  0  0  0  0  0
    0.8115    2.1747    3.5074 C   0  0  2  0  0  0  0  0  0  0  0  0
   -0.5860    1.8100    3.7636 N   0  0  0  0  0  0  0  0  0  0  0  0
    0.9309    3.2486    2.4045 C   0  0  1  0  0  0  0  0  0  0  0  0
    0.1690    4.3701    2.8771 O   0  0  0  0  0  0  0  0  0  0  0  0
   -1.0273    4.6854    2.1729 C   0  0  1  0  0  0  0  0  0  0  0  0
   -2.1285    3.9475    2.6959 O   0  0  0  0  0  0  0  0  0  0  0  0
   -2.5579    4.3014    4.0089 C   0  0  2  0  0  0  0  0  0  0  0  0
   -3.7439    3.4102    4.4010 C   0  0  0  0  0  0  0  0  0  0  0  0
   -4.6098    4.0631    5.3725 N   0  0  0  0  0  0  0  0  0  0  0  0
   -2.9758    5.7824    4.0682 C   0  0  1  0  0  0  0  0  0  0  0  0
   -3.3418    6.1243    5.3932 O   0  0  0  0  0  0  0  0  0  0  0  0
   -1.7933    6.6471    3.6137 C   0  0  2  0  0  0  0  0  0  0  0  0
   -2.1738    8.0096    3.5733 O   0  0  0  0  0  0  0  0  0  0  0  0
   -1.2885    6.1945    2.2370 C   0  0  1  0  0  0  0  0  0  0  0  0
   -0.0787    6.9449    1.8710 N   0  0  0  0  0  0  0  0  0  0  0  0
    4.4791    5.5469    1.5515 C   0  0  2  0  0  0  0  0  0  0  0  0
    4.8016    6.3907    2.6412 O   0  0  0  0  0  0  0  0  0  0  0  0
    5.2223    5.9113    0.2673 C   0  0  2  0  0  0  0  0  0  0  0  0
    6.5353    6.3881    0.4859 O   0  0  0  0  0  0  0  0  0  0  0  0
  2  1  1  0  0  0  0
  3  2  1  6  0  0  0
  3 30  1  0  0  0  0
  4  5  1  0  0  0  0
  4  3  1  0  0  0  0
  5 28  1  0  0  0  0
  5  6  1  6  0  0  0
  7  6  1  6  0  0  0
  8  7  1  0  0  0  0
  8  9  1  1  0  0  0
 10 11  1  6  0  0  0
 10  8  1  0  0  0  0
 12 10  1  0  0  0  0
 13 12  1  0  0  0  0
 13 15  1  0  0  0  0
 13 14  1  6  0  0  0
 15  7  1  0  0  0  0
 15 16  1  1  0  0  0
 17 16  1  1  0  0  0
 18 17  1  0  0  0  0
 19 20  1  6  0  0  0
 19 18  1  0  0  0  0
 20 21  1  0  0  0  0
 22 24  1  0  0  0  0
 22 19  1  0  0  0  0
 22 23  1  1  0  0  0
 24 25  1  6  0  0  0
 24 26  1  0  0  0  0
 26 17  1  0  0  0  0
 26 27  1  1  0  0  0
 28 29  1  1  0  0  0
 28 30  1  0  0  0  0
 30 31  1  1  0  0  0
M  END
>  <CHROM.1>
178.27703851,-172.95350933,177.30326603,-116.82510676,98.38470052,-173.94604632
-101.22583141,127.22657961,87.61006118,-153.25011915,-170.77868250,65.01277553
166.31375867,-32.21613657,74.06611820,-51.29838430,1.24398563,4.70350908
2.23098889,0.25681980,0.42812584,-0.32023824

>  <Name>
lig.pdb

>  <RI>
2.74555e+07

>  <Rbt.Current_Directory>
/home/itssahil/PROJECTS/Mol_Feturizer/New_Systems/rnas/2n0j

>  <Rbt.Executable>
rbdock ($Id: //depot/dev/client3/rdock/2013.1/src/exe/rbdock.cxx#4 $)

>  <Rbt.Library>
libRbt.so (2013.1, Build901 2013/11/27)

>  <Rbt.Parameter_File>
/export/apps/rDock/src/rDock_2013.1_src/data/scripts/dock_solv.prm

>  <Rbt.Receptor>
prm/pocket_docking_6.prm

>  <SCORE>
-41.3417

>  <SCORE.INTER>
-48.5996

>  <SCORE.INTER.CONST>
1

>  <SCORE.INTER.POLAR>
-6.15406

>  <SCORE.INTER.ROT>
6

>  <SCORE.INTER.SOLV>
16.495

>  <SCORE.INTER.VDW>
-24.9845

>  <SCORE.INTER.norm>
-1.56773

>  <SCORE.INTRA>
7.25793

>  <SCORE.INTRA.DIHEDRAL>
3.95244

>  <SCORE.INTRA.DIHEDRAL.0>
28.0161

>  <SCORE.INTRA.POLAR>
-0.0952589

>  <SCORE.INTRA.POLAR.0>
-1.05798

>  <SCORE.INTRA.REPUL>
0

>  <SCORE.INTRA.REPUL.0>
0

>  <SCORE.INTRA.SOLV>
1.77219

>  <SCORE.INTRA.SOLV.lig_0>
-42.5945

>  <SCORE.INTRA.VDW>
4.7195

>  <SCORE.INTRA.VDW.0>
-5.13869

>  <SCORE.INTRA.norm>
0.234127

>  <SCORE.RESTR>
0

>  <SCORE.RESTR.CAVITY>
0

>  <SCORE.RESTR.norm>
0

>  <SCORE.SYSTEM>
0

>  <SCORE.SYSTEM.CONST>
0

>  <SCORE.SYSTEM.DIHEDRAL>
0

>  <SCORE.SYSTEM.SOLV>
0

>  <SCORE.SYSTEM.norm>
0

>  <SCORE.heavy>
31

>  <SCORE.norm>
-1.3336

>  <RMSD>
7.288

$$$$
lig.pdb
 OpenBabel11021811453D
libRbt.so/2013.1/901 2013/11/27
 31 33  0  0  0  0  0  0  0  0999 V2000
    5.7132    3.8080    2.5904 O   0  0  0  0  0  0  0  0  0  0  0  0
    5.5978    4.3235    1.2785 C   0  0  0  0  0  0  0  0  0  0  0  0
    4.3238    5.1636    1.1158 C   0  0  1  0  0  0  0  0  0  0  0  0
    3.1622    4.3520    1.0442 O   0  0  0  0  0  0  0  0  0  0  0  0
    2.0319    5.0936    1.4928 C   0  0  1  0  0  0  0  0  0  0  0  0
    1.2816    4.3168    2.4189 O   0  0  0  0  0  0  0  0  0  0  0  0
   -0.1319    4.4210    2.3552 C   0  0  2  0  0  0  0  0  0  0  0  0
   -0.5239    5.8035    2.9002 C   0  0  1  0  0  0  0  0  0  0  0  0
   -0.1062    6.8112    1.9927 O   0  0  0  0  0  0  0  0  0  0  0  0
   -2.0334    5.9847    3.1211 C   0  0  2  0  0  0  0  0  0  0  0  0
   -2.3247    7.2906    3.7327 N   0  0  0  0  0  0  0  0  0  0  0  0
   -2.5579    4.8738    4.0232 C   0  0  0  0  0  0  0  0  0  0  0  0
   -2.2218    3.5175    3.4152 C   0  0  2  0  0  0  0  0  0  0  0  0
   -2.7850    2.4704    4.2742 N   0  0  0  0  0  0  0  0  0  0  0  0
   -0.6941    3.3653    3.2524 C   0  0  1  0  0  0  0  0  0  0  0  0
   -0.4963    2.0580    2.6927 O   0  0  0  0  0  0  0  0  0  0  0  0
    0.7112    1.3833    3.0295 C   0  0  1  0  0  0  0  0  0  0  0  0
    0.7529    1.0922    4.4239 O   0  0  0  0  0  0  0  0  0  0  0  0
   -0.1725    0.1131    4.8914 C   0  0  2  0  0  0  0  0  0  0  0  0
    0.0179   -0.0689    6.4031 C   0  0  0  0  0  0  0  0  0  0  0  0
    1.3844   -0.4487    6.7317 N   0  0  0  0  0  0  0  0  0  0  0  0
    0.0428   -1.2318    4.1726 C   0  0  1  0  0  0  0  0  0  0  0  0
   -0.9242   -2.1694    4.6108 O   0  0  0  0  0  0  0  0  0  0  0  0
   -0.0925   -1.0102    2.6610 C   0  0  2  0  0  0  0  0  0  0  0  0
    0.1868   -2.2112    1.9661 O   0  0  0  0  0  0  0  0  0  0  0  0
    0.8479    0.1077    2.1907 C   0  0  1  0  0  0  0  0  0  0  0  0
    0.6170    0.3967    0.7681 N   0  0  0  0  0  0  0  0  0  0  0  0
    2.5729    6.3479    2.1943 C   0  0  2  0  0  0  0  0  0  0  0  0
    2.3100    7.4917    1.4031 O   0  0  0  0  0  0  0  0  0  0  0  0
    4.0634    6.0426    2.3349 C   0  0  2  0  0  0  0  0  0  0  0  0
    4.8777    7.1973    2.3885 O   0  0  0  0  0  0  0  0  0  0  0  0
  2  1  1  0  0  0  0
  3  2  1  1  0  0  0
  3 30  1  0  0  0  0
  4  5  1  0  0  0  0
  4  3  1  0  0  0  0
  5 28  1  0  0  0  0
  5  6  1  1  0  0  0
  7  6  1  1  0  0  0
  8  7  1  0  0  0  0
  8  9  1  6  0  0  0
 10 11  1  1  0  0  0
 10  8  1  0  0  0  0
 12 10  1  0  0  0  0
 13 12  1  0  0  0  0
 13 15  1  0  0  0  0
 13 14  1  1  0  0  0
 15  7  1  0  0  0  0
 15 16  1  6  0  0  0
 17 16  1  1  0  0  0
 18 17  1  0  0  0  0
 19 20  1  1  0  0  0
 19 18  1  0  0  0  0
 20 21  1  0  0  0  0
 22 24  1  0  0  0  0
 22 19  1  0  0  0  0
 22 23  1  1  0  0  0
 24 25  1  6  0  0  0
 24 26  1  0  0  0  0
 26 17  1  0  0  0  0
 26 27  1  6  0  0  0
 28 29  1  6  0  0  0
 28 30  1  0  0  0  0
 30 31  1  6  0  0  0
M  END
>  <CHROM.1>
155.65274499,-74.50816368,-142.03220457,-71.81302040,58.98309822,-44.36084350
-55.23672771,89.63919943,64.95525861,-57.23825439,77.69787886,-164.52630741
24.58094309,-130.00220387,67.49541127,-175.58488078,0.83556270,3.10510125
2.96995750,-1.16094022,-0.28213093,2.96284339

>  <Name>
lig.pdb

>  <RI>
2.74555e+07

>  <Rbt.Current_Directory>
/home/itssahil/PROJECTS/Mol_Feturizer/New_Systems/rnas/2n0j

>  <Rbt.Executable>
rbdock ($Id: //depot/dev/client3/rdock/2013.1/src/exe/rbdock.cxx#4 $)

>  <Rbt.Library>
libRbt.so (2013.1, Build901 2013/11/27)

>  <Rbt.Parameter_File>
/export/apps/rDock/src/rDock_2013.1_src/data/scripts/dock_solv.prm

>  <Rbt.Receptor>
prm/pocket_docking_6.prm

>  <SCORE>
-53.9104

>  <SCORE.INTER>
-57.1561

>  <SCORE.INTER.CONST>
1

>  <SCORE.INTER.POLAR>
-8.23118

>  <SCORE.INTER.ROT>
6

>  <SCORE.INTER.SOLV>
16.0815

>  <SCORE.INTER.VDW>
-23.6273

>  <SCORE.INTER.norm>
-1.84374

>  <SCORE.INTRA>
3.2457

>  <SCORE.INTRA.DIHEDRAL>
-4.27816

>  <SCORE.INTRA.DIHEDRAL.0>
28.0161

>  <SCORE.INTRA.POLAR>
0.2013

>  <SCORE.INTRA.POLAR.0>
-1.05798

>  <SCORE.INTRA.REPUL>
0

>  <SCORE.INTRA.REPUL.0>
0

>  <SCORE.INTRA.SOLV>
1.36211

>  <SCORE.INTRA.SOLV.lig_0>
-42.5945

>  <SCORE.INTRA.VDW>
4.0193

>  <SCORE.INTRA.VDW.0>
-5.13869

>  <SCORE.INTRA.norm>
0.1047

>  <SCORE.RESTR>
0

>  <SCORE.RESTR.CAVITY>
0

>  <SCORE.RESTR.norm>
0

>  <SCORE.SYSTEM>
0

>  <SCORE.SYSTEM.CONST>
0

>  <SCORE.SYSTEM.DIHEDRAL>
0

>  <SCORE.SYSTEM.SOLV>
0

>  <SCORE.SYSTEM.norm>
0

>  <SCORE.heavy>
31

>  <SCORE.norm>
-1.73904

>  <RMSD>
7.289

$$$$
lig.pdb
 OpenBabel11021811453D
libRbt.so/2013.1/901 2013/11/27
 31 33  0  0  0  0  0  0  0  0999 V2000
    0.7247    0.2165    4.3772 O   0  0  0  0  0  0  0  0  0  0  0  0
    1.0339   -0.2969    3.0962 C   0  0  0  0  0  0  0  0  0  0  0  0
    1.5348    0.8071    2.1552 C   0  0  1  0  0  0  0  0  0  0  0  0
    0.6095    1.8783    2.0590 O   0  0  0  0  0  0  0  0  0  0  0  0
    1.2989    3.0770    1.7176 C   0  0  1  0  0  0  0  0  0  0  0  0
    0.8821    4.1341    2.5737 O   0  0  0  0  0  0  0  0  0  0  0  0
    0.3064    5.2758    1.9591 C   0  0  2  0  0  0  0  0  0  0  0  0
    1.3907    6.3624    1.8824 C   0  0  1  0  0  0  0  0  0  0  0  0
    2.3830    5.9820    0.9422 O   0  0  0  0  0  0  0  0  0  0  0  0
    0.8654    7.7427    1.4593 C   0  0  2  0  0  0  0  0  0  0  0  0
    1.9359    8.7508    1.5015 N   0  0  0  0  0  0  0  0  0  0  0  0
   -0.2681    8.1674    2.3854 C   0  0  0  0  0  0  0  0  0  0  0  0
   -1.3616    7.1061    2.3781 C   0  0  2  0  0  0  0  0  0  0  0  0
   -2.4614    7.5656    3.2331 N   0  0  0  0  0  0  0  0  0  0  0  0
   -0.7967    5.7492    2.8505 C   0  0  1  0  0  0  0  0  0  0  0  0
   -1.9072    4.8396    2.8194 O   0  0  0  0  0  0  0  0  0  0  0  0
   -1.8868    3.7581    3.7449 C   0  0  1  0  0  0  0  0  0  0  0  0
   -2.2678    4.2008    5.0447 O   0  0  0  0  0  0  0  0  0  0  0  0
   -3.6308    4.5884    5.2043 C   0  0  2  0  0  0  0  0  0  0  0  0
   -3.8551    5.0302    6.6566 C   0  0  0  0  0  0  0  0  0  0  0  0
   -3.8144    6.4793    6.7909 N   0  0  0  0  0  0  0  0  0  0  0  0
   -4.5760    3.4219    4.8617 C   0  0  1  0  0  0  0  0  0  0  0  0
   -5.9224    3.8483    4.9709 O   0  0  0  0  0  0  0  0  0  0  0  0
   -4.2895    2.9600    3.4274 C   0  0  2  0  0  0  0  0  0  0  0  0
   -5.0823    1.8308    3.1122 O   0  0  0  0  0  0  0  0  0  0  0  0
   -2.8010    2.6311    3.2511 C   0  0  1  0  0  0  0  0  0  0  0  0
   -2.5171    2.3136    1.8443 N   0  0  0  0  0  0  0  0  0  0  0  0
    2.7954    2.8049    1.9288 C   0  0  2  0  0  0  0  0  0  0  0  0
    3.4513    2.7305    0.6767 O   0  0  0  0  0  0  0  0  0  0  0  0
    2.7959    1.4793    2.6886 C   0  0  2  0  0  0  0  0  0  0  0  0
    3.9711    0.7162    2.4997 O   0  0  0  0  0  0  0  0  0  0  0  0
  2  1  1  0  0  0  0
  3  2  1  1  0  0  0
  3 30  1  0  0  0  0
  4  5  1  0  0  0  0
  4  3  1  0  0  0  0
  5 28  1  0  0  0  0
  5  6  1  1  0  0  0
  7  6  1  1  0  0  0
  8  7  1  0  0  0  0
  8  9  1  6  0  0  0
 10 11  1  1  0  0  0
 10  8  1  0  0  0  0
 12 10  1  0  0  0  0
 13 12  1  0  0  0  0
 13 15  1  0  0  0  0
 13 14  1  1  0  0  0
 15  7  1  0  0  0  0
 15 16  1  6  0  0  0
 17 16  1  6  0  0  0
 18 17  1  0  0  0  0
 19 20  1  1  0  0  0
 19 18  1  0  0  0  0
 20 21  1  0  0  0  0
 22 24  1  0  0  0  0
 22 19  1  0  0  0  0
 22 23  1  6  0  0  0
 24 25  1  1  0  0  0
 24 26  1  0  0  0  0
 26 17  1  0  0  0  0
 26 27  1  6  0  0  0
 28 29  1  6  0  0  0
 28 30  1  0  0  0  0
 30 31  1  6  0  0  0
M  END
>  <CHROM.1>
50.98196082,-55.35357790,-120.90369722,-100.17725456,60.60319451,179.12641387
89.83398982,88.18466162,78.15899649,98.79089070,-60.89943782,44.31893680
-63.58820316,51.41426915,-56.26758846,-62.99341767,-0.70013457,4.06357223
3.03839796,0.19496756,-0.43336236,3.04419510

>  <Name>
lig.pdb

>  <RI>
0

>  <Rbt.Current_Directory>
/home/itssahil/PROJECTS/Mol_Feturizer/New_Systems/rnas/2n0j

>  <Rbt.Executable>
rbdock ($Id: //depot/dev/client3/rdock/2013.1/src/exe/rbdock.cxx#4 $)

>  <Rbt.Library>
libRbt.so (2013.1, Build901 2013/11/27)

>  <Rbt.Parameter_File>
/export/apps/rDock/src/rDock_2013.1_src/data/scripts/dock_solv.prm

>  <Rbt.Receptor>
prm/pocket_docking_5.prm

>  <SCORE>
-40.5499

>  <SCORE.INTER>
-40.1238

>  <SCORE.INTER.CONST>
1

>  <SCORE.INTER.POLAR>
-4.41592

>  <SCORE.INTER.ROT>
6

>  <SCORE.INTER.SOLV>
17.0545

>  <SCORE.INTER.VDW>
-25.3143

>  <SCORE.INTER.norm>
-1.29432

>  <SCORE.INTRA>
-0.426112

>  <SCORE.INTRA.DIHEDRAL>
-2.74844

>  <SCORE.INTRA.DIHEDRAL.0>
28.0161

>  <SCORE.INTRA.POLAR>
0.0866089

>  <SCORE.INTRA.POLAR.0>
-1.05798

>  <SCORE.INTRA.REPUL>
0

>  <SCORE.INTRA.REPUL.0>
0

>  <SCORE.INTRA.SOLV>
0.473846

>  <SCORE.INTRA.SOLV.lig_0>
-42.5945

>  <SCORE.INTRA.VDW>
0.416717

>  <SCORE.INTRA.VDW.0>
-5.13869

>  <SCORE.INTRA.norm>
-0.0137455

>  <SCORE.RESTR>
0

>  <SCORE.RESTR.CAVITY>
0

>  <SCORE.RESTR.norm>
0

>  <SCORE.SYSTEM>
0

>  <SCORE.SYSTEM.CONST>
0

>  <SCORE.SYSTEM.DIHEDRAL>
0

>  <SCORE.SYSTEM.SOLV>
0

>  <SCORE.SYSTEM.norm>
0

>  <SCORE.heavy>
31

>  <SCORE.norm>
-1.30806

>  <RMSD>
7.293

$$$$
lig.pdb
 OpenBabel11021811453D
libRbt.so/2013.1/901 2013/11/27
 31 33  0  0  0  0  0  0  0  0999 V2000
   -0.5474   -0.4262   -1.0597 O   0  0  0  0  0  0  0  0  0  0  0  0
   -0.8669   -0.0849    0.2751 C   0  0  0  0  0  0  0  0  0  0  0  0
    0.2668    0.7090    0.9380 C   0  0  1  0  0  0  0  0  0  0  0  0
   -0.1674    1.9894    1.3683 O   0  0  0  0  0  0  0  0  0  0  0  0
    0.6451    2.4311    2.4516 C   0  0  1  0  0  0  0  0  0  0  0  0
   -0.1778    2.9195    3.5043 O   0  0  0  0  0  0  0  0  0  0  0  0
   -1.1586    3.8863    3.1636 C   0  0  2  0  0  0  0  0  0  0  0  0
   -0.4255    5.1839    2.7879 C   0  0  1  0  0  0  0  0  0  0  0  0
    0.2620    5.0060    1.5594 O   0  0  0  0  0  0  0  0  0  0  0  0
   -1.3495    6.4000    2.6225 C   0  0  2  0  0  0  0  0  0  0  0  0
   -0.5729    7.6215    2.3600 N   0  0  0  0  0  0  0  0  0  0  0  0
   -2.1811    6.5893    3.8857 C   0  0  0  0  0  0  0  0  0  0  0  0
   -2.9558    5.3119    4.1862 C   0  0  2  0  0  0  0  0  0  0  0  0
   -3.7873    5.5406    5.3728 N   0  0  0  0  0  0  0  0  0  0  0  0
   -1.9842    4.1288    4.3863 C   0  0  1  0  0  0  0  0  0  0  0  0
   -2.8156    2.9948    4.6769 O   0  0  0  0  0  0  0  0  0  0  0  0
   -2.2263    1.9299    5.4155 C   0  0  1  0  0  0  0  0  0  0  0  0
   -1.6633    2.4127    6.6322 O   0  0  0  0  0  0  0  0  0  0  0  0
   -2.5880    2.8662    7.6185 C   0  0  2  0  0  0  0  0  0  0  0  0
   -1.8069    3.3433    8.8501 C   0  0  0  0  0  0  0  0  0  0  0  0
   -1.0233    4.5361    8.5617 N   0  0  0  0  0  0  0  0  0  0  0  0
   -3.5576    1.7391    8.0199 C   0  0  1  0  0  0  0  0  0  0  0  0
   -4.5014    2.2296    8.9554 O   0  0  0  0  0  0  0  0  0  0  0  0
   -4.2802    1.2392    6.7627 C   0  0  2  0  0  0  0  0  0  0  0  0
   -5.1151    0.1428    7.0848 O   0  0  0  0  0  0  0  0  0  0  0  0
   -3.2693    0.8382    5.6799 C   0  0  1  0  0  0  0  0  0  0  0  0
   -3.9727    0.4832    4.4391 N   0  0  0  0  0  0  0  0  0  0  0  0
    1.4350    1.2090    2.9422 C   0  0  2  0  0  0  0  0  0  0  0  0
    2.7996    1.3471    2.5922 O   0  0  0  0  0  0  0  0  0  0  0  0
    0.7446    0.0486    2.2273 C   0  0  2  0  0  0  0  0  0  0  0  0
    1.5836   -1.0698    2.0170 O   0  0  0  0  0  0  0  0  0  0  0  0
  2  1  1  0  0  0  0
  3  2  1  1  0  0  0
  3 30  1  0  0  0  0
  4  5  1  0  0  0  0
  4  3  1  0  0  0  0
  5 28  1  0  0  0  0
  5  6  1  1  0  0  0
  7  6  1  1  0  0  0
  8  7  1  0  0  0  0
  8  9  1  6  0  0  0
 10 11  1  1  0  0  0
 10  8  1  0  0  0  0
 12 10  1  0  0  0  0
 13 12  1  0  0  0  0
 13 15  1  0  0  0  0
 13 14  1  1  0  0  0
 15  7  1  0  0  0  0
 15 16  1  6  0  0  0
 17 16  1  1  0  0  0
 18 17  1  0  0  0  0
 19 20  1  1  0  0  0
 19 18  1  0  0  0  0
 20 21  1  0  0  0  0
 22 24  1  0  0  0  0
 22 19  1  0  0  0  0
 22 23  1  1  0  0  0
 24 25  1  1  0  0  0
 24 26  1  0  0  0  0
 26 17  1  0  0  0  0
 26 27  1  6  0  0  0
 28 29  1  6  0  0  0
 28 30  1  0  0  0  0
 30 31  1  6  0  0  0
M  END
>  <CHROM.1>
-174.33067388,120.39708919,-51.56248246,-68.85459152,-166.82778370,170.82413095
65.43939904,83.88947624,54.40410859,66.87457228,65.20220850,-60.34993066
60.51849677,64.93167128,179.30360540,-53.10748899,-1.45753197,2.68392774
4.19875882,0.23529094,-0.99743998,-3.09236614

>  <Name>
lig.pdb

>  <RI>
3.50357e+07

>  <Rbt.Current_Directory>
/home/itssahil/PROJECTS/Mol_Feturizer/New_Systems/rnas/2n0j

>  <Rbt.Executable>
rbdock ($Id: //depot/dev/client3/rdock/2013.1/src/exe/rbdock.cxx#4 $)

>  <Rbt.Library>
libRbt.so (2013.1, Build901 2013/11/27)

>  <Rbt.Parameter_File>
/export/apps/rDock/src/rDock_2013.1_src/data/scripts/dock_solv.prm

>  <Rbt.Receptor>
prm/pocket_docking_3.prm

>  <SCORE>
-29.9085

>  <SCORE.INTER>
-26.7227

>  <SCORE.INTER.CONST>
1

>  <SCORE.INTER.POLAR>
-3.16097

>  <SCORE.INTER.ROT>
6

>  <SCORE.INTER.SOLV>
15.2418

>  <SCORE.INTER.VDW>
-19.9592

>  <SCORE.INTER.norm>
-0.862024

>  <SCORE.INTRA>
-3.24656

>  <SCORE.INTRA.DIHEDRAL>
-17.3091

>  <SCORE.INTRA.DIHEDRAL.0>
28.0161

>  <SCORE.INTRA.POLAR>
1.02707

>  <SCORE.INTRA.POLAR.0>
-1.05798

>  <SCORE.INTRA.REPUL>
0

>  <SCORE.INTRA.REPUL.0>
0

>  <SCORE.INTRA.SOLV>
-0.749286

>  <SCORE.INTRA.SOLV.lig_0>
-42.5945

>  <SCORE.INTRA.VDW>
2.29061

>  <SCORE.INTRA.VDW.0>
-5.13869

>  <SCORE.INTRA.norm>
-0.104728

>  <SCORE.RESTR>
0.060758

>  <SCORE.RESTR.CAVITY>
0.060758

>  <SCORE.RESTR.norm>
0.00195994

>  <SCORE.SYSTEM>
0

>  <SCORE.SYSTEM.CONST>
0

>  <SCORE.SYSTEM.DIHEDRAL>
0

>  <SCORE.SYSTEM.SOLV>
0

>  <SCORE.SYSTEM.norm>
0

>  <SCORE.heavy>
31

>  <SCORE.norm>
-0.964792

>  <RMSD>
7.298

$$$$
lig.pdb
 OpenBabel11021811453D
libRbt.so/2013.1/901 2013/11/27
 31 33  0  0  0  0  0  0  0  0999 V2000
    5.0832    8.7371   -1.9166 O   0  0  0  0  0  0  0  0  0  0  0  0
    5.3264    7.3640   -2.1524 C   0  0  0  0  0  0  0  0  0  0  0  0
    5.5394    6.5984   -0.8395 C   0  0  1  0  0  0  0  0  0  0  0  0
    4.3191    6.3901   -0.1463 O   0  0  0  0  0  0  0  0  0  0  0  0
    4.4278    5.2328    0.6769 C   0  0  1  0  0  0  0  0  0  0  0  0
    3.2888    4.4007    0.4927 O   0  0  0  0  0  0  0  0  0  0  0  0
    2.8794    3.6100    1.5972 C   0  0  2  0  0  0  0  0  0  0  0  0
    3.7379    2.3352    1.6034 C   0  0  1  0  0  0  0  0  0  0  0  0
    5.0758    2.6614    1.9454 O   0  0  0  0  0  0  0  0  0  0  0  0
    3.2609    1.2636    2.5955 C   0  0  2  0  0  0  0  0  0  0  0  0
    4.0672    0.0388    2.4781 N   0  0  0  0  0  0  0  0  0  0  0  0
    1.7964    0.9341    2.3314 C   0  0  0  0  0  0  0  0  0  0  0  0
    0.9619    2.2066    2.4102 C   0  0  2  0  0  0  0  0  0  0  0  0
   -0.4470    1.8522    2.2070 N   0  0  0  0  0  0  0  0  0  0  0  0
    1.4504    3.2351    1.3675 C   0  0  1  0  0  0  0  0  0  0  0  0
    0.5903    4.3745    1.5204 O   0  0  0  0  0  0  0  0  0  0  0  0
    0.5580    4.9965    2.8006 C   0  0  1  0  0  0  0  0  0  0  0  0
    1.7910    5.6583    3.0698 O   0  0  0  0  0  0  0  0  0  0  0  0
    2.0717    6.8133    2.2819 C   0  0  2  0  0  0  0  0  0  0  0  0
    3.4282    7.3890    2.7096 C   0  0  0  0  0  0  0  0  0  0  0  0
    4.0292    8.1920    1.6542 N   0  0  0  0  0  0  0  0  0  0  0  0
    0.9733    7.8780    2.4596 C   0  0  1  0  0  0  0  0  0  0  0  0
    1.2436    8.9893    1.6238 O   0  0  0  0  0  0  0  0  0  0  0  0
   -0.3788    7.2592    2.0840 C   0  0  2  0  0  0  0  0  0  0  0  0
   -1.4212    8.1868    2.3205 O   0  0  0  0  0  0  0  0  0  0  0  0
   -0.6240    5.9693    2.8786 C   0  0  1  0  0  0  0  0  0  0  0  0
   -1.8598    5.3199    2.4186 N   0  0  0  0  0  0  0  0  0  0  0  0
    5.6898    4.4831    0.2257 C   0  0  2  0  0  0  0  0  0  0  0  0
    6.6960    4.5980    1.2146 O   0  0  0  0  0  0  0  0  0  0  0  0
    6.0504    5.1821   -1.0842 C   0  0  2  0  0  0  0  0  0  0  0  0
    7.4268    5.1204   -1.4015 O   0  0  0  0  0  0  0  0  0  0  0  0
  2  1  1  0  0  0  0
  3  2  1  6  0  0  0
  3 30  1  0  0  0  0
  4  5  1  0  0  0  0
  4  3  1  0  0  0  0
  5 28  1  0  0  0  0
  5  6  1  6  0  0  0
  7  6  1  6  0  0  0
  8  7  1  0  0  0  0
  8  9  1  1  0  0  0
 10 11  1  6  0  0  0
 10  8  1  0  0  0  0
 12 10  1  0  0  0  0
 13 12  1  0  0  0  0
 13 15  1  0  0  0  0
 13 14  1  6  0  0  0
 15  7  1  0  0  0  0
 15 16  1  1  0  0  0
 17 16  1  6  0  0  0
 18 17  1  0  0  0  0
 19 20  1  1  0  0  0
 19 18  1  0  0  0  0
 20 21  1  0  0  0  0
 22 24  1  0  0  0  0
 22 19  1  0  0  0  0
 22 23  1  6  0  0  0
 24 25  1  1  0  0  0
 24 26  1  0  0  0  0
 26 17  1  0  0  0  0
 26 27  1  6  0  0  0
 28 29  1  1  0  0  0
 28 30  1  0  0  0  0
 30 31  1  1  0  0  0
M  END
>  <CHROM.1>
-47.23877214,75.05727540,-150.14401905,-83.13320614,58.07915123,60.61588370
-49.24111683,-62.10202367,69.56698010,156.91829239,-160.50406919,-84.71446329
172.15486776,80.13323689,80.73750545,-47.41841995,2.81587054,5.10266801,1.32515116
0.25032915,0.42294411,-0.22160916

>  <Name>
lig.pdb

>  <RI>
0

>  <Rbt.Current_Directory>
/home/itssahil/PROJECTS/Mol_Feturizer/New_Systems/rnas/2n0j

>  <Rbt.Executable>
rbdock ($Id: //depot/dev/client3/rdock/2013.1/src/exe/rbdock.cxx#4 $)

>  <Rbt.Library>
libRbt.so (2013.1, Build901 2013/11/27)

>  <Rbt.Parameter_File>
/export/apps/rDock/src/rDock_2013.1_src/data/scripts/dock_solv.prm

>  <Rbt.Receptor>
prm/pocket_docking_8.prm

>  <SCORE>
-36.8322

>  <SCORE.INTER>
-35.5897

>  <SCORE.INTER.CONST>
1

>  <SCORE.INTER.POLAR>
-4.47314

>  <SCORE.INTER.ROT>
6

>  <SCORE.INTER.SOLV>
17.6604

>  <SCORE.INTER.VDW>
-22.3028

>  <SCORE.INTER.norm>
-1.14805

>  <SCORE.INTRA>
-1.24254

>  <SCORE.INTRA.DIHEDRAL>
-10.4181

>  <SCORE.INTRA.DIHEDRAL.0>
28.0161

>  <SCORE.INTRA.POLAR>
-0.45686

>  <SCORE.INTRA.POLAR.0>
-1.05798

>  <SCORE.INTRA.REPUL>
0.00768723

>  <SCORE.INTRA.REPUL.0>
0

>  <SCORE.INTRA.SOLV>
2.30013

>  <SCORE.INTRA.SOLV.lig_0>
-42.5945

>  <SCORE.INTRA.VDW>
4.33133

>  <SCORE.INTRA.VDW.0>
-5.13869

>  <SCORE.INTRA.norm>
-0.0400819

>  <SCORE.RESTR>
0

>  <SCORE.RESTR.CAVITY>
0

>  <SCORE.RESTR.norm>
0

>  <SCORE.SYSTEM>
0

>  <SCORE.SYSTEM.CONST>
0

>  <SCORE.SYSTEM.DIHEDRAL>
0

>  <SCORE.SYSTEM.SOLV>
0

>  <SCORE.SYSTEM.norm>
0

>  <SCORE.heavy>
31

>  <SCORE.norm>
-1.18814

>  <RMSD>
7.302

$$$$
lig.pdb
 OpenBabel11021811453D
libRbt.so/2013.1/901 2013/11/27
 31 33  0  0  0  0  0  0  0  0999 V2000
    0.1990   -2.0103    2.4493 O   0  0  0  0  0  0  0  0  0  0  0  0
    1.0951   -1.2061    3.1912 C   0  0  0  0  0  0  0  0  0  0  0  0
    1.4229    0.0979    2.4515 C   0  0  1  0  0  0  0  0  0  0  0  0
    0.3427    1.0167    2.4981 O   0  0  0  0  0  0  0  0  0  0  0  0
    0.8390    2.3457    2.3707 C   0  0  1  0  0  0  0  0  0  0  0  0
    0.2588    3.1754    3.3700 O   0  0  0  0  0  0  0  0  0  0  0  0
   -0.6798    4.1480    2.9388 C   0  0  2  0  0  0  0  0  0  0  0  0
    0.1070    5.3199    2.3306 C   0  0  1  0  0  0  0  0  0  0  0  0
    0.7024    4.9129    1.1086 O   0  0  0  0  0  0  0  0  0  0  0  0
   -0.7484    6.5604    2.0313 C   0  0  2  0  0  0  0  0  0  0  0  0
    0.0841    7.6710    1.5441 N   0  0  0  0  0  0  0  0  0  0  0  0
   -1.4845    6.9939    3.2936 C   0  0  0  0  0  0  0  0  0  0  0  0
   -2.3162    5.8337    3.8266 C   0  0  2  0  0  0  0  0  0  0  0  0
   -3.0546    6.2947    5.0073 N   0  0  0  0  0  0  0  0  0  0  0  0
   -1.4092    4.6276    4.1526 C   0  0  1  0  0  0  0  0  0  0  0  0
   -2.2891    3.6113    4.6571 O   0  0  0  0  0  0  0  0  0  0  0  0
   -1.7875    2.7742    5.6936 C   0  0  1  0  0  0  0  0  0  0  0  0
   -1.4764    3.5411    6.8536 O   0  0  0  0  0  0  0  0  0  0  0  0
   -2.5844    4.1022    7.5542 C   0  0  2  0  0  0  0  0  0  0  0  0
   -2.0614    4.8857    8.7655 C   0  0  0  0  0  0  0  0  0  0  0  0
   -2.0673    6.3211    8.5215 N   0  0  0  0  0  0  0  0  0  0  0  0
   -3.5512    2.9993    8.0240 C   0  0  1  0  0  0  0  0  0  0  0  0
   -4.6708    3.5845    8.6646 O   0  0  0  0  0  0  0  0  0  0  0  0
   -4.0109    2.1935    6.8026 C   0  0  2  0  0  0  0  0  0  0  0  0
   -4.8327    1.1162    7.2115 O   0  0  0  0  0  0  0  0  0  0  0  0
   -2.8037    1.6716    6.0118 C   0  0  1  0  0  0  0  0  0  0  0  0
   -3.2549    1.0120    4.7782 N   0  0  0  0  0  0  0  0  0  0  0  0
    2.3586    2.2749    2.5807 C   0  0  2  0  0  0  0  0  0  0  0  0
    3.0243    2.5034    1.3526 O   0  0  0  0  0  0  0  0  0  0  0  0
    2.5616    0.8604    3.1215 C   0  0  2  0  0  0  0  0  0  0  0  0
    3.8420    0.3260    2.8496 O   0  0  0  0  0  0  0  0  0  0  0  0
  2  1  1  0  0  0  0
  3  2  1  1  0  0  0
  3 30  1  0  0  0  0
  4  5  1  0  0  0  0
  4  3  1  0  0  0  0
  5 28  1  0  0  0  0
  5  6  1  1  0  0  0
  7  6  1  1  0  0  0
  8  7  1  0  0  0  0
  8  9  1  6  0  0  0
 10 11  1  1  0  0  0
 10  8  1  0  0  0  0
 12 10  1  0  0  0  0
 13 12  1  0  0  0  0
 13 15  1  0  0  0  0
 13 14  1  1  0  0  0
 15  7  1  0  0  0  0
 15 16  1  6  0  0  0
 17 16  1  6  0  0  0
 18 17  1  0  0  0  0
 19 20  1  1  0  0  0
 19 18  1  0  0  0  0
 20 21  1  0  0  0  0
 22 24  1  0  0  0  0
 22 19  1  0  0  0  0
 22 23  1  6  0  0  0
 24 25  1  1  0  0  0
 24 26  1  0  0  0  0
 26 17  1  0  0  0  0
 26 27  1  6  0  0  0
 28 29  1  6  0  0  0
 28 30  1  0  0  0  0
 30 31  1  6  0  0  0
M  END
>  <CHROM.1>
65.33657219,74.36133553,-109.64956225,-77.68344800,52.00140818,58.58112297
-155.14685142,94.67174695,62.08418179,102.41389003,-151.26449795,-63.37053750
64.16294234,73.75390110,-56.85534837,54.60866044,-0.91818651,3.20356468,4.38250641
0.18021616,-0.83031059,2.91937874

>  <Name>
lig.pdb

>  <RI>
2.74555e+07

>  <Rbt.Current_Directory>
/home/itssahil/PROJECTS/Mol_Feturizer/New_Systems/rnas/2n0j

>  <Rbt.Executable>
rbdock ($Id: //depot/dev/client3/rdock/2013.1/src/exe/rbdock.cxx#4 $)

>  <Rbt.Library>
libRbt.so (2013.1, Build901 2013/11/27)

>  <Rbt.Parameter_File>
/export/apps/rDock/src/rDock_2013.1_src/data/scripts/dock_solv.prm

>  <Rbt.Receptor>
prm/pocket_docking_6.prm

>  <SCORE>
-34.7588

>  <SCORE.INTER>
-36.5745

>  <SCORE.INTER.CONST>
1

>  <SCORE.INTER.POLAR>
-4.08623

>  <SCORE.INTER.ROT>
6

>  <SCORE.INTER.SOLV>
17.5526

>  <SCORE.INTER.VDW>
-24.2131

>  <SCORE.INTER.norm>
-1.17982

>  <SCORE.INTRA>
1.81573

>  <SCORE.INTRA.DIHEDRAL>
-5.87946

>  <SCORE.INTRA.DIHEDRAL.0>
28.0161

>  <SCORE.INTRA.POLAR>
0.946806

>  <SCORE.INTRA.POLAR.0>
-1.05798

>  <SCORE.INTRA.REPUL>
0

>  <SCORE.INTRA.REPUL.0>
0

>  <SCORE.INTRA.SOLV>
-0.294435

>  <SCORE.INTRA.SOLV.lig_0>
-42.5945

>  <SCORE.INTRA.VDW>
1.68354

>  <SCORE.INTRA.VDW.0>
-5.13869

>  <SCORE.INTRA.norm>
0.0585719

>  <SCORE.RESTR>
0

>  <SCORE.RESTR.CAVITY>
0

>  <SCORE.RESTR.norm>
0

>  <SCORE.SYSTEM>
0

>  <SCORE.SYSTEM.CONST>
0

>  <SCORE.SYSTEM.DIHEDRAL>
0

>  <SCORE.SYSTEM.SOLV>
0

>  <SCORE.SYSTEM.norm>
0

>  <SCORE.heavy>
31

>  <SCORE.norm>
-1.12125

>  <RMSD>
7.307

$$$$
lig.pdb
 OpenBabel11021811453D
libRbt.so/2013.1/901 2013/11/27
 31 33  0  0  0  0  0  0  0  0999 V2000
    6.3530    3.4968   -0.1228 O   0  0  0  0  0  0  0  0  0  0  0  0
    5.5625    3.4027    1.0462 C   0  0  0  0  0  0  0  0  0  0  0  0
    4.5300    4.5359    1.1179 C   0  0  1  0  0  0  0  0  0  0  0  0
    3.2188    4.0736    0.8348 O   0  0  0  0  0  0  0  0  0  0  0  0
    2.2654    4.9208    1.4687 C   0  0  1  0  0  0  0  0  0  0  0  0
    1.3002    4.1326    2.1550 O   0  0  0  0  0  0  0  0  0  0  0  0
   -0.0643    4.4746    1.9704 C   0  0  2  0  0  0  0  0  0  0  0  0
   -0.2784    5.8780    2.5593 C   0  0  1  0  0  0  0  0  0  0  0  0
    0.3852    6.8404    1.7549 O   0  0  0  0  0  0  0  0  0  0  0  0
   -1.7527    6.2995    2.6535 C   0  0  2  0  0  0  0  0  0  0  0  0
   -1.8870    7.6076    3.3131 N   0  0  0  0  0  0  0  0  0  0  0  0
   -2.5374    5.2535    3.4366 C   0  0  0  0  0  0  0  0  0  0  0  0
   -2.3677    3.8882    2.7816 C   0  0  2  0  0  0  0  0  0  0  0  0
   -3.1757    2.9134    3.5222 N   0  0  0  0  0  0  0  0  0  0  0  0
   -0.8765    3.4896    2.7485 C   0  0  1  0  0  0  0  0  0  0  0  0
   -0.8394    2.1935    2.1319 O   0  0  0  0  0  0  0  0  0  0  0  0
    0.4310    1.5593    2.0296 C   0  0  1  0  0  0  0  0  0  0  0  0
    0.7292    0.8350    3.2200 O   0  0  0  0  0  0  0  0  0  0  0  0
   -0.0646   -0.3232    3.4688 C   0  0  2  0  0  0  0  0  0  0  0  0
    0.3970   -0.9694    4.7818 C   0  0  0  0  0  0  0  0  0  0  0  0
    0.6369    0.0263    5.8166 N   0  0  0  0  0  0  0  0  0  0  0  0
    0.0656   -1.3350    2.3151 C   0  0  1  0  0  0  0  0  0  0  0  0
   -0.7758   -2.4485    2.5572 O   0  0  0  0  0  0  0  0  0  0  0  0
   -0.3432   -0.6466    1.0069 C   0  0  2  0  0  0  0  0  0  0  0  0
   -0.1507   -1.5249   -0.0861 O   0  0  0  0  0  0  0  0  0  0  0  0
    0.4602    0.6445    0.7999 C   0  0  1  0  0  0  0  0  0  0  0  0
   -0.0291    1.3587   -0.3880 N   0  0  0  0  0  0  0  0  0  0  0  0
    3.0377    5.7815    2.4791 C   0  0  2  0  0  0  0  0  0  0  0  0
    3.0958    7.1205    2.0239 O   0  0  0  0  0  0  0  0  0  0  0  0
    4.4055    5.1026    2.5287 C   0  0  2  0  0  0  0  0  0  0  0  0
    5.4600    5.9735    2.8874 O   0  0  0  0  0  0  0  0  0  0  0  0
  2  1  1  0  0  0  0
  3  2  1  1  0  0  0
  3 30  1  0  0  0  0
  4  5  1  0  0  0  0
  4  3  1  0  0  0  0
  5 28  1  0  0  0  0
  5  6  1  1  0  0  0
  7  6  1  1  0  0  0
  8  7  1  0  0  0  0
  8  9  1  6  0  0  0
 10 11  1  1  0  0  0
 10  8  1  0  0  0  0
 12 10  1  0  0  0  0
 13 12  1  0  0  0  0
 13 15  1  0  0  0  0
 13 14  1  1  0  0  0
 15  7  1  0  0  0  0
 15 16  1  6  0  0  0
 17 16  1  1  0  0  0
 18 17  1  0  0  0  0
 19 20  1  1  0  0  0
 19 18  1  0  0  0  0
 20 21  1  0  0  0  0
 22 24  1  0  0  0  0
 22 19  1  0  0  0  0
 22 23  1  1  0  0  0
 24 25  1  6  0  0  0
 24 26  1  0  0  0  0
 26 17  1  0  0  0  0
 26 27  1  6  0  0  0
 28 29  1  6  0  0  0
 28 30  1  0  0  0  0
 30 31  1  6  0  0  0
M  END
>  <CHROM.1>
64.87680624,105.94261288,-133.33752169,-64.46858756,65.92445966,-174.20426242
56.24430022,61.89603327,86.17127146,43.00144428,51.57285994,-68.03705446
-73.61203042,-74.81565893,-177.27182432,-178.36927144,0.89635659,3.05362752
2.21895358,-1.02354404,-0.27193469,-3.08257708

>  <Name>
lig.pdb

>  <RI>
2.74555e+07

>  <Rbt.Current_Directory>
/home/itssahil/PROJECTS/Mol_Feturizer/New_Systems/rnas/2n0j

>  <Rbt.Executable>
rbdock ($Id: //depot/dev/client3/rdock/2013.1/src/exe/rbdock.cxx#4 $)

>  <Rbt.Library>
libRbt.so (2013.1, Build901 2013/11/27)

>  <Rbt.Parameter_File>
/export/apps/rDock/src/rDock_2013.1_src/data/scripts/dock_solv.prm

>  <Rbt.Receptor>
prm/pocket_docking_6.prm

>  <SCORE>
-40.5935

>  <SCORE.INTER>
-42.1417

>  <SCORE.INTER.CONST>
1

>  <SCORE.INTER.POLAR>
-6.30516

>  <SCORE.INTER.ROT>
6

>  <SCORE.INTER.SOLV>
16.7801

>  <SCORE.INTER.VDW>
-20.2706

>  <SCORE.INTER.norm>
-1.35941

>  <SCORE.INTRA>
1.54821

>  <SCORE.INTRA.DIHEDRAL>
-10.482

>  <SCORE.INTRA.DIHEDRAL.0>
28.0161

>  <SCORE.INTRA.POLAR>
1.05798

>  <SCORE.INTRA.POLAR.0>
-1.05798

>  <SCORE.INTRA.REPUL>
0

>  <SCORE.INTRA.REPUL.0>
0

>  <SCORE.INTRA.SOLV>
-0.203975

>  <SCORE.INTRA.SOLV.lig_0>
-42.5945

>  <SCORE.INTRA.VDW>
3.29405

>  <SCORE.INTRA.VDW.0>
-5.13869

>  <SCORE.INTRA.norm>
0.0499422

>  <SCORE.RESTR>
0

>  <SCORE.RESTR.CAVITY>
0

>  <SCORE.RESTR.norm>
0

>  <SCORE.SYSTEM>
0

>  <SCORE.SYSTEM.CONST>
0

>  <SCORE.SYSTEM.DIHEDRAL>
0

>  <SCORE.SYSTEM.SOLV>
0

>  <SCORE.SYSTEM.norm>
0

>  <SCORE.heavy>
31

>  <SCORE.norm>
-1.30947

>  <RMSD>
7.308

$$$$
lig.pdb
 OpenBabel11021811453D
libRbt.so/2013.1/901 2013/11/27
 31 33  0  0  0  0  0  0  0  0999 V2000
    6.9834    6.2553    2.3316 O   0  0  0  0  0  0  0  0  0  0  0  0
    5.6044    6.3181    2.0240 C   0  0  0  0  0  0  0  0  0  0  0  0
    4.8905    5.0062    2.3772 C   0  0  1  0  0  0  0  0  0  0  0  0
    3.4819    5.1222    2.2530 O   0  0  0  0  0  0  0  0  0  0  0  0
    2.9177    3.8412    1.9892 C   0  0  1  0  0  0  0  0  0  0  0  0
    2.0016    3.9314    0.9045 O   0  0  0  0  0  0  0  0  0  0  0  0
    0.7094    4.4430    1.1897 C   0  0  2  0  0  0  0  0  0  0  0  0
    0.8728    5.9054    1.6333 C   0  0  1  0  0  0  0  0  0  0  0  0
    1.2737    6.6986    0.5272 O   0  0  0  0  0  0  0  0  0  0  0  0
   -0.4073    6.5331    2.2056 C   0  0  2  0  0  0  0  0  0  0  0  0
   -0.1530    7.8960    2.6974 N   0  0  0  0  0  0  0  0  0  0  0  0
   -0.9360    5.6724    3.3470 C   0  0  0  0  0  0  0  0  0  0  0  0
   -1.1615    4.2483    2.8538 C   0  0  2  0  0  0  0  0  0  0  0  0
   -1.7208    3.4577    3.9556 N   0  0  0  0  0  0  0  0  0  0  0  0
    0.1595    3.6459    2.3288 C   0  0  1  0  0  0  0  0  0  0  0  0
   -0.1668    2.3116    1.9108 O   0  0  0  0  0  0  0  0  0  0  0  0
    0.9190    1.4429    1.6058 C   0  0  1  0  0  0  0  0  0  0  0  0
    1.4538    0.8689    2.7954 O   0  0  0  0  0  0  0  0  0  0  0  0
    0.6194   -0.0676    3.4737 C   0  0  2  0  0  0  0  0  0  0  0  0
    1.3554   -0.5774    4.7200 C   0  0  0  0  0  0  0  0  0  0  0  0
    2.7964   -0.4057    4.6020 N   0  0  0  0  0  0  0  0  0  0  0  0
    0.2658   -1.2522    2.5554 C   0  0  1  0  0  0  0  0  0  0  0  0
   -0.6095   -2.1375    3.2310 O   0  0  0  0  0  0  0  0  0  0  0  0
   -0.4131   -0.7106    1.2912 C   0  0  2  0  0  0  0  0  0  0  0  0
   -0.6719   -1.7679    0.3867 O   0  0  0  0  0  0  0  0  0  0  0  0
    0.4606    0.3596    0.6229 C   0  0  1  0  0  0  0  0  0  0  0  0
   -0.2555    0.9599   -0.5117 N   0  0  0  0  0  0  0  0  0  0  0  0
    4.0799    2.9142    1.6040 C   0  0  2  0  0  0  0  0  0  0  0  0
    4.3135    1.9805    2.6418 O   0  0  0  0  0  0  0  0  0  0  0  0
    5.2385    3.8888    1.3989 C   0  0  2  0  0  0  0  0  0  0  0  0
    6.5111    3.3140    1.6205 O   0  0  0  0  0  0  0  0  0  0  0  0
  2  1  1  0  0  0  0
  3  2  1  6  0  0  0
  3 30  1  0  0  0  0
  4  5  1  0  0  0  0
  4  3  1  0  0  0  0
  5 28  1  0  0  0  0
  5  6  1  6  0  0  0
  7  6  1  1  0  0  0
  8  7  1  0  0  0  0
  8  9  1  6  0  0  0
 10 11  1  1  0  0  0
 10  8  1  0  0  0  0
 12 10  1  0  0  0  0
 13 12  1  0  0  0  0
 13 15  1  0  0  0  0
 13 14  1  1  0  0  0
 15  7  1  0  0  0  0
 15 16  1  6  0  0  0
 17 16  1  1  0  0  0
 18 17  1  0  0  0  0
 19 20  1  1  0  0  0
 19 18  1  0  0  0  0
 20 21  1  0  0  0  0
 22 24  1  0  0  0  0
 22 19  1  0  0  0  0
 22 23  1  1  0  0  0
 24 25  1  6  0  0  0
 24 26  1  0  0  0  0
 26 17  1  0  0  0  0
 26 27  1  6  0  0  0
 28 29  1  1  0  0  0
 28 30  1  0  0  0  0
 30 31  1  1  0  0  0
M  END
>  <CHROM.1>
-175.42920058,171.59577217,-79.29886154,64.34652523,-170.83962785,177.54059720
176.42700199,70.21634780,82.05193101,-22.03657385,-40.30493742,-81.04895359
60.73757569,-126.57504721,-174.65592946,-175.48707808,1.65335692,2.89247687
2.15186453,-1.03595734,-0.00057469,3.08558618

>  <Name>
lig.pdb

>  <RI>
0

>  <Rbt.Current_Directory>
/home/itssahil/PROJECTS/Mol_Feturizer/New_Systems/rnas/2n0j

>  <Rbt.Executable>
rbdock ($Id: //depot/dev/client3/rdock/2013.1/src/exe/rbdock.cxx#4 $)

>  <Rbt.Library>
libRbt.so (2013.1, Build901 2013/11/27)

>  <Rbt.Parameter_File>
/export/apps/rDock/src/rDock_2013.1_src/data/scripts/dock_solv.prm

>  <Rbt.Receptor>
prm/pocket_docking_5.prm

>  <SCORE>
-36.8218

>  <SCORE.INTER>
-37.9651

>  <SCORE.INTER.CONST>
1

>  <SCORE.INTER.POLAR>
-4.24754

>  <SCORE.INTER.ROT>
6

>  <SCORE.INTER.SOLV>
19.6171

>  <SCORE.INTER.VDW>
-25.2906

>  <SCORE.INTER.norm>
-1.22468

>  <SCORE.INTRA>
1.14125

>  <SCORE.INTRA.DIHEDRAL>
-12.2176

>  <SCORE.INTRA.DIHEDRAL.0>
28.0161

>  <SCORE.INTRA.POLAR>
1.00945

>  <SCORE.INTRA.POLAR.0>
-1.05798

>  <SCORE.INTRA.REPUL>
0.00846242

>  <SCORE.INTRA.REPUL.0>
0

>  <SCORE.INTRA.SOLV>
0.975859

>  <SCORE.INTRA.SOLV.lig_0>
-42.5945

>  <SCORE.INTRA.VDW>
3.28769

>  <SCORE.INTRA.VDW.0>
-5.13869

>  <SCORE.INTRA.norm>
0.0368146

>  <SCORE.RESTR>
0.00204002

>  <SCORE.RESTR.CAVITY>
0.00204002

>  <SCORE.RESTR.norm>
6.5807e-05

>  <SCORE.SYSTEM>
0

>  <SCORE.SYSTEM.CONST>
0

>  <SCORE.SYSTEM.DIHEDRAL>
0

>  <SCORE.SYSTEM.SOLV>
0

>  <SCORE.SYSTEM.norm>
0

>  <SCORE.heavy>
31

>  <SCORE.norm>
-1.1878

>  <RMSD>
7.320

$$$$
lig.pdb
 OpenBabel11021811453D
libRbt.so/2013.1/901 2013/11/27
 31 33  0  0  0  0  0  0  0  0999 V2000
    5.8302    3.1666    0.0035 O   0  0  0  0  0  0  0  0  0  0  0  0
    5.5427    3.7605    1.2543 C   0  0  0  0  0  0  0  0  0  0  0  0
    4.4446    4.8255    1.1306 C   0  0  1  0  0  0  0  0  0  0  0  0
    3.1742    4.2464    0.8780 O   0  0  0  0  0  0  0  0  0  0  0  0
    2.1496    5.1139    1.3539 C   0  0  1  0  0  0  0  0  0  0  0  0
    1.2057    4.3725    2.1175 O   0  0  0  0  0  0  0  0  0  0  0  0
   -0.1646    4.6973    1.9448 C   0  0  2  0  0  0  0  0  0  0  0  0
   -0.4352    6.0039    2.7076 C   0  0  1  0  0  0  0  0  0  0  0  0
    0.2152    7.0825    2.0541 O   0  0  0  0  0  0  0  0  0  0  0  0
   -1.9236    6.3675    2.8188 C   0  0  2  0  0  0  0  0  0  0  0  0
   -2.1129    7.5724    3.6412 N   0  0  0  0  0  0  0  0  0  0  0  0
   -2.6919    5.2054    3.4372 C   0  0  0  0  0  0  0  0  0  0  0  0
   -2.4654    3.9441    2.6128 C   0  0  2  0  0  0  0  0  0  0  0  0
   -3.2583    2.8575    3.1979 N   0  0  0  0  0  0  0  0  0  0  0  0
   -0.9621    3.5955    2.5657 C   0  0  1  0  0  0  0  0  0  0  0  0
   -0.8712    2.3939    1.7850 O   0  0  0  0  0  0  0  0  0  0  0  0
    0.3733    1.7029    1.7994 C   0  0  1  0  0  0  0  0  0  0  0  0
    0.6797    1.2453    3.1137 O   0  0  0  0  0  0  0  0  0  0  0  0
   -0.1461    0.2019    3.6264 C   0  0  2  0  0  0  0  0  0  0  0  0
    0.3295   -0.1592    5.0399 C   0  0  0  0  0  0  0  0  0  0  0  0
   -0.7267   -0.7900    5.8186 N   0  0  0  0  0  0  0  0  0  0  0  0
   -0.0829   -1.0421    2.7207 C   0  0  1  0  0  0  0  0  0  0  0  0
   -0.9550   -2.0415    3.2180 O   0  0  0  0  0  0  0  0  0  0  0  0
   -0.5042   -0.6408    1.3016 C   0  0  2  0  0  0  0  0  0  0  0  0
   -0.3726   -1.7438    0.4246 O   0  0  0  0  0  0  0  0  0  0  0  0
    0.3368    0.5409    0.8003 C   0  0  1  0  0  0  0  0  0  0  0  0
   -0.1606    0.9968   -0.5055 N   0  0  0  0  0  0  0  0  0  0  0  0
    2.8313    6.1563    2.2521 C   0  0  2  0  0  0  0  0  0  0  0  0
    2.8297    7.4178    1.6102 O   0  0  0  0  0  0  0  0  0  0  0  0
    4.2331    5.5783    2.4403 C   0  0  2  0  0  0  0  0  0  0  0  0
    5.2209    6.5557    2.7010 O   0  0  0  0  0  0  0  0  0  0  0  0
  2  1  1  0  0  0  0
  3  2  1  1  0  0  0
  3 30  1  0  0  0  0
  4  5  1  0  0  0  0
  4  3  1  0  0  0  0
  5 28  1  0  0  0  0
  5  6  1  1  0  0  0
  7  6  1  1  0  0  0
  8  7  1  0  0  0  0
  8  9  1  6  0  0  0
 10 11  1  1  0  0  0
 10  8  1  0  0  0  0
 12 10  1  0  0  0  0
 13 12  1  0  0  0  0
 13 15  1  0  0  0  0
 13 14  1  1  0  0  0
 15  7  1  0  0  0  0
 15 16  1  6  0  0  0
 17 16  1  1  0  0  0
 18 17  1  0  0  0  0
 19 20  1  1  0  0  0
 19 18  1  0  0  0  0
 20 21  1  0  0  0  0
 22 24  1  0  0  0  0
 22 19  1  0  0  0  0
 22 23  1  1  0  0  0
 24 25  1  6  0  0  0
 24 26  1  0  0  0  0
 26 17  1  0  0  0  0
 26 27  1  6  0  0  0
 28 29  1  6  0  0  0
 28 30  1  0  0  0  0
 30 31  1  6  0  0  0
M  END
>  <CHROM.1>
176.86824148,70.89234595,-139.72789025,-76.45097486,58.76100816,74.45311238
-170.34192043,71.24106348,62.83103271,157.08033953,-61.69171063,-95.60958234
61.96091641,29.04644122,176.69245443,-58.85340968,0.70234611,3.18238589,2.25274238
-1.01202512,-0.30783411,-3.09955015

>  <Name>
lig.pdb

>  <RI>
2.74555e+07

>  <Rbt.Current_Directory>
/home/itssahil/PROJECTS/Mol_Feturizer/New_Systems/rnas/2n0j

>  <Rbt.Executable>
rbdock ($Id: //depot/dev/client3/rdock/2013.1/src/exe/rbdock.cxx#4 $)

>  <Rbt.Library>
libRbt.so (2013.1, Build901 2013/11/27)

>  <Rbt.Parameter_File>
/export/apps/rDock/src/rDock_2013.1_src/data/scripts/dock_solv.prm

>  <Rbt.Receptor>
prm/pocket_docking_6.prm

>  <SCORE>
-41.4362

>  <SCORE.INTER>
-41.8562

>  <SCORE.INTER.CONST>
1

>  <SCORE.INTER.POLAR>
-5.14186

>  <SCORE.INTER.ROT>
6

>  <SCORE.INTER.SOLV>
14.7248

>  <SCORE.INTER.VDW>
-23.2729

>  <SCORE.INTER.norm>
-1.3502

>  <SCORE.INTRA>
0.42003

>  <SCORE.INTRA.DIHEDRAL>
-10.8235

>  <SCORE.INTRA.DIHEDRAL.0>
28.0161

>  <SCORE.INTRA.POLAR>
0.933445

>  <SCORE.INTRA.POLAR.0>
-1.05798

>  <SCORE.INTRA.REPUL>
0

>  <SCORE.INTRA.REPUL.0>
0

>  <SCORE.INTRA.SOLV>
0.457635

>  <SCORE.INTRA.SOLV.lig_0>
-42.5945

>  <SCORE.INTRA.VDW>
2.42925

>  <SCORE.INTRA.VDW.0>
-5.13869

>  <SCORE.INTRA.norm>
0.0135494

>  <SCORE.RESTR>
0

>  <SCORE.RESTR.CAVITY>
0

>  <SCORE.RESTR.norm>
0

>  <SCORE.SYSTEM>
0

>  <SCORE.SYSTEM.CONST>
0

>  <SCORE.SYSTEM.DIHEDRAL>
0

>  <SCORE.SYSTEM.SOLV>
0

>  <SCORE.SYSTEM.norm>
0

>  <SCORE.heavy>
31

>  <SCORE.norm>
-1.33665

>  <RMSD>
7.323

$$$$
lig.pdb
 OpenBabel11021811453D
libRbt.so/2013.1/901 2013/11/27
 31 33  0  0  0  0  0  0  0  0999 V2000
    6.3645    6.1123    1.8176 O   0  0  0  0  0  0  0  0  0  0  0  0
    4.9530    6.0508    1.7529 C   0  0  0  0  0  0  0  0  0  0  0  0
    4.4264    4.7014    2.2598 C   0  0  1  0  0  0  0  0  0  0  0  0
    3.0109    4.6903    2.3570 O   0  0  0  0  0  0  0  0  0  0  0  0
    2.5330    3.3546    2.2303 C   0  0  1  0  0  0  0  0  0  0  0  0
    1.4553    3.3136    1.3025 O   0  0  0  0  0  0  0  0  0  0  0  0
    0.2152    3.8570    1.7264 C   0  0  2  0  0  0  0  0  0  0  0  0
    0.3620    5.3865    1.7602 C   0  0  1  0  0  0  0  0  0  0  0  0
    0.4731    5.8854    0.4365 O   0  0  0  0  0  0  0  0  0  0  0  0
   -0.8160    6.1143    2.4256 C   0  0  2  0  0  0  0  0  0  0  0  0
   -0.5636    7.5611    2.5093 N   0  0  0  0  0  0  0  0  0  0  0  0
   -1.0399    5.5565    3.8262 C   0  0  0  0  0  0  0  0  0  0  0  0
   -1.2601    4.0507    3.7496 C   0  0  2  0  0  0  0  0  0  0  0  0
   -1.5269    3.5503    5.1025 N   0  0  0  0  0  0  0  0  0  0  0  0
   -0.0343    3.3599    3.1142 C   0  0  1  0  0  0  0  0  0  0  0  0
   -0.3440    1.9579    3.1088 O   0  0  0  0  0  0  0  0  0  0  0  0
    0.7374    1.0532    3.3056 C   0  0  1  0  0  0  0  0  0  0  0  0
    0.7291    0.5404    4.6351 O   0  0  0  0  0  0  0  0  0  0  0  0
   -0.3437   -0.3394    4.9647 C   0  0  2  0  0  0  0  0  0  0  0  0
   -0.1878   -0.7884    6.4237 C   0  0  0  0  0  0  0  0  0  0  0  0
    1.1838   -1.1727    6.7251 N   0  0  0  0  0  0  0  0  0  0  0  0
   -0.3483   -1.5692    4.0378 C   0  0  1  0  0  0  0  0  0  0  0  0
   -1.4554   -2.3973    4.3461 O   0  0  0  0  0  0  0  0  0  0  0  0
   -0.4434   -1.0905    2.5838 C   0  0  2  0  0  0  0  0  0  0  0  0
   -0.3616   -2.1942    1.7017 O   0  0  0  0  0  0  0  0  0  0  0  0
    0.6666   -0.0774    2.2730 C   0  0  1  0  0  0  0  0  0  0  0  0
    0.4880    0.4681    0.9198 N   0  0  0  0  0  0  0  0  0  0  0  0
    3.7016    2.5128    1.6975 C   0  0  2  0  0  0  0  0  0  0  0  0
    4.1783    1.6537    2.7165 O   0  0  0  0  0  0  0  0  0  0  0  0
    4.7197    3.5718    1.2776 C   0  0  2  0  0  0  0  0  0  0  0  0
    6.0588    3.1192    1.3139 O   0  0  0  0  0  0  0  0  0  0  0  0
  2  1  1  0  0  0  0
  3  2  1  6  0  0  0
  3 30  1  0  0  0  0
  4  5  1  0  0  0  0
  4  3  1  0  0  0  0
  5 28  1  0  0  0  0
  5  6  1  6  0  0  0
  7  6  1  1  0  0  0
  8  7  1  0  0  0  0
  8  9  1  6  0  0  0
 10 11  1  1  0  0  0
 10  8  1  0  0  0  0
 12 10  1  0  0  0  0
 13 12  1  0  0  0  0
 13 15  1  0  0  0  0
 13 14  1  1  0  0  0
 15  7  1  0  0  0  0
 15 16  1  6  0  0  0
 17 16  1  1  0  0  0
 18 17  1  0  0  0  0
 19 20  1  1  0  0  0
 19 18  1  0  0  0  0
 20 21  1  0  0  0  0
 22 24  1  0  0  0  0
 22 19  1  0  0  0  0
 22 23  1  1  0  0  0
 24 25  1  6  0  0  0
 24 26  1  0  0  0  0
 26 17  1  0  0  0  0
 26 27  1  6  0  0  0
 28 29  1  1  0  0  0
 28 30  1  0  0  0  0
 30 31  1  1  0  0  0
M  END
>  <CHROM.1>
-58.61795191,172.63092029,-72.82203717,72.55219409,-167.09460274,163.42724647
-53.10319272,93.44148690,103.05293657,-45.35750331,-178.03779218,-63.96481925
62.85920454,1.97707309,62.96835289,70.52592267,1.23485911,2.52531612,2.85870892
-1.06677833,-0.27361216,2.92052557

>  <Name>
lig.pdb

>  <RI>
0

>  <Rbt.Current_Directory>
/home/itssahil/PROJECTS/Mol_Feturizer/New_Systems/rnas/2n0j

>  <Rbt.Executable>
rbdock ($Id: //depot/dev/client3/rdock/2013.1/src/exe/rbdock.cxx#4 $)

>  <Rbt.Library>
libRbt.so (2013.1, Build901 2013/11/27)

>  <Rbt.Parameter_File>
/export/apps/rDock/src/rDock_2013.1_src/data/scripts/dock_solv.prm

>  <Rbt.Receptor>
prm/pocket_docking_8.prm

>  <SCORE>
-39.2468

>  <SCORE.INTER>
-38.968

>  <SCORE.INTER.CONST>
1

>  <SCORE.INTER.POLAR>
-4.19424

>  <SCORE.INTER.ROT>
6

>  <SCORE.INTER.SOLV>
19.8771

>  <SCORE.INTER.VDW>
-26.2236

>  <SCORE.INTER.norm>
-1.25703

>  <SCORE.INTRA>
-0.278822

>  <SCORE.INTRA.DIHEDRAL>
-9.36413

>  <SCORE.INTRA.DIHEDRAL.0>
28.0161

>  <SCORE.INTRA.POLAR>
0.0703577

>  <SCORE.INTRA.POLAR.0>
-1.05798

>  <SCORE.INTRA.REPUL>
0

>  <SCORE.INTRA.REPUL.0>
0

>  <SCORE.INTRA.SOLV>
0.755173

>  <SCORE.INTRA.SOLV.lig_0>
-42.5945

>  <SCORE.INTRA.VDW>
3.78644

>  <SCORE.INTRA.VDW.0>
-5.13869

>  <SCORE.INTRA.norm>
-0.00899427

>  <SCORE.RESTR>
0

>  <SCORE.RESTR.CAVITY>
0

>  <SCORE.RESTR.norm>
0

>  <SCORE.SYSTEM>
0

>  <SCORE.SYSTEM.CONST>
0

>  <SCORE.SYSTEM.DIHEDRAL>
0

>  <SCORE.SYSTEM.SOLV>
0

>  <SCORE.SYSTEM.norm>
0

>  <SCORE.heavy>
31

>  <SCORE.norm>
-1.26603

>  <RMSD>
7.327

$$$$
lig.pdb
 OpenBabel11021811453D
libRbt.so/2013.1/901 2013/11/27
 31 33  0  0  0  0  0  0  0  0999 V2000
    5.2381    2.6443    1.2956 O   0  0  0  0  0  0  0  0  0  0  0  0
    5.0848    3.9252    1.8752 C   0  0  0  0  0  0  0  0  0  0  0  0
    3.8544    4.6512    1.3145 C   0  0  1  0  0  0  0  0  0  0  0  0
    2.6519    3.9615    1.6162 O   0  0  0  0  0  0  0  0  0  0  0  0
    1.5657    4.8825    1.6430 C   0  0  1  0  0  0  0  0  0  0  0  0
    0.7851    4.6743    2.8139 O   0  0  0  0  0  0  0  0  0  0  0  0
   -0.6255    4.6915    2.6629 C   0  0  2  0  0  0  0  0  0  0  0  0
   -1.1302    6.0625    3.1403 C   0  0  1  0  0  0  0  0  0  0  0  0
   -0.7170    7.0681    2.2285 O   0  0  0  0  0  0  0  0  0  0  0  0
   -2.6583    6.1587    3.2652 C   0  0  2  0  0  0  0  0  0  0  0  0
   -3.0622    7.4610    3.8174 N   0  0  0  0  0  0  0  0  0  0  0  0
   -3.1716    5.0434    4.1684 C   0  0  0  0  0  0  0  0  0  0  0  0
   -2.7203    3.6936    3.6240 C   0  0  2  0  0  0  0  0  0  0  0  0
   -3.2731    2.6385    4.4801 N   0  0  0  0  0  0  0  0  0  0  0  0
   -1.1792    3.6291    3.5574 C   0  0  1  0  0  0  0  0  0  0  0  0
   -0.8715    2.3211    3.0514 O   0  0  0  0  0  0  0  0  0  0  0  0
    0.2517    1.6538    3.6167 C   0  0  1  0  0  0  0  0  0  0  0  0
   -0.1087    1.0035    4.8324 O   0  0  0  0  0  0  0  0  0  0  0  0
   -0.9813   -0.1180    4.7128 C   0  0  2  0  0  0  0  0  0  0  0  0
   -1.2555   -0.6858    6.1118 C   0  0  0  0  0  0  0  0  0  0  0  0
   -2.5883   -0.3368    6.5827 N   0  0  0  0  0  0  0  0  0  0  0  0
   -0.3555   -1.2066    3.8212 C   0  0  1  0  0  0  0  0  0  0  0  0
   -1.2639   -2.2829    3.6702 O   0  0  0  0  0  0  0  0  0  0  0  0
   -0.0355   -0.5975    2.4504 C   0  0  2  0  0  0  0  0  0  0  0  0
    0.6216   -1.5502    1.6359 O   0  0  0  0  0  0  0  0  0  0  0  0
    0.8318    0.6592    2.6048 C   0  0  1  0  0  0  0  0  0  0  0  0
    1.0242    1.3037    1.2979 N   0  0  0  0  0  0  0  0  0  0  0  0
    2.1774    6.2906    1.6773 C   0  0  2  0  0  0  0  0  0  0  0  0
    1.9665    6.9362    0.4355 O   0  0  0  0  0  0  0  0  0  0  0  0
    3.6514    6.0139    1.9693 C   0  0  2  0  0  0  0  0  0  0  0  0
    4.5248    7.0144    1.4842 O   0  0  0  0  0  0  0  0  0  0  0  0
  2  1  1  0  0  0  0
  3  2  1  1  0  0  0
  3 30  1  0  0  0  0
  4  5  1  0  0  0  0
  4  3  1  0  0  0  0
  5 28  1  0  0  0  0
  5  6  1  1  0  0  0
  7  6  1  1  0  0  0
  8  7  1  0  0  0  0
  8  9  1  6  0  0  0
 10 11  1  1  0  0  0
 10  8  1  0  0  0  0
 12 10  1  0  0  0  0
 13 12  1  0  0  0  0
 13 15  1  0  0  0  0
 13 14  1  1  0  0  0
 15  7  1  0  0  0  0
 15 16  1  6  0  0  0
 17 16  1  6  0  0  0
 18 17  1  0  0  0  0
 19 20  1  1  0  0  0
 19 18  1  0  0  0  0
 20 21  1  0  0  0  0
 22 24  1  0  0  0  0
 22 19  1  0  0  0  0
 22 23  1  6  0  0  0
 24 25  1  6  0  0  0
 24 26  1  0  0  0  0
 26 17  1  0  0  0  0
 26 27  1  6  0  0  0
 28 29  1  6  0  0  0
 28 30  1  0  0  0  0
 30 31  1  6  0  0  0
M  END
>  <CHROM.1>
-173.52512221,62.62734318,-136.70388825,-101.32784865,51.52561454,-168.19067874
-172.93411327,97.99540814,83.08499905,104.80874676,26.54644311,-150.76515028
65.23443393,174.09310207,-179.53022525,63.64578201,0.27028218,3.13581787
2.93596584,-1.00989202,-0.42358847,2.98750956

>  <Name>
lig.pdb

>  <RI>
2.74555e+07

>  <Rbt.Current_Directory>
/home/itssahil/PROJECTS/Mol_Feturizer/New_Systems/rnas/2n0j

>  <Rbt.Executable>
rbdock ($Id: //depot/dev/client3/rdock/2013.1/src/exe/rbdock.cxx#4 $)

>  <Rbt.Library>
libRbt.so (2013.1, Build901 2013/11/27)

>  <Rbt.Parameter_File>
/export/apps/rDock/src/rDock_2013.1_src/data/scripts/dock_solv.prm

>  <Rbt.Receptor>
prm/pocket_docking_6.prm

>  <SCORE>
-41.6242

>  <SCORE.INTER>
-43.0059

>  <SCORE.INTER.CONST>
1

>  <SCORE.INTER.POLAR>
-5.60781

>  <SCORE.INTER.ROT>
6

>  <SCORE.INTER.SOLV>
16.3996

>  <SCORE.INTER.VDW>
-23.0444

>  <SCORE.INTER.norm>
-1.38729

>  <SCORE.INTRA>
1.38167

>  <SCORE.INTRA.DIHEDRAL>
2.59328

>  <SCORE.INTRA.DIHEDRAL.0>
28.0161

>  <SCORE.INTRA.POLAR>
0.0469437

>  <SCORE.INTRA.POLAR.0>
-1.05798

>  <SCORE.INTRA.REPUL>
0

>  <SCORE.INTRA.REPUL.0>
0

>  <SCORE.INTRA.SOLV>
0.630783

>  <SCORE.INTRA.SOLV.lig_0>
-42.5945

>  <SCORE.INTRA.VDW>
-0.389971

>  <SCORE.INTRA.VDW.0>
-5.13869

>  <SCORE.INTRA.norm>
0.04457

>  <SCORE.RESTR>
0

>  <SCORE.RESTR.CAVITY>
0

>  <SCORE.RESTR.norm>
0

>  <SCORE.SYSTEM>
0

>  <SCORE.SYSTEM.CONST>
0

>  <SCORE.SYSTEM.DIHEDRAL>
0

>  <SCORE.SYSTEM.SOLV>
0

>  <SCORE.SYSTEM.norm>
0

>  <SCORE.heavy>
31

>  <SCORE.norm>
-1.34272

>  <RMSD>
7.338

$$$$
lig.pdb
 OpenBabel11021811453D
libRbt.so/2013.1/901 2013/11/27
 31 33  0  0  0  0  0  0  0  0999 V2000
   -0.7486    1.0110   -0.3992 O   0  0  0  0  0  0  0  0  0  0  0  0
    0.4797    0.5885    0.1601 C   0  0  0  0  0  0  0  0  0  0  0  0
    0.4201    0.5671    1.6935 C   0  0  1  0  0  0  0  0  0  0  0  0
   -0.3829    1.6191    2.2049 O   0  0  0  0  0  0  0  0  0  0  0  0
   -0.9044    1.2479    3.4773 C   0  0  1  0  0  0  0  0  0  0  0  0
   -2.2991    1.5241    3.5265 O   0  0  0  0  0  0  0  0  0  0  0  0
   -2.6871    2.8246    3.9401 C   0  0  2  0  0  0  0  0  0  0  0  0
   -2.0359    3.8339    2.9812 C   0  0  1  0  0  0  0  0  0  0  0  0
   -2.6374    3.7330    1.7001 O   0  0  0  0  0  0  0  0  0  0  0  0
   -2.1626    5.2972    3.4316 C   0  0  2  0  0  0  0  0  0  0  0  0
   -1.4357    6.1950    2.5207 N   0  0  0  0  0  0  0  0  0  0  0  0
   -1.6092    5.4504    4.8434 C   0  0  0  0  0  0  0  0  0  0  0  0
   -2.3299    4.4922    5.7838 C   0  0  2  0  0  0  0  0  0  0  0  0
   -1.8166    4.6996    7.1421 N   0  0  0  0  0  0  0  0  0  0  0  0
   -2.1384    3.0336    5.3151 C   0  0  1  0  0  0  0  0  0  0  0  0
   -2.8388    2.2273    6.2747 O   0  0  0  0  0  0  0  0  0  0  0  0
   -4.1242    2.6788    6.6875 C   0  0  1  0  0  0  0  0  0  0  0  0
   -4.8505    3.2085    5.5819 O   0  0  0  0  0  0  0  0  0  0  0  0
   -5.2654    2.2696    4.5921 C   0  0  2  0  0  0  0  0  0  0  0  0
   -6.0284    3.0148    3.4888 C   0  0  0  0  0  0  0  0  0  0  0  0
   -6.9075    4.0369    4.0385 N   0  0  0  0  0  0  0  0  0  0  0  0
   -6.1678    1.1851    5.2095 C   0  0  1  0  0  0  0  0  0  0  0  0
   -6.5183    0.2334    4.2207 O   0  0  0  0  0  0  0  0  0  0  0  0
   -5.4041    0.4977    6.3482 C   0  0  2  0  0  0  0  0  0  0  0  0
   -6.2386   -0.4455    6.9940 O   0  0  0  0  0  0  0  0  0  0  0  0
   -4.8897    1.5325    7.3580 C   0  0  1  0  0  0  0  0  0  0  0  0
   -4.0533    0.8755    8.3726 N   0  0  0  0  0  0  0  0  0  0  0  0
   -0.6746   -0.2629    3.6285 C   0  0  2  0  0  0  0  0  0  0  0  0
    0.3332   -0.5011    4.5934 O   0  0  0  0  0  0  0  0  0  0  0  0
   -0.2700   -0.6881    2.2178 C   0  0  2  0  0  0  0  0  0  0  0  0
    0.5456   -1.8425    2.1838 O   0  0  0  0  0  0  0  0  0  0  0  0
  2  1  1  0  0  0  0
  3  2  1  6  0  0  0
  3 30  1  0  0  0  0
  4  5  1  0  0  0  0
  4  3  1  0  0  0  0
  5 28  1  0  0  0  0
  5  6  1  6  0  0  0
  7  6  1  6  0  0  0
  8  7  1  0  0  0  0
  8  9  1  6  0  0  0
 10 11  1  6  0  0  0
 10  8  1  0  0  0  0
 12 10  1  0  0  0  0
 13 12  1  0  0  0  0
 13 15  1  0  0  0  0
 13 14  1  1  0  0  0
 15  7  1  0  0  0  0
 15 16  1  1  0  0  0
 17 16  1  6  0  0  0
 18 17  1  0  0  0  0
 19 20  1  6  0  0  0
 19 18  1  0  0  0  0
 20 21  1  0  0  0  0
 22 24  1  0  0  0  0
 22 19  1  0  0  0  0
 22 23  1  6  0  0  0
 24 25  1  1  0  0  0
 24 26  1  0  0  0  0
 26 17  1  0  0  0  0
 26 27  1  1  0  0  0
 28 29  1  1  0  0  0
 28 30  1  0  0  0  0
 30 31  1  1  0  0  0
M  END
>  <CHROM.1>
-60.61347011,-35.15774283,-87.73161004,58.08030391,61.11929880,85.19673550
60.86398335,-77.26629951,39.78686493,-40.50438005,78.05543816,-179.63989784
164.28410666,177.13676213,179.73416445,-61.92630262,-2.77292415,2.05023207
4.19242801,-0.13234364,0.72091148,-0.10051696

>  <Name>
lig.pdb

>  <RI>
0

>  <Rbt.Current_Directory>
/home/itssahil/PROJECTS/Mol_Feturizer/New_Systems/rnas/2n0j

>  <Rbt.Executable>
rbdock ($Id: //depot/dev/client3/rdock/2013.1/src/exe/rbdock.cxx#4 $)

>  <Rbt.Library>
libRbt.so (2013.1, Build901 2013/11/27)

>  <Rbt.Parameter_File>
/export/apps/rDock/src/rDock_2013.1_src/data/scripts/dock_solv.prm

>  <Rbt.Receptor>
prm/pocket_docking_5.prm

>  <SCORE>
-26.6982

>  <SCORE.INTER>
-30.1571

>  <SCORE.INTER.CONST>
1

>  <SCORE.INTER.POLAR>
-4.83038

>  <SCORE.INTER.ROT>
6

>  <SCORE.INTER.SOLV>
15.292

>  <SCORE.INTER.VDW>
-16.7008

>  <SCORE.INTER.norm>
-0.972811

>  <SCORE.INTRA>
3.45893

>  <SCORE.INTRA.DIHEDRAL>
-14.7481

>  <SCORE.INTRA.DIHEDRAL.0>
28.0161

>  <SCORE.INTRA.POLAR>
1.05798

>  <SCORE.INTRA.POLAR.0>
-1.05798

>  <SCORE.INTRA.REPUL>
0

>  <SCORE.INTRA.REPUL.0>
0

>  <SCORE.INTRA.SOLV>
0.67878

>  <SCORE.INTRA.SOLV.lig_0>
-42.5945

>  <SCORE.INTRA.VDW>
6.89642

>  <SCORE.INTRA.VDW.0>
-5.13869

>  <SCORE.INTRA.norm>
0.111578

>  <SCORE.RESTR>
0

>  <SCORE.RESTR.CAVITY>
0

>  <SCORE.RESTR.norm>
0

>  <SCORE.SYSTEM>
0

>  <SCORE.SYSTEM.CONST>
0

>  <SCORE.SYSTEM.DIHEDRAL>
0

>  <SCORE.SYSTEM.SOLV>
0

>  <SCORE.SYSTEM.norm>
0

>  <SCORE.heavy>
31

>  <SCORE.norm>
-0.861232

>  <RMSD>
7.340

$$$$
lig.pdb
 OpenBabel11021811453D
libRbt.so/2013.1/901 2013/11/27
 31 33  0  0  0  0  0  0  0  0999 V2000
    4.1342    1.3714    2.5799 O   0  0  0  0  0  0  0  0  0  0  0  0
    4.6063    2.1457    1.4947 C   0  0  0  0  0  0  0  0  0  0  0  0
    3.7296    3.3843    1.2658 C   0  0  1  0  0  0  0  0  0  0  0  0
    2.3542    3.0478    1.1760 O   0  0  0  0  0  0  0  0  0  0  0  0
    1.5617    4.1654    1.5653 C   0  0  1  0  0  0  0  0  0  0  0  0
    0.5596    3.7494    2.4854 O   0  0  0  0  0  0  0  0  0  0  0  0
   -0.7501    4.2587    2.2900 C   0  0  2  0  0  0  0  0  0  0  0  0
   -0.7516    5.7291    2.7372 C   0  0  1  0  0  0  0  0  0  0  0  0
    0.0127    6.5059    1.8286 O   0  0  0  0  0  0  0  0  0  0  0  0
   -2.1506    6.3593    2.8129 C   0  0  2  0  0  0  0  0  0  0  0  0
   -2.0839    7.7316    3.3389 N   0  0  0  0  0  0  0  0  0  0  0  0
   -3.0469    5.5149    3.7110 C   0  0  0  0  0  0  0  0  0  0  0  0
   -3.0862    4.0817    3.1949 C   0  0  2  0  0  0  0  0  0  0  0  0
   -3.9972    3.3065    4.0439 N   0  0  0  0  0  0  0  0  0  0  0  0
   -1.6655    3.4777    3.1774 C   0  0  1  0  0  0  0  0  0  0  0  0
   -1.8254    2.1349    2.6947 O   0  0  0  0  0  0  0  0  0  0  0  0
   -0.9230    1.1537    3.1940 C   0  0  1  0  0  0  0  0  0  0  0  0
   -1.5681    0.3165    4.1498 O   0  0  0  0  0  0  0  0  0  0  0  0
   -2.5728   -0.5599    3.6440 C   0  0  2  0  0  0  0  0  0  0  0  0
   -3.1504   -1.3776    4.8069 C   0  0  0  0  0  0  0  0  0  0  0  0
   -3.5583   -0.5249    5.9143 N   0  0  0  0  0  0  0  0  0  0  0  0
   -1.9885   -1.5070    2.5794 C   0  0  1  0  0  0  0  0  0  0  0  0
   -3.0163   -2.3261    2.0511 O   0  0  0  0  0  0  0  0  0  0  0  0
   -1.3645   -0.6651    1.4595 C   0  0  2  0  0  0  0  0  0  0  0  0
   -0.7409   -1.5067    0.5077 O   0  0  0  0  0  0  0  0  0  0  0  0
   -0.3496    0.3330    2.0331 C   0  0  1  0  0  0  0  0  0  0  0  0
    0.1454    1.2178    0.9689 N   0  0  0  0  0  0  0  0  0  0  0  0
    2.5063    5.1630    2.2513 C   0  0  2  0  0  0  0  0  0  0  0  0
    2.6956    6.2938    1.4212 O   0  0  0  0  0  0  0  0  0  0  0  0
    3.7799    4.3429    2.4513 C   0  0  2  0  0  0  0  0  0  0  0  0
    4.9572    5.1242    2.5020 O   0  0  0  0  0  0  0  0  0  0  0  0
  2  1  1  0  0  0  0
  3  2  1  1  0  0  0
  3 30  1  0  0  0  0
  4  5  1  0  0  0  0
  4  3  1  0  0  0  0
  5 28  1  0  0  0  0
  5  6  1  1  0  0  0
  7  6  1  1  0  0  0
  8  7  1  0  0  0  0
  8  9  1  6  0  0  0
 10 11  1  1  0  0  0
 10  8  1  0  0  0  0
 12 10  1  0  0  0  0
 13 12  1  0  0  0  0
 13 15  1  0  0  0  0
 13 14  1  1  0  0  0
 15  7  1  0  0  0  0
 15 16  1  6  0  0  0
 17 16  1  6  0  0  0
 18 17  1  0  0  0  0
 19 20  1  1  0  0  0
 19 18  1  0  0  0  0
 20 21  1  0  0  0  0
 22 24  1  0  0  0  0
 22 19  1  0  0  0  0
 22 23  1  6  0  0  0
 24 25  1  6  0  0  0
 24 26  1  0  0  0  0
 26 17  1  0  0  0  0
 26 27  1  6  0  0  0
 28 29  1  6  0  0  0
 28 30  1  0  0  0  0
 30 31  1  6  0  0  0
M  END
>  <CHROM.1>
52.64385914,-51.24559714,-136.07172564,-74.27886190,63.47025493,65.58053133
-57.34922836,91.18633822,104.83809667,51.09094912,66.84291627,58.68938460
-71.61445468,-66.86029112,-56.98195456,60.45036071,-0.23703269,2.65593740
2.58719042,-0.80621732,-0.30789561,-3.08935052

>  <Name>
lig.pdb

>  <RI>
2.67765e+07

>  <Rbt.Current_Directory>
/home/itssahil/PROJECTS/Mol_Feturizer/New_Systems/rnas/2n0j

>  <Rbt.Executable>
rbdock ($Id: //depot/dev/client3/rdock/2013.1/src/exe/rbdock.cxx#4 $)

>  <Rbt.Library>
libRbt.so (2013.1, Build901 2013/11/27)

>  <Rbt.Parameter_File>
/export/apps/rDock/src/rDock_2013.1_src/data/scripts/dock_solv.prm

>  <Rbt.Receptor>
prm/pocket_docking_2.prm

>  <SCORE>
-26.2308

>  <SCORE.INTER>
-24.1116

>  <SCORE.INTER.CONST>
1

>  <SCORE.INTER.POLAR>
-3.0928

>  <SCORE.INTER.ROT>
6

>  <SCORE.INTER.SOLV>
14.9387

>  <SCORE.INTER.VDW>
-18.3447

>  <SCORE.INTER.norm>
-0.777794

>  <SCORE.INTRA>
-3.51511

>  <SCORE.INTRA.DIHEDRAL>
-8.88629

>  <SCORE.INTRA.DIHEDRAL.0>
28.0161

>  <SCORE.INTRA.POLAR>
-0.290513

>  <SCORE.INTRA.POLAR.0>
-1.05798

>  <SCORE.INTRA.REPUL>
0

>  <SCORE.INTRA.REPUL.0>
0

>  <SCORE.INTRA.SOLV>
1.31546

>  <SCORE.INTRA.SOLV.lig_0>
-42.5945

>  <SCORE.INTRA.VDW>
1.25805

>  <SCORE.INTRA.VDW.0>
-5.13869

>  <SCORE.INTRA.norm>
-0.113391

>  <SCORE.RESTR>
1.39596

>  <SCORE.RESTR.CAVITY>
1.39596

>  <SCORE.RESTR.norm>
0.045031

>  <SCORE.SYSTEM>
0

>  <SCORE.SYSTEM.CONST>
0

>  <SCORE.SYSTEM.DIHEDRAL>
0

>  <SCORE.SYSTEM.SOLV>
0

>  <SCORE.SYSTEM.norm>
0

>  <SCORE.heavy>
31

>  <SCORE.norm>
-0.846154

>  <RMSD>
7.348

$$$$
lig.pdb
 OpenBabel11021811453D
libRbt.so/2013.1/901 2013/11/27
 31 33  0  0  0  0  0  0  0  0999 V2000
    5.2302    2.7039    1.1353 O   0  0  0  0  0  0  0  0  0  0  0  0
    5.1858    3.9553    1.7927 C   0  0  0  0  0  0  0  0  0  0  0  0
    3.9275    4.7459    1.4099 C   0  0  1  0  0  0  0  0  0  0  0  0
    2.7496    3.9702    1.5646 O   0  0  0  0  0  0  0  0  0  0  0  0
    1.6376    4.8296    1.7964 C   0  0  1  0  0  0  0  0  0  0  0  0
    0.8794    4.3506    2.9007 O   0  0  0  0  0  0  0  0  0  0  0  0
   -0.5304    4.3063    2.7472 C   0  0  2  0  0  0  0  0  0  0  0  0
   -1.0847    5.6914    3.1165 C   0  0  1  0  0  0  0  0  0  0  0  0
   -0.7036    6.6374    2.1301 O   0  0  0  0  0  0  0  0  0  0  0  0
   -2.6158    5.7429    3.2318 C   0  0  2  0  0  0  0  0  0  0  0  0
   -3.0672    7.0689    3.6812 N   0  0  0  0  0  0  0  0  0  0  0  0
   -3.0930    4.6834    4.2180 C   0  0  0  0  0  0  0  0  0  0  0  0
   -2.5926    3.3123    3.7802 C   0  0  2  0  0  0  0  0  0  0  0  0
   -3.1113    2.3077    4.7147 N   0  0  0  0  0  0  0  0  0  0  0  0
   -1.0499    3.2973    3.7205 C   0  0  1  0  0  0  0  0  0  0  0  0
   -0.6946    1.9657    3.3175 O   0  0  0  0  0  0  0  0  0  0  0  0
   -0.2198    1.0856    4.3307 C   0  0  1  0  0  0  0  0  0  0  0  0
   -1.2619    0.2215    4.7756 O   0  0  0  0  0  0  0  0  0  0  0  0
   -1.7115   -0.7570    3.8409 C   0  0  2  0  0  0  0  0  0  0  0  0
   -2.8251   -1.5897    4.4900 C   0  0  0  0  0  0  0  0  0  0  0  0
   -3.7778   -0.7513    5.2036 N   0  0  0  0  0  0  0  0  0  0  0  0
   -0.5540   -1.6777    3.4118 C   0  0  1  0  0  0  0  0  0  0  0  0
   -1.0116   -2.6020    2.4409 O   0  0  0  0  0  0  0  0  0  0  0  0
    0.5695   -0.8155    2.8229 C   0  0  2  0  0  0  0  0  0  0  0  0
    1.6849   -1.6243    2.4992 O   0  0  0  0  0  0  0  0  0  0  0  0
    0.9798    0.2871    3.8084 C   0  0  1  0  0  0  0  0  0  0  0  0
    1.9646    1.1818    3.1837 N   0  0  0  0  0  0  0  0  0  0  0  0
    2.2087    6.2159    2.1284 C   0  0  2  0  0  0  0  0  0  0  0  0
    1.9623    7.1062    1.0560 O   0  0  0  0  0  0  0  0  0  0  0  0
    3.6939    5.9292    2.3438 C   0  0  2  0  0  0  0  0  0  0  0  0
    4.5312    7.0373    2.0790 O   0  0  0  0  0  0  0  0  0  0  0  0
  2  1  1  0  0  0  0
  3  2  1  1  0  0  0
  3 30  1  0  0  0  0
  4  5  1  0  0  0  0
  4  3  1  0  0  0  0
  5 28  1  0  0  0  0
  5  6  1  1  0  0  0
  7  6  1  1  0  0  0
  8  7  1  0  0  0  0
  8  9  1  6  0  0  0
 10 11  1  1  0  0  0
 10  8  1  0  0  0  0
 12 10  1  0  0  0  0
 13 12  1  0  0  0  0
 13 15  1  0  0  0  0
 13 14  1  1  0  0  0
 15  7  1  0  0  0  0
 15 16  1  6  0  0  0
 17 16  1  6  0  0  0
 18 17  1  0  0  0  0
 19 20  1  1  0  0  0
 19 18  1  0  0  0  0
 20 21  1  0  0  0  0
 22 24  1  0  0  0  0
 22 19  1  0  0  0  0
 22 23  1  6  0  0  0
 24 25  1  1  0  0  0
 24 26  1  0  0  0  0
 26 17  1  0  0  0  0
 26 27  1  6  0  0  0
 28 29  1  6  0  0  0
 28 30  1  0  0  0  0
 30 31  1  6  0  0  0
M  END
>  <CHROM.1>
-166.40180369,51.06442611,-134.28715365,-85.70434834,56.46478224,-33.22963325
-50.67818741,136.38280950,99.17018126,44.23628992,76.13972031,65.19549094
-59.37629078,-168.67283204,-176.60482833,-58.83078525,0.25071078,2.86156909
3.01193072,-0.95832276,-0.32385154,3.04697761

>  <Name>
lig.pdb

>  <RI>
3.33129e+07

>  <Rbt.Current_Directory>
/home/itssahil/PROJECTS/Mol_Feturizer/New_Systems/rnas/2n0j

>  <Rbt.Executable>
rbdock ($Id: //depot/dev/client3/rdock/2013.1/src/exe/rbdock.cxx#4 $)

>  <Rbt.Library>
libRbt.so (2013.1, Build901 2013/11/27)

>  <Rbt.Parameter_File>
/export/apps/rDock/src/rDock_2013.1_src/data/scripts/dock_solv.prm

>  <Rbt.Receptor>
prm/pocket_docking_4.prm

>  <SCORE>
-35.2579

>  <SCORE.INTER>
-36.8089

>  <SCORE.INTER.CONST>
1

>  <SCORE.INTER.POLAR>
-4.32809

>  <SCORE.INTER.ROT>
6

>  <SCORE.INTER.SOLV>
16.3126

>  <SCORE.INTER.VDW>
-23.1498

>  <SCORE.INTER.norm>
-1.18738

>  <SCORE.INTRA>
1.55095

>  <SCORE.INTRA.DIHEDRAL>
-2.57285

>  <SCORE.INTRA.DIHEDRAL.0>
28.0161

>  <SCORE.INTRA.POLAR>
0.339268

>  <SCORE.INTRA.POLAR.0>
-1.05798

>  <SCORE.INTRA.REPUL>
0

>  <SCORE.INTRA.REPUL.0>
0

>  <SCORE.INTRA.SOLV>
1.14677

>  <SCORE.INTRA.SOLV.lig_0>
-42.5945

>  <SCORE.INTRA.VDW>
1.11048

>  <SCORE.INTRA.VDW.0>
-5.13869

>  <SCORE.INTRA.norm>
0.0500306

>  <SCORE.RESTR>
0

>  <SCORE.RESTR.CAVITY>
0

>  <SCORE.RESTR.norm>
0

>  <SCORE.SYSTEM>
0

>  <SCORE.SYSTEM.CONST>
0

>  <SCORE.SYSTEM.DIHEDRAL>
0

>  <SCORE.SYSTEM.SOLV>
0

>  <SCORE.SYSTEM.norm>
0

>  <SCORE.heavy>
31

>  <SCORE.norm>
-1.13735

>  <RMSD>
7.362

$$$$
lig.pdb
 OpenBabel11021811453D
libRbt.so/2013.1/901 2013/11/27
 31 33  0  0  0  0  0  0  0  0999 V2000
   -1.1272   -2.6559    5.5781 O   0  0  0  0  0  0  0  0  0  0  0  0
   -2.0947   -1.6531    5.3365 C   0  0  0  0  0  0  0  0  0  0  0  0
   -1.5544   -0.5672    4.3963 C   0  0  1  0  0  0  0  0  0  0  0  0
   -2.1594    0.6924    4.6424 O   0  0  0  0  0  0  0  0  0  0  0  0
   -1.2774    1.7344    4.2362 C   0  0  1  0  0  0  0  0  0  0  0  0
   -1.1873    2.7173    5.2608 O   0  0  0  0  0  0  0  0  0  0  0  0
   -2.1679    3.7426    5.2620 C   0  0  2  0  0  0  0  0  0  0  0  0
   -1.7904    4.7520    4.1662 C   0  0  1  0  0  0  0  0  0  0  0  0
   -1.9730    4.1617    2.8889 O   0  0  0  0  0  0  0  0  0  0  0  0
   -2.6182    6.0459    4.1943 C   0  0  2  0  0  0  0  0  0  0  0  0
   -2.1391    7.0015    3.1838 N   0  0  0  0  0  0  0  0  0  0  0  0
   -2.5304    6.6824    5.5764 C   0  0  0  0  0  0  0  0  0  0  0  0
   -2.9859    5.6822    6.6319 C   0  0  2  0  0  0  0  0  0  0  0  0
   -2.9433    6.3381    7.9432 N   0  0  0  0  0  0  0  0  0  0  0  0
   -2.0988    4.4191    6.5935 C   0  0  1  0  0  0  0  0  0  0  0  0
   -2.6043    3.5638    7.6301 O   0  0  0  0  0  0  0  0  0  0  0  0
   -1.8109    2.4368    7.9864 C   0  0  1  0  0  0  0  0  0  0  0  0
   -0.5109    2.8474    8.4013 O   0  0  0  0  0  0  0  0  0  0  0  0
   -0.4378    3.5551    9.6371 C   0  0  2  0  0  0  0  0  0  0  0  0
    1.0277    3.9115    9.9198 C   0  0  0  0  0  0  0  0  0  0  0  0
    1.8947    2.7465    9.8158 N   0  0  0  0  0  0  0  0  0  0  0  0
   -0.9997    2.7033   10.7905 C   0  0  1  0  0  0  0  0  0  0  0  0
   -0.9704    3.4484   11.9948 O   0  0  0  0  0  0  0  0  0  0  0  0
   -2.4438    2.3100   10.4551 C   0  0  2  0  0  0  0  0  0  0  0  0
   -2.9598    1.4528   11.4560 O   0  0  0  0  0  0  0  0  0  0  0  0
   -2.5148    1.6282    9.0820 C   0  0  1  0  0  0  0  0  0  0  0  0
   -3.9155    1.3723    8.7172 N   0  0  0  0  0  0  0  0  0  0  0  0
    0.1001    1.0915    4.0188 C   0  0  2  0  0  0  0  0  0  0  0  0
    0.4010    1.0566    2.6361 O   0  0  0  0  0  0  0  0  0  0  0  0
   -0.0719   -0.2969    4.6328 C   0  0  2  0  0  0  0  0  0  0  0  0
    0.7814   -1.2758    4.0736 O   0  0  0  0  0  0  0  0  0  0  0  0
  2  1  1  0  0  0  0
  3  2  1  1  0  0  0
  3 30  1  0  0  0  0
  4  5  1  0  0  0  0
  4  3  1  0  0  0  0
  5 28  1  0  0  0  0
  5  6  1  1  0  0  0
  7  6  1  1  0  0  0
  8  7  1  0  0  0  0
  8  9  1  6  0  0  0
 10 11  1  6  0  0  0
 10  8  1  0  0  0  0
 12 10  1  0  0  0  0
 13 12  1  0  0  0  0
 13 15  1  0  0  0  0
 13 14  1  1  0  0  0
 15  7  1  0  0  0  0
 15 16  1  1  0  0  0
 17 16  1  1  0  0  0
 18 17  1  0  0  0  0
 19 20  1  1  0  0  0
 19 18  1  0  0  0  0
 20 21  1  0  0  0  0
 22 24  1  0  0  0  0
 22 19  1  0  0  0  0
 22 23  1  1  0  0  0
 24 25  1  1  0  0  0
 24 26  1  0  0  0  0
 26 17  1  0  0  0  0
 26 27  1  6  0  0  0
 28 29  1  6  0  0  0
 28 30  1  0  0  0  0
 30 31  1  6  0  0  0
M  END
>  <CHROM.1>
-68.22603685,-150.98664301,-86.28184637,-77.53508404,-177.39693162,84.67231149
-152.47683607,70.86408365,57.79822300,-51.41365047,32.77926990,58.77606958
64.29936320,-57.94337159,178.15620628,-53.56183839,-1.45901648,2.60900544
6.68986554,-1.19660026,-1.34413488,1.59710229

>  <Name>
lig.pdb

>  <RI>
2.74555e+07

>  <Rbt.Current_Directory>
/home/itssahil/PROJECTS/Mol_Feturizer/New_Systems/rnas/2n0j

>  <Rbt.Executable>
rbdock ($Id: //depot/dev/client3/rdock/2013.1/src/exe/rbdock.cxx#4 $)

>  <Rbt.Library>
libRbt.so (2013.1, Build901 2013/11/27)

>  <Rbt.Parameter_File>
/export/apps/rDock/src/rDock_2013.1_src/data/scripts/dock_solv.prm

>  <Rbt.Receptor>
prm/pocket_docking_6.prm

>  <SCORE>
-29.7431

>  <SCORE.INTER>
-28.5298

>  <SCORE.INTER.CONST>
1

>  <SCORE.INTER.POLAR>
-3.39994

>  <SCORE.INTER.ROT>
6

>  <SCORE.INTER.SOLV>
12.2052

>  <SCORE.INTER.VDW>
-19.3551

>  <SCORE.INTER.norm>
-0.920318

>  <SCORE.INTRA>
-1.21325

>  <SCORE.INTRA.DIHEDRAL>
-14.8526

>  <SCORE.INTRA.DIHEDRAL.0>
28.0161

>  <SCORE.INTRA.POLAR>
0.772139

>  <SCORE.INTRA.POLAR.0>
-1.05798

>  <SCORE.INTRA.REPUL>
0

>  <SCORE.INTRA.REPUL.0>
0

>  <SCORE.INTRA.SOLV>
0.353191

>  <SCORE.INTRA.SOLV.lig_0>
-42.5945

>  <SCORE.INTRA.VDW>
3.41116

>  <SCORE.INTRA.VDW.0>
-5.13869

>  <SCORE.INTRA.norm>
-0.0391372

>  <SCORE.RESTR>
0

>  <SCORE.RESTR.CAVITY>
0

>  <SCORE.RESTR.norm>
0

>  <SCORE.SYSTEM>
0

>  <SCORE.SYSTEM.CONST>
0

>  <SCORE.SYSTEM.DIHEDRAL>
0

>  <SCORE.SYSTEM.SOLV>
0

>  <SCORE.SYSTEM.norm>
0

>  <SCORE.heavy>
31

>  <SCORE.norm>
-0.959455

>  <RMSD>
7.371

$$$$
lig.pdb
 OpenBabel11021811453D
libRbt.so/2013.1/901 2013/11/27
 31 33  0  0  0  0  0  0  0  0999 V2000
    4.5900    3.9627    0.1468 O   0  0  0  0  0  0  0  0  0  0  0  0
    4.5359    5.1377    0.9320 C   0  0  0  0  0  0  0  0  0  0  0  0
    3.1767    5.8381    0.8008 C   0  0  1  0  0  0  0  0  0  0  0  0
    2.0989    4.9205    0.8975 O   0  0  0  0  0  0  0  0  0  0  0  0
    0.9369    5.5952    1.3700 C   0  0  1  0  0  0  0  0  0  0  0  0
    0.3371    4.8457    2.4200 O   0  0  0  0  0  0  0  0  0  0  0  0
   -1.0792    4.8650    2.5016 C   0  0  2  0  0  0  0  0  0  0  0  0
   -1.4885    6.1607    3.2198 C   0  0  1  0  0  0  0  0  0  0  0  0
   -1.2194    7.2758    2.3845 O   0  0  0  0  0  0  0  0  0  0  0  0
   -2.9756    6.2231    3.6002 C   0  0  2  0  0  0  0  0  0  0  0  0
   -3.2740    7.4426    4.3669 N   0  0  0  0  0  0  0  0  0  0  0  0
   -3.3458    4.9991    4.4295 C   0  0  0  0  0  0  0  0  0  0  0  0
   -2.9998    3.7320    3.6570 C   0  0  2  0  0  0  0  0  0  0  0  0
   -3.4162    2.5731    4.4540 N   0  0  0  0  0  0  0  0  0  0  0  0
   -1.4902    3.6941    3.3354 C   0  0  1  0  0  0  0  0  0  0  0  0
   -1.2795    2.4621    2.6288 O   0  0  0  0  0  0  0  0  0  0  0  0
   -0.5521    1.4421    3.3048 C   0  0  1  0  0  0  0  0  0  0  0  0
   -1.3962    0.7397    4.2130 O   0  0  0  0  0  0  0  0  0  0  0  0
   -2.4095   -0.0763    3.6293 C   0  0  2  0  0  0  0  0  0  0  0  0
   -3.2118   -0.7503    4.7503 C   0  0  0  0  0  0  0  0  0  0  0  0
   -2.3718   -1.0716    5.8953 N   0  0  0  0  0  0  0  0  0  0  0  0
   -1.7900   -1.1483    2.7137 C   0  0  1  0  0  0  0  0  0  0  0  0
   -2.8174   -1.9071    2.1011 O   0  0  0  0  0  0  0  0  0  0  0  0
   -0.9449   -0.4514    1.6401 C   0  0  2  0  0  0  0  0  0  0  0  0
   -0.2907   -1.4140    0.8349 O   0  0  0  0  0  0  0  0  0  0  0  0
    0.0818    0.4895    2.2848 C   0  0  1  0  0  0  0  0  0  0  0  0
    0.7966    1.2449    1.2460 N   0  0  0  0  0  0  0  0  0  0  0  0
    1.4014    6.9554    1.9105 C   0  0  2  0  0  0  0  0  0  0  0  0
    0.9694    7.9889    1.0453 O   0  0  0  0  0  0  0  0  0  0  0  0
    2.9210    6.8028    1.9544 C   0  0  2  0  0  0  0  0  0  0  0  0
    3.6190    8.0269    1.8382 O   0  0  0  0  0  0  0  0  0  0  0  0
  2  1  1  0  0  0  0
  3  2  1  1  0  0  0
  3 30  1  0  0  0  0
  4  5  1  0  0  0  0
  4  3  1  0  0  0  0
  5 28  1  0  0  0  0
  5  6  1  1  0  0  0
  7  6  1  1  0  0  0
  8  7  1  0  0  0  0
  8  9  1  6  0  0  0
 10 11  1  1  0  0  0
 10  8  1  0  0  0  0
 12 10  1  0  0  0  0
 13 12  1  0  0  0  0
 13 15  1  0  0  0  0
 13 14  1  1  0  0  0
 15  7  1  0  0  0  0
 15 16  1  6  0  0  0
 17 16  1  6  0  0  0
 18 17  1  0  0  0  0
 19 20  1  1  0  0  0
 19 18  1  0  0  0  0
 20 21  1  0  0  0  0
 22 24  1  0  0  0  0
 22 19  1  0  0  0  0
 22 23  1  6  0  0  0
 24 25  1  1  0  0  0
 24 26  1  0  0  0  0
 26 17  1  0  0  0  0
 26 27  1  6  0  0  0
 28 29  1  6  0  0  0
 28 30  1  0  0  0  0
 30 31  1  6  0  0  0
M  END
>  <CHROM.1>
-93.20047340,45.42331636,-144.93396476,-81.46854696,73.91778557,71.17053506
140.02486229,128.95850358,80.40106972,-34.39440402,-52.89010638,-64.90969128
61.33409056,167.71398673,53.02466184,-55.03875025,-0.40530263,3.42533606
2.58875876,-0.97416665,-0.51026666,-3.07892573

>  <Name>
lig.pdb

>  <RI>
3.50357e+07

>  <Rbt.Current_Directory>
/home/itssahil/PROJECTS/Mol_Feturizer/New_Systems/rnas/2n0j

>  <Rbt.Executable>
rbdock ($Id: //depot/dev/client3/rdock/2013.1/src/exe/rbdock.cxx#4 $)

>  <Rbt.Library>
libRbt.so (2013.1, Build901 2013/11/27)

>  <Rbt.Parameter_File>
/export/apps/rDock/src/rDock_2013.1_src/data/scripts/dock_solv.prm

>  <Rbt.Receptor>
prm/pocket_docking_3.prm

>  <SCORE>
-33.1214

>  <SCORE.INTER>
-37.2209

>  <SCORE.INTER.CONST>
1

>  <SCORE.INTER.POLAR>
-4.89132

>  <SCORE.INTER.ROT>
6

>  <SCORE.INTER.SOLV>
13.6906

>  <SCORE.INTER.VDW>
-20.6731

>  <SCORE.INTER.norm>
-1.20067

>  <SCORE.INTRA>
4.03989

>  <SCORE.INTRA.DIHEDRAL>
-0.626081

>  <SCORE.INTRA.DIHEDRAL.0>
28.0161

>  <SCORE.INTRA.POLAR>
0.226514

>  <SCORE.INTRA.POLAR.0>
-1.05798

>  <SCORE.INTRA.REPUL>
0

>  <SCORE.INTRA.REPUL.0>
0

>  <SCORE.INTRA.SOLV>
0.912742

>  <SCORE.INTRA.SOLV.lig_0>
-42.5945

>  <SCORE.INTRA.VDW>
3.12641

>  <SCORE.INTRA.VDW.0>
-5.13869

>  <SCORE.INTRA.norm>
0.130319

>  <SCORE.RESTR>
0.0595996

>  <SCORE.RESTR.CAVITY>
0.0595996

>  <SCORE.RESTR.norm>
0.00192257

>  <SCORE.SYSTEM>
0

>  <SCORE.SYSTEM.CONST>
0

>  <SCORE.SYSTEM.DIHEDRAL>
0

>  <SCORE.SYSTEM.SOLV>
0

>  <SCORE.SYSTEM.norm>
0

>  <SCORE.heavy>
31

>  <SCORE.norm>
-1.06843

>  <RMSD>
7.376

$$$$
lig.pdb
 OpenBabel11021811453D
libRbt.so/2013.1/901 2013/11/27
 31 33  0  0  0  0  0  0  0  0999 V2000
    5.0285    2.4210    1.5528 O   0  0  0  0  0  0  0  0  0  0  0  0
    5.4270    3.6565    0.9917 C   0  0  0  0  0  0  0  0  0  0  0  0
    4.3044    4.6994    1.0767 C   0  0  1  0  0  0  0  0  0  0  0  0
    3.0291    4.1218    0.8464 O   0  0  0  0  0  0  0  0  0  0  0  0
    2.0275    4.8988    1.4959 C   0  0  1  0  0  0  0  0  0  0  0  0
    1.1553    4.0467    2.2287 O   0  0  0  0  0  0  0  0  0  0  0  0
   -0.2357    4.3099    2.1357 C   0  0  2  0  0  0  0  0  0  0  0  0
   -0.4737    5.7465    2.6273 C   0  0  1  0  0  0  0  0  0  0  0  0
    0.0704    6.6673    1.6949 O   0  0  0  0  0  0  0  0  0  0  0  0
   -1.9553    6.1072    2.8143 C   0  0  2  0  0  0  0  0  0  0  0  0
   -2.1030    7.4584    3.3770 N   0  0  0  0  0  0  0  0  0  0  0  0
   -2.6173    5.0959    3.7428 C   0  0  0  0  0  0  0  0  0  0  0  0
   -2.4309    3.6896    3.1863 C   0  0  2  0  0  0  0  0  0  0  0  0
   -3.1234    2.7447    4.0690 N   0  0  0  0  0  0  0  0  0  0  0  0
   -0.9287    3.3577    3.0568 C   0  0  1  0  0  0  0  0  0  0  0  0
   -0.8748    2.0176    2.5444 O   0  0  0  0  0  0  0  0  0  0  0  0
   -0.8020    0.9611    3.4957 C   0  0  1  0  0  0  0  0  0  0  0  0
   -1.9132    0.0800    3.3553 O   0  0  0  0  0  0  0  0  0  0  0  0
   -1.9462   -0.7085    2.1676 C   0  0  2  0  0  0  0  0  0  0  0  0
   -3.2023   -1.5897    2.1909 C   0  0  0  0  0  0  0  0  0  0  0  0
   -3.6418   -1.9363    0.8468 N   0  0  0  0  0  0  0  0  0  0  0  0
   -0.6900   -1.5930    2.0618 C   0  0  1  0  0  0  0  0  0  0  0  0
   -0.7180   -2.3218    0.8474 O   0  0  0  0  0  0  0  0  0  0  0  0
    0.5514   -0.6932    2.1021 C   0  0  2  0  0  0  0  0  0  0  0  0
    1.7256   -1.4833    2.0950 O   0  0  0  0  0  0  0  0  0  0  0  0
    0.5257    0.2106    3.3420 C   0  0  1  0  0  0  0  0  0  0  0  0
    1.6519    1.1544    3.3024 N   0  0  0  0  0  0  0  0  0  0  0  0
    2.7553    5.8434    2.4635 C   0  0  2  0  0  0  0  0  0  0  0  0
    2.6845    7.1724    1.9815 O   0  0  0  0  0  0  0  0  0  0  0  0
    4.1769    5.2839    2.4799 C   0  0  2  0  0  0  0  0  0  0  0  0
    5.1642    6.2484    2.7867 O   0  0  0  0  0  0  0  0  0  0  0  0
  2  1  1  0  0  0  0
  3  2  1  1  0  0  0
  3 30  1  0  0  0  0
  4  5  1  0  0  0  0
  4  3  1  0  0  0  0
  5 28  1  0  0  0  0
  5  6  1  1  0  0  0
  7  6  1  1  0  0  0
  8  7  1  0  0  0  0
  8  9  1  6  0  0  0
 10 11  1  1  0  0  0
 10  8  1  0  0  0  0
 12 10  1  0  0  0  0
 13 12  1  0  0  0  0
 13 15  1  0  0  0  0
 13 14  1  1  0  0  0
 15  7  1  0  0  0  0
 15 16  1  6  0  0  0
 17 16  1  6  0  0  0
 18 17  1  0  0  0  0
 19 20  1  1  0  0  0
 19 18  1  0  0  0  0
 20 21  1  0  0  0  0
 22 24  1  0  0  0  0
 22 19  1  0  0  0  0
 22 23  1  6  0  0  0
 24 25  1  1  0  0  0
 24 26  1  0  0  0  0
 26 17  1  0  0  0  0
 26 27  1  6  0  0  0
 28 29  1  6  0  0  0
 28 30  1  0  0  0  0
 30 31  1  6  0  0  0
M  END
>  <CHROM.1>
-158.36135570,-38.04485076,-136.37802234,-58.81628376,59.74318348,-54.75870176
58.83374123,147.08401832,120.44985786,153.65717594,71.28996693,-85.94118888
-55.74178507,82.03256982,56.89072960,-175.72977091,0.42188768,2.81493085
2.34443372,-0.96124401,-0.18580929,-3.02844570

>  <Name>
lig.pdb

>  <RI>
2.74555e+07

>  <Rbt.Current_Directory>
/home/itssahil/PROJECTS/Mol_Feturizer/New_Systems/rnas/2n0j

>  <Rbt.Executable>
rbdock ($Id: //depot/dev/client3/rdock/2013.1/src/exe/rbdock.cxx#4 $)

>  <Rbt.Library>
libRbt.so (2013.1, Build901 2013/11/27)

>  <Rbt.Parameter_File>
/export/apps/rDock/src/rDock_2013.1_src/data/scripts/dock_solv.prm

>  <Rbt.Receptor>
prm/pocket_docking_6.prm

>  <SCORE>
-40.0287

>  <SCORE.INTER>
-38.1606

>  <SCORE.INTER.CONST>
1

>  <SCORE.INTER.POLAR>
-4.78688

>  <SCORE.INTER.ROT>
6

>  <SCORE.INTER.SOLV>
16.0134

>  <SCORE.INTER.VDW>
-22.422

>  <SCORE.INTER.norm>
-1.23099

>  <SCORE.INTRA>
-1.94946

>  <SCORE.INTRA.DIHEDRAL>
-0.127102

>  <SCORE.INTRA.DIHEDRAL.0>
28.0161

>  <SCORE.INTRA.POLAR>
-1.71315

>  <SCORE.INTRA.POLAR.0>
-1.05798

>  <SCORE.INTRA.REPUL>
0.00140482

>  <SCORE.INTRA.REPUL.0>
0

>  <SCORE.INTRA.SOLV>
1.68365

>  <SCORE.INTRA.SOLV.lig_0>
-42.5945

>  <SCORE.INTRA.VDW>
3.08995

>  <SCORE.INTRA.VDW.0>
-5.13869

>  <SCORE.INTRA.norm>
-0.0628859

>  <SCORE.RESTR>
0.0814574

>  <SCORE.RESTR.CAVITY>
0.0814574

>  <SCORE.RESTR.norm>
0.00262766

>  <SCORE.SYSTEM>
0

>  <SCORE.SYSTEM.CONST>
0

>  <SCORE.SYSTEM.DIHEDRAL>
0

>  <SCORE.SYSTEM.SOLV>
0

>  <SCORE.SYSTEM.norm>
0

>  <SCORE.heavy>
31

>  <SCORE.norm>
-1.29125

>  <RMSD>
7.387

$$$$
lig.pdb
 OpenBabel11021811453D
libRbt.so/2013.1/901 2013/11/27
 31 33  0  0  0  0  0  0  0  0999 V2000
    3.4937   11.5430    1.8482 O   0  0  0  0  0  0  0  0  0  0  0  0
    2.8528   10.5410    1.0831 C   0  0  0  0  0  0  0  0  0  0  0  0
    3.5384    9.1788    1.2555 C   0  0  1  0  0  0  0  0  0  0  0  0
    2.9859    8.4431    2.3356 O   0  0  0  0  0  0  0  0  0  0  0  0
    3.1755    7.0493    2.1118 C   0  0  1  0  0  0  0  0  0  0  0  0
    1.9567    6.3531    2.3434 O   0  0  0  0  0  0  0  0  0  0  0  0
    2.0484    5.0668    2.9347 C   0  0  2  0  0  0  0  0  0  0  0  0
    3.0953    4.2634    2.1468 C   0  0  1  0  0  0  0  0  0  0  0  0
    4.3877    4.7981    2.3860 O   0  0  0  0  0  0  0  0  0  0  0  0
    3.1435    2.7715    2.5101 C   0  0  2  0  0  0  0  0  0  0  0  0
    4.0956    2.0494    1.6521 N   0  0  0  0  0  0  0  0  0  0  0  0
    1.7562    2.1596    2.3553 C   0  0  0  0  0  0  0  0  0  0  0  0
    0.7573    2.9302    3.2099 C   0  0  2  0  0  0  0  0  0  0  0  0
   -0.5553    2.2874    3.0845 N   0  0  0  0  0  0  0  0  0  0  0  0
    0.7131    4.4124    2.7798 C   0  0  1  0  0  0  0  0  0  0  0  0
   -0.2628    5.0303    3.6327 O   0  0  0  0  0  0  0  0  0  0  0  0
   -1.5789    5.1802    3.1112 C   0  0  1  0  0  0  0  0  0  0  0  0
   -2.5120    4.4196    3.8738 O   0  0  0  0  0  0  0  0  0  0  0  0
   -2.7594    4.8742    5.2025 C   0  0  2  0  0  0  0  0  0  0  0  0
   -3.7826    3.9417    5.8645 C   0  0  0  0  0  0  0  0  0  0  0  0
   -3.2054    2.6411    6.1725 N   0  0  0  0  0  0  0  0  0  0  0  0
   -3.2958    6.3178    5.1970 C   0  0  1  0  0  0  0  0  0  0  0  0
   -3.4777    6.7664    6.5282 O   0  0  0  0  0  0  0  0  0  0  0  0
   -2.2834    7.2172    4.4768 C   0  0  2  0  0  0  0  0  0  0  0  0
   -2.7880    8.5358    4.3778 O   0  0  0  0  0  0  0  0  0  0  0  0
   -1.9630    6.6638    3.0818 C   0  0  1  0  0  0  0  0  0  0  0  0
   -0.8995    7.4612    2.4542 N   0  0  0  0  0  0  0  0  0  0  0  0
    3.5882    6.8871    0.6416 C   0  0  2  0  0  0  0  0  0  0  0  0
    4.9525    6.5180    0.5636 O   0  0  0  0  0  0  0  0  0  0  0  0
    3.3037    8.2685    0.0542 C   0  0  2  0  0  0  0  0  0  0  0  0
    4.1057    8.5863   -1.0661 O   0  0  0  0  0  0  0  0  0  0  0  0
  2  1  1  0  0  0  0
  3  2  1  6  0  0  0
  3 30  1  0  0  0  0
  4  5  1  0  0  0  0
  4  3  1  0  0  0  0
  5 28  1  0  0  0  0
  5  6  1  6  0  0  0
  7  6  1  6  0  0  0
  8  7  1  0  0  0  0
  8  9  1  1  0  0  0
 10 11  1  6  0  0  0
 10  8  1  0  0  0  0
 12 10  1  0  0  0  0
 13 12  1  0  0  0  0
 13 15  1  0  0  0  0
 13 14  1  6  0  0  0
 15  7  1  0  0  0  0
 15 16  1  1  0  0  0
 17 16  1  1  0  0  0
 18 17  1  0  0  0  0
 19 20  1  6  0  0  0
 19 18  1  0  0  0  0
 20 21  1  0  0  0  0
 22 24  1  0  0  0  0
 22 19  1  0  0  0  0
 22 23  1  1  0  0  0
 24 25  1  6  0  0  0
 24 26  1  0  0  0  0
 26 17  1  0  0  0  0
 26 27  1  1  0  0  0
 28 29  1  1  0  0  0
 28 30  1  0  0  0  0
 30 31  1  6  0  0  0
M  END
>  <CHROM.1>
165.86171632,89.73639602,-143.81037335,-49.54831163,42.30609635,87.52958171
62.48748688,141.96582474,116.55068000,71.69008574,-64.30439399,-175.17428172
65.63047811,-42.07304377,-177.99394993,59.89775795,0.80485364,5.92958644
2.84814213,0.42708144,0.50842194,-0.11875180

>  <Name>
lig.pdb

>  <RI>
3.32461e+07

>  <Rbt.Current_Directory>
/home/itssahil/PROJECTS/Mol_Feturizer/New_Systems/rnas/2n0j

>  <Rbt.Executable>
rbdock ($Id: //depot/dev/client3/rdock/2013.1/src/exe/rbdock.cxx#4 $)

>  <Rbt.Library>
libRbt.so (2013.1, Build901 2013/11/27)

>  <Rbt.Parameter_File>
/export/apps/rDock/src/rDock_2013.1_src/data/scripts/dock_solv.prm

>  <Rbt.Receptor>
prm/pocket_docking_7.prm

>  <SCORE>
-43.6498

>  <SCORE.INTER>
-45.1698

>  <SCORE.INTER.CONST>
1

>  <SCORE.INTER.POLAR>
-4.71011

>  <SCORE.INTER.ROT>
6

>  <SCORE.INTER.SOLV>
21.2764

>  <SCORE.INTER.VDW>
-29.105

>  <SCORE.INTER.norm>
-1.45709

>  <SCORE.INTRA>
1.52007

>  <SCORE.INTRA.DIHEDRAL>
-2.14847

>  <SCORE.INTRA.DIHEDRAL.0>
28.0161

>  <SCORE.INTRA.POLAR>
-0.783087

>  <SCORE.INTRA.POLAR.0>
-1.05798

>  <SCORE.INTRA.REPUL>
0.0345529

>  <SCORE.INTRA.REPUL.0>
0

>  <SCORE.INTRA.SOLV>
0.943001

>  <SCORE.INTRA.SOLV.lig_0>
-42.5945

>  <SCORE.INTRA.VDW>
4.61253

>  <SCORE.INTRA.VDW.0>
-5.13869

>  <SCORE.INTRA.norm>
0.0490345

>  <SCORE.RESTR>
0

>  <SCORE.RESTR.CAVITY>
0

>  <SCORE.RESTR.norm>
0

>  <SCORE.SYSTEM>
0

>  <SCORE.SYSTEM.CONST>
0

>  <SCORE.SYSTEM.DIHEDRAL>
0

>  <SCORE.SYSTEM.SOLV>
0

>  <SCORE.SYSTEM.norm>
0

>  <SCORE.heavy>
31

>  <SCORE.norm>
-1.40806

>  <RMSD>
7.406

$$$$
lig.pdb
 OpenBabel11021811453D
libRbt.so/2013.1/901 2013/11/27
 31 33  0  0  0  0  0  0  0  0999 V2000
   -3.4738   -1.2183    2.2800 O   0  0  0  0  0  0  0  0  0  0  0  0
   -3.3774   -1.0103    0.8844 C   0  0  0  0  0  0  0  0  0  0  0  0
   -2.2943    0.0225    0.5446 C   0  0  1  0  0  0  0  0  0  0  0  0
   -2.5858    1.2949    1.1003 O   0  0  0  0  0  0  0  0  0  0  0  0
   -1.3753    2.0183    1.3008 C   0  0  1  0  0  0  0  0  0  0  0  0
   -1.3591    2.5793    2.6080 O   0  0  0  0  0  0  0  0  0  0  0  0
   -2.1595    3.7297    2.8286 C   0  0  2  0  0  0  0  0  0  0  0  0
   -1.3195    4.9620    2.4572 C   0  0  1  0  0  0  0  0  0  0  0  0
   -1.1193    4.9986    1.0529 O   0  0  0  0  0  0  0  0  0  0  0  0
   -1.9565    6.2998    2.8630 C   0  0  2  0  0  0  0  0  0  0  0  0
   -1.0568    7.4250    2.5655 N   0  0  0  0  0  0  0  0  0  0  0  0
   -2.2759    6.2860    4.3533 C   0  0  0  0  0  0  0  0  0  0  0  0
   -3.1739    5.0976    4.6746 C   0  0  2  0  0  0  0  0  0  0  0  0
   -3.5090    5.1405    6.1020 N   0  0  0  0  0  0  0  0  0  0  0  0
   -2.4747    3.7760    4.2894 C   0  0  1  0  0  0  0  0  0  0  0  0
   -3.3966    2.7355    4.6483 O   0  0  0  0  0  0  0  0  0  0  0  0
   -2.8429    1.5118    5.1201 C   0  0  1  0  0  0  0  0  0  0  0  0
   -2.2013    1.7017    6.3783 O   0  0  0  0  0  0  0  0  0  0  0  0
   -3.0549    1.9866    7.4845 C   0  0  2  0  0  0  0  0  0  0  0  0
   -2.1955    2.1568    8.7444 C   0  0  0  0  0  0  0  0  0  0  0  0
   -2.9844    2.6249    9.8749 N   0  0  0  0  0  0  0  0  0  0  0  0
   -4.0737    0.8515    7.6972 C   0  0  1  0  0  0  0  0  0  0  0  0
   -4.9461    1.1842    8.7625 O   0  0  0  0  0  0  0  0  0  0  0  0
   -4.8771    0.6614    6.4046 C   0  0  2  0  0  0  0  0  0  0  0  0
   -5.7631   -0.4340    6.5388 O   0  0  0  0  0  0  0  0  0  0  0  0
   -3.9385    0.4435    5.2101 C   0  0  1  0  0  0  0  0  0  0  0  0
   -4.7133    0.3905    3.9622 N   0  0  0  0  0  0  0  0  0  0  0  0
   -0.2261    1.0095    1.1607 C   0  0  2  0  0  0  0  0  0  0  0  0
    0.4815    1.2514   -0.0411 O   0  0  0  0  0  0  0  0  0  0  0  0
   -0.9509   -0.3355    1.1723 C   0  0  2  0  0  0  0  0  0  0  0  0
   -0.2581   -1.3608    0.4883 O   0  0  0  0  0  0  0  0  0  0  0  0
  2  1  1  0  0  0  0
  3  2  1  1  0  0  0
  3 30  1  0  0  0  0
  4  5  1  0  0  0  0
  4  3  1  0  0  0  0
  5 28  1  0  0  0  0
  5  6  1  1  0  0  0
  7  6  1  1  0  0  0
  8  7  1  0  0  0  0
  8  9  1  6  0  0  0
 10 11  1  1  0  0  0
 10  8  1  0  0  0  0
 12 10  1  0  0  0  0
 13 12  1  0  0  0  0
 13 15  1  0  0  0  0
 13 14  1  1  0  0  0
 15  7  1  0  0  0  0
 15 16  1  6  0  0  0
 17 16  1  1  0  0  0
 18 17  1  0  0  0  0
 19 20  1  1  0  0  0
 19 18  1  0  0  0  0
 20 21  1  0  0  0  0
 22 24  1  0  0  0  0
 22 19  1  0  0  0  0
 22 23  1  1  0  0  0
 24 25  1  1  0  0  0
 24 26  1  0  0  0  0
 26 17  1  0  0  0  0
 26 27  1  6  0  0  0
 28 29  1  6  0  0  0
 28 30  1  0  0  0  0
 30 31  1  6  0  0  0
M  END
>  <CHROM.1>
-178.59166360,-62.08072784,-76.13877266,-87.40148810,-66.38558685,50.80703761
-57.26005448,93.60739243,66.94949525,172.35359635,-76.17619569,-178.15631515
-58.85572774,-51.72436778,176.68824867,65.11357943,-2.57352987,2.16502501
3.99646098,0.50728605,-1.12913636,-2.62737670

>  <Name>
lig.pdb

>  <RI>
2.67765e+07

>  <Rbt.Current_Directory>
/home/itssahil/PROJECTS/Mol_Feturizer/New_Systems/rnas/2n0j

>  <Rbt.Executable>
rbdock ($Id: //depot/dev/client3/rdock/2013.1/src/exe/rbdock.cxx#4 $)

>  <Rbt.Library>
libRbt.so (2013.1, Build901 2013/11/27)

>  <Rbt.Parameter_File>
/export/apps/rDock/src/rDock_2013.1_src/data/scripts/dock_solv.prm

>  <Rbt.Receptor>
prm/pocket_docking_2.prm

>  <SCORE>
-25.6964

>  <SCORE.INTER>
-19.9134

>  <SCORE.INTER.CONST>
1

>  <SCORE.INTER.POLAR>
-3.14047

>  <SCORE.INTER.ROT>
6

>  <SCORE.INTER.SOLV>
12.0348

>  <SCORE.INTER.VDW>
-14.419

>  <SCORE.INTER.norm>
-0.642368

>  <SCORE.INTRA>
-9.33237

>  <SCORE.INTRA.DIHEDRAL>
-17.1567

>  <SCORE.INTRA.DIHEDRAL.0>
28.0161

>  <SCORE.INTRA.POLAR>
-0.749963

>  <SCORE.INTRA.POLAR.0>
-1.05798

>  <SCORE.INTRA.REPUL>
0

>  <SCORE.INTRA.REPUL.0>
0

>  <SCORE.INTRA.SOLV>
2.21072

>  <SCORE.INTRA.SOLV.lig_0>
-42.5945

>  <SCORE.INTRA.VDW>
0.690502

>  <SCORE.INTRA.VDW.0>
-5.13869

>  <SCORE.INTRA.norm>
-0.301044

>  <SCORE.RESTR>
3.54942

>  <SCORE.RESTR.CAVITY>
3.54942

>  <SCORE.RESTR.norm>
0.114497

>  <SCORE.SYSTEM>
0

>  <SCORE.SYSTEM.CONST>
0

>  <SCORE.SYSTEM.DIHEDRAL>
0

>  <SCORE.SYSTEM.SOLV>
0

>  <SCORE.SYSTEM.norm>
0

>  <SCORE.heavy>
31

>  <SCORE.norm>
-0.828915

>  <RMSD>
7.452

$$$$
lig.pdb
 OpenBabel11021811453D
libRbt.so/2013.1/901 2013/11/27
 31 33  0  0  0  0  0  0  0  0999 V2000
    5.0900    1.9853    1.1716 O   0  0  0  0  0  0  0  0  0  0  0  0
    5.5036    3.1718    0.5226 C   0  0  0  0  0  0  0  0  0  0  0  0
    4.5938    4.3543    0.8821 C   0  0  1  0  0  0  0  0  0  0  0  0
    3.2206    4.0230    0.7487 O   0  0  0  0  0  0  0  0  0  0  0  0
    2.4438    4.8451    1.6145 C   0  0  1  0  0  0  0  0  0  0  0  0
    1.5211    4.0431    2.3421 O   0  0  0  0  0  0  0  0  0  0  0  0
    0.1409    4.2555    2.0915 C   0  0  2  0  0  0  0  0  0  0  0  0
   -0.2152    5.6622    2.5981 C   0  0  1  0  0  0  0  0  0  0  0  0
    0.3955    6.6380    1.7685 O   0  0  0  0  0  0  0  0  0  0  0  0
   -1.7227    5.9578    2.6176 C   0  0  2  0  0  0  0  0  0  0  0  0
   -1.9940    7.2800    3.2026 N   0  0  0  0  0  0  0  0  0  0  0  0
   -2.4460    4.8872    3.4261 C   0  0  0  0  0  0  0  0  0  0  0  0
   -2.1347    3.5113    2.8500 C   0  0  2  0  0  0  0  0  0  0  0  0
   -2.8857    2.5075    3.6115 N   0  0  0  0  0  0  0  0  0  0  0  0
   -0.6148    3.2430    2.8909 C   0  0  1  0  0  0  0  0  0  0  0  0
   -0.4429    1.9263    2.3447 O   0  0  0  0  0  0  0  0  0  0  0  0
    0.5118    1.0806    2.9771 C   0  0  1  0  0  0  0  0  0  0  0  0
    0.2403    0.9696    4.3716 O   0  0  0  0  0  0  0  0  0  0  0  0
   -0.9417    0.2563    4.7289 C   0  0  2  0  0  0  0  0  0  0  0  0
   -1.0680    0.2381    6.2580 C   0  0  0  0  0  0  0  0  0  0  0  0
   -1.6264    1.4826    6.7670 N   0  0  0  0  0  0  0  0  0  0  0  0
   -0.8946   -1.1862    4.1918 C   0  0  1  0  0  0  0  0  0  0  0  0
   -2.1025   -1.8550    4.5084 O   0  0  0  0  0  0  0  0  0  0  0  0
   -0.7070   -1.1400    2.6702 C   0  0  2  0  0  0  0  0  0  0  0  0
   -0.5720   -2.4518    2.1564 O   0  0  0  0  0  0  0  0  0  0  0  0
    0.5196   -0.2950    2.3008 C   0  0  1  0  0  0  0  0  0  0  0  0
    0.6141   -0.1533    0.8408 N   0  0  0  0  0  0  0  0  0  0  0  0
    3.4233    5.5140    2.5898 C   0  0  2  0  0  0  0  0  0  0  0  0
    3.5319    6.8932    2.2909 O   0  0  0  0  0  0  0  0  0  0  0  0
    4.7203    4.7423    2.3518 C   0  0  2  0  0  0  0  0  0  0  0  0
    5.8864    5.4858    2.6460 O   0  0  0  0  0  0  0  0  0  0  0  0
  2  1  1  0  0  0  0
  3  2  1  1  0  0  0
  3 30  1  0  0  0  0
  4  5  1  0  0  0  0
  4  3  1  0  0  0  0
  5 28  1  0  0  0  0
  5  6  1  1  0  0  0
  7  6  1  1  0  0  0
  8  7  1  0  0  0  0
  8  9  1  6  0  0  0
 10 11  1  1  0  0  0
 10  8  1  0  0  0  0
 12 10  1  0  0  0  0
 13 12  1  0  0  0  0
 13 15  1  0  0  0  0
 13 14  1  1  0  0  0
 15  7  1  0  0  0  0
 15 16  1  6  0  0  0
 17 16  1  6  0  0  0
 18 17  1  0  0  0  0
 19 20  1  1  0  0  0
 19 18  1  0  0  0  0
 20 21  1  0  0  0  0
 22 24  1  0  0  0  0
 22 19  1  0  0  0  0
 22 23  1  6  0  0  0
 24 25  1  1  0  0  0
 24 26  1  0  0  0  0
 26 17  1  0  0  0  0
 26 27  1  6  0  0  0
 28 29  1  6  0  0  0
 28 30  1  0  0  0  0
 30 31  1  6  0  0  0
M  END
>  <CHROM.1>
-85.43018820,-48.56815946,-115.08131375,-66.66000873,70.20698438,-166.04769911
-178.98133580,99.54911653,54.39736151,80.71419743,-165.71193104,64.02959859
66.86050377,-172.57942950,-57.33256933,62.24032166,0.70783606,2.83155555
2.78702906,-0.81011704,-0.37005027,3.08384259

>  <Name>
lig.pdb

>  <RI>
3.50357e+07

>  <Rbt.Current_Directory>
/home/itssahil/PROJECTS/Mol_Feturizer/New_Systems/rnas/2n0j

>  <Rbt.Executable>
rbdock ($Id: //depot/dev/client3/rdock/2013.1/src/exe/rbdock.cxx#4 $)

>  <Rbt.Library>
libRbt.so (2013.1, Build901 2013/11/27)

>  <Rbt.Parameter_File>
/export/apps/rDock/src/rDock_2013.1_src/data/scripts/dock_solv.prm

>  <Rbt.Receptor>
prm/pocket_docking_3.prm

>  <SCORE>
-34.2682

>  <SCORE.INTER>
-35.7765

>  <SCORE.INTER.CONST>
1

>  <SCORE.INTER.POLAR>
-4.6818

>  <SCORE.INTER.ROT>
6

>  <SCORE.INTER.SOLV>
14.8503

>  <SCORE.INTER.VDW>
-20.7951

>  <SCORE.INTER.norm>
-1.15408

>  <SCORE.INTRA>
0.905568

>  <SCORE.INTRA.DIHEDRAL>
-8.31312

>  <SCORE.INTRA.DIHEDRAL.0>
28.0161

>  <SCORE.INTRA.POLAR>
1.02664

>  <SCORE.INTRA.POLAR.0>
-1.05798

>  <SCORE.INTRA.REPUL>
0

>  <SCORE.INTRA.REPUL.0>
0

>  <SCORE.INTRA.SOLV>
0.719058

>  <SCORE.INTRA.SOLV.lig_0>
-42.5945

>  <SCORE.INTRA.VDW>
1.21203

>  <SCORE.INTRA.VDW.0>
-5.13869

>  <SCORE.INTRA.norm>
0.0292119

>  <SCORE.RESTR>
0.602727

>  <SCORE.RESTR.CAVITY>
0.602727

>  <SCORE.RESTR.norm>
0.0194428

>  <SCORE.SYSTEM>
0

>  <SCORE.SYSTEM.CONST>
0

>  <SCORE.SYSTEM.DIHEDRAL>
0

>  <SCORE.SYSTEM.SOLV>
0

>  <SCORE.SYSTEM.norm>
0

>  <SCORE.heavy>
31

>  <SCORE.norm>
-1.10542

>  <RMSD>
7.457

$$$$
lig.pdb
 OpenBabel11021811453D
libRbt.so/2013.1/901 2013/11/27
 31 33  0  0  0  0  0  0  0  0999 V2000
    8.1493    3.2073   -2.0591 O   0  0  0  0  0  0  0  0  0  0  0  0
    6.7947    3.6016   -1.9607 C   0  0  0  0  0  0  0  0  0  0  0  0
    6.4103    3.9322   -0.5121 C   0  0  1  0  0  0  0  0  0  0  0  0
    5.0157    4.1533   -0.3737 O   0  0  0  0  0  0  0  0  0  0  0  0
    4.6147    3.8587    0.9609 C   0  0  1  0  0  0  0  0  0  0  0  0
    3.4535    3.0370    0.9457 O   0  0  0  0  0  0  0  0  0  0  0  0
    2.9210    2.6457    2.2012 C   0  0  2  0  0  0  0  0  0  0  0  0
    3.0086    1.1138    2.2894 C   0  0  1  0  0  0  0  0  0  0  0  0
    4.3667    0.7182    2.4013 O   0  0  0  0  0  0  0  0  0  0  0  0
    2.2570    0.5113    3.4861 C   0  0  2  0  0  0  0  0  0  0  0  0
    2.3022   -0.9587    3.4524 N   0  0  0  0  0  0  0  0  0  0  0  0
    0.8051    0.9747    3.4675 C   0  0  0  0  0  0  0  0  0  0  0  0
    0.7527    2.4976    3.4598 C   0  0  2  0  0  0  0  0  0  0  0  0
   -0.6531    2.9147    3.4973 N   0  0  0  0  0  0  0  0  0  0  0  0
    1.4829    3.0542    2.2185 C   0  0  1  0  0  0  0  0  0  0  0  0
    1.3563    4.4816    2.3070 O   0  0  0  0  0  0  0  0  0  0  0  0
    0.6216    5.1334    1.2765 C   0  0  1  0  0  0  0  0  0  0  0  0
   -0.7800    5.0047    1.4991 O   0  0  0  0  0  0  0  0  0  0  0  0
   -1.3088    5.7159    2.6163 C   0  0  2  0  0  0  0  0  0  0  0  0
   -2.8200    5.4621    2.6970 C   0  0  0  0  0  0  0  0  0  0  0  0
   -3.3171    5.5997    4.0585 N   0  0  0  0  0  0  0  0  0  0  0  0
   -1.0396    7.2262    2.4818 C   0  0  1  0  0  0  0  0  0  0  0  0
   -1.5214    7.9028    3.6292 O   0  0  0  0  0  0  0  0  0  0  0  0
    0.4717    7.4472    2.3418 C   0  0  2  0  0  0  0  0  0  0  0  0
    0.7452    8.8193    2.1282 O   0  0  0  0  0  0  0  0  0  0  0  0
    1.0380    6.6061    1.1898 C   0  0  1  0  0  0  0  0  0  0  0  0
    2.5022    6.7281    1.1478 N   0  0  0  0  0  0  0  0  0  0  0  0
    5.7752    3.0956    1.6158 C   0  0  2  0  0  0  0  0  0  0  0  0
    6.4072    3.9175    2.5795 O   0  0  0  0  0  0  0  0  0  0  0  0
    6.6750    2.7601    0.4275 C   0  0  2  0  0  0  0  0  0  0  0  0
    8.0373    2.6032    0.7722 O   0  0  0  0  0  0  0  0  0  0  0  0
  2  1  1  0  0  0  0
  3  2  1  6  0  0  0
  3 30  1  0  0  0  0
  4  5  1  0  0  0  0
  4  3  1  0  0  0  0
  5 28  1  0  0  0  0
  5  6  1  6  0  0  0
  7  6  1  6  0  0  0
  8  7  1  0  0  0  0
  8  9  1  1  0  0  0
 10 11  1  6  0  0  0
 10  8  1  0  0  0  0
 12 10  1  0  0  0  0
 13 12  1  0  0  0  0
 13 15  1  0  0  0  0
 13 14  1  6  0  0  0
 15  7  1  0  0  0  0
 15 16  1  1  0  0  0
 17 16  1  1  0  0  0
 18 17  1  0  0  0  0
 19 20  1  6  0  0  0
 19 18  1  0  0  0  0
 20 21  1  0  0  0  0
 22 24  1  0  0  0  0
 22 19  1  0  0  0  0
 22 23  1  1  0  0  0
 24 25  1  6  0  0  0
 24 26  1  0  0  0  0
 26 17  1  0  0  0  0
 26 27  1  1  0  0  0
 28 29  1  1  0  0  0
 28 30  1  0  0  0  0
 30 31  1  1  0  0  0
M  END
>  <CHROM.1>
-105.62940887,-172.07456439,179.83869520,-117.37987674,-160.37840825,-96.72250132
26.15950982,122.79575577,79.30542677,153.48749995,-81.37347407,-80.08411089
-72.50975308,-51.77999858,-174.49158623,-155.04349592,2.42039191,4.00202422
1.82290474,-0.26525012,0.42856464,-0.32462970

>  <Name>
lig.pdb

>  <RI>
3.32461e+07

>  <Rbt.Current_Directory>
/home/itssahil/PROJECTS/Mol_Feturizer/New_Systems/rnas/2n0j

>  <Rbt.Executable>
rbdock ($Id: //depot/dev/client3/rdock/2013.1/src/exe/rbdock.cxx#4 $)

>  <Rbt.Library>
libRbt.so (2013.1, Build901 2013/11/27)

>  <Rbt.Parameter_File>
/export/apps/rDock/src/rDock_2013.1_src/data/scripts/dock_solv.prm

>  <Rbt.Receptor>
prm/pocket_docking_7.prm

>  <SCORE>
-38.8444

>  <SCORE.INTER>
-49.1666

>  <SCORE.INTER.CONST>
1

>  <SCORE.INTER.POLAR>
-6.71767

>  <SCORE.INTER.ROT>
6

>  <SCORE.INTER.SOLV>
26.5136

>  <SCORE.INTER.VDW>
-26.8234

>  <SCORE.INTER.norm>
-1.58602

>  <SCORE.INTRA>
10.2985

>  <SCORE.INTRA.DIHEDRAL>
9.75511

>  <SCORE.INTRA.DIHEDRAL.0>
28.0161

>  <SCORE.INTRA.POLAR>
0.756311

>  <SCORE.INTRA.POLAR.0>
-1.05798

>  <SCORE.INTRA.REPUL>
0

>  <SCORE.INTRA.REPUL.0>
0

>  <SCORE.INTRA.SOLV>
1.37276

>  <SCORE.INTRA.SOLV.lig_0>
-42.5945

>  <SCORE.INTRA.VDW>
2.16312

>  <SCORE.INTRA.VDW.0>
-5.13869

>  <SCORE.INTRA.norm>
0.33221

>  <SCORE.RESTR>
0.0236873

>  <SCORE.RESTR.CAVITY>
0.0236873

>  <SCORE.RESTR.norm>
0.000764105

>  <SCORE.SYSTEM>
0

>  <SCORE.SYSTEM.CONST>
0

>  <SCORE.SYSTEM.DIHEDRAL>
0

>  <SCORE.SYSTEM.SOLV>
0

>  <SCORE.SYSTEM.norm>
0

>  <SCORE.heavy>
31

>  <SCORE.norm>
-1.25305

>  <RMSD>
7.460

$$$$
lig.pdb
 OpenBabel11021811453D
libRbt.so/2013.1/901 2013/11/27
 31 33  0  0  0  0  0  0  0  0999 V2000
    6.2731    4.6209    2.9626 O   0  0  0  0  0  0  0  0  0  0  0  0
    5.5163    4.0007    1.9415 C   0  0  0  0  0  0  0  0  0  0  0  0
    4.1291    3.5818    2.4469 C   0  0  1  0  0  0  0  0  0  0  0  0
    3.1400    4.5506    2.1372 O   0  0  0  0  0  0  0  0  0  0  0  0
    1.8645    3.9223    2.0530 C   0  0  1  0  0  0  0  0  0  0  0  0
    1.1962    4.3435    0.8698 O   0  0  0  0  0  0  0  0  0  0  0  0
    0.6123    5.6365    0.8817 C   0  0  2  0  0  0  0  0  0  0  0  0
    1.7530    6.6640    0.9539 C   0  0  1  0  0  0  0  0  0  0  0  0
    2.4705    6.6684   -0.2703 O   0  0  0  0  0  0  0  0  0  0  0  0
    1.2837    8.1036    1.2137 C   0  0  2  0  0  0  0  0  0  0  0  0
    2.4297    9.0132    1.3667 N   0  0  0  0  0  0  0  0  0  0  0  0
    0.4303    8.1462    2.4758 C   0  0  0  0  0  0  0  0  0  0  0  0
   -0.7354    7.1743    2.3400 C   0  0  2  0  0  0  0  0  0  0  0  0
   -1.5685    7.2761    3.5430 N   0  0  0  0  0  0  0  0  0  0  0  0
   -0.2145    5.7371    2.1234 C   0  0  1  0  0  0  0  0  0  0  0  0
   -1.3873    4.9145    2.0266 O   0  0  0  0  0  0  0  0  0  0  0  0
   -1.5006    3.8345    2.9472 C   0  0  1  0  0  0  0  0  0  0  0  0
   -2.0168    4.2890    4.1952 O   0  0  0  0  0  0  0  0  0  0  0  0
   -3.3789    4.7113    4.1978 C   0  0  2  0  0  0  0  0  0  0  0  0
   -3.7570    5.1611    5.6153 C   0  0  0  0  0  0  0  0  0  0  0  0
   -3.4389    6.5644    5.8376 N   0  0  0  0  0  0  0  0  0  0  0  0
   -4.3078    3.5684    3.7477 C   0  0  1  0  0  0  0  0  0  0  0  0
   -5.6466    4.0289    3.7023 O   0  0  0  0  0  0  0  0  0  0  0  0
   -3.8705    3.0969    2.3553 C   0  0  2  0  0  0  0  0  0  0  0  0
   -4.6503    1.9875    1.9500 O   0  0  0  0  0  0  0  0  0  0  0  0
   -2.3803    2.7301    2.3505 C   0  0  1  0  0  0  0  0  0  0  0  0
   -1.9452    2.4030    0.9851 N   0  0  0  0  0  0  0  0  0  0  0  0
    2.1176    2.4091    1.9887 C   0  0  2  0  0  0  0  0  0  0  0  0
    1.7162    1.8030    3.2033 O   0  0  0  0  0  0  0  0  0  0  0  0
    3.6234    2.3263    1.7434 C   0  0  2  0  0  0  0  0  0  0  0  0
    4.2121    1.1316    2.2181 O   0  0  0  0  0  0  0  0  0  0  0  0
  2  1  1  0  0  0  0
  3  2  1  6  0  0  0
  3 30  1  0  0  0  0
  4  5  1  0  0  0  0
  4  3  1  0  0  0  0
  5 28  1  0  0  0  0
  5  6  1  6  0  0  0
  7  6  1  1  0  0  0
  8  7  1  0  0  0  0
  8  9  1  6  0  0  0
 10 11  1  1  0  0  0
 10  8  1  0  0  0  0
 12 10  1  0  0  0  0
 13 12  1  0  0  0  0
 13 15  1  0  0  0  0
 13 14  1  1  0  0  0
 15  7  1  0  0  0  0
 15 16  1  6  0  0  0
 17 16  1  6  0  0  0
 18 17  1  0  0  0  0
 19 20  1  1  0  0  0
 19 18  1  0  0  0  0
 20 21  1  0  0  0  0
 22 24  1  0  0  0  0
 22 19  1  0  0  0  0
 22 23  1  6  0  0  0
 24 25  1  1  0  0  0
 24 26  1  0  0  0  0
 26 17  1  0  0  0  0
 26 27  1  6  0  0  0
 28 29  1  1  0  0  0
 28 30  1  0  0  0  0
 30 31  1  1  0  0  0
M  END
>  <CHROM.1>
-178.91102205,96.33549782,-76.96915196,67.19596159,-71.87594481,-50.47647116
67.44988603,116.20329766,82.62095148,87.21446189,66.08326399,-31.75542177
178.23453237,42.13141066,-69.55710922,-175.36293075,0.07091633,4.65466157
2.46464024,-0.02969951,-0.23008713,3.12740099

>  <Name>
lig.pdb

>  <RI>
0

>  <Rbt.Current_Directory>
/home/itssahil/PROJECTS/Mol_Feturizer/New_Systems/rnas/2n0j

>  <Rbt.Executable>
rbdock ($Id: //depot/dev/client3/rdock/2013.1/src/exe/rbdock.cxx#4 $)

>  <Rbt.Library>
libRbt.so (2013.1, Build901 2013/11/27)

>  <Rbt.Parameter_File>
/export/apps/rDock/src/rDock_2013.1_src/data/scripts/dock_solv.prm

>  <Rbt.Receptor>
prm/pocket_docking_8.prm

>  <SCORE>
-36.3606

>  <SCORE.INTER>
-41.5558

>  <SCORE.INTER.CONST>
1

>  <SCORE.INTER.POLAR>
-5.52915

>  <SCORE.INTER.ROT>
6

>  <SCORE.INTER.SOLV>
21.5213

>  <SCORE.INTER.VDW>
-24.0472

>  <SCORE.INTER.norm>
-1.34051

>  <SCORE.INTRA>
5.09817

>  <SCORE.INTRA.DIHEDRAL>
-5.31769

>  <SCORE.INTRA.DIHEDRAL.0>
28.0161

>  <SCORE.INTRA.POLAR>
1.05362

>  <SCORE.INTRA.POLAR.0>
-1.05798

>  <SCORE.INTRA.REPUL>
0

>  <SCORE.INTRA.REPUL.0>
0

>  <SCORE.INTRA.SOLV>
0.201

>  <SCORE.INTRA.SOLV.lig_0>
-42.5945

>  <SCORE.INTRA.VDW>
4.07421

>  <SCORE.INTRA.VDW.0>
-5.13869

>  <SCORE.INTRA.norm>
0.164457

>  <SCORE.RESTR>
0.0970811

>  <SCORE.RESTR.CAVITY>
0.0970811

>  <SCORE.RESTR.norm>
0.00313165

>  <SCORE.SYSTEM>
0

>  <SCORE.SYSTEM.CONST>
0

>  <SCORE.SYSTEM.DIHEDRAL>
0

>  <SCORE.SYSTEM.SOLV>
0

>  <SCORE.SYSTEM.norm>
0

>  <SCORE.heavy>
31

>  <SCORE.norm>
-1.17292

>  <RMSD>
7.484

$$$$
lig.pdb
 OpenBabel11021811453D
libRbt.so/2013.1/901 2013/11/27
 31 33  0  0  0  0  0  0  0  0999 V2000
    6.8845    3.4303    1.0876 O   0  0  0  0  0  0  0  0  0  0  0  0
    5.5425    3.0572    0.8427 C   0  0  0  0  0  0  0  0  0  0  0  0
    4.5900    4.2493    1.0062 C   0  0  1  0  0  0  0  0  0  0  0  0
    3.2316    3.8608    0.8769 O   0  0  0  0  0  0  0  0  0  0  0  0
    2.4034    4.7697    1.5957 C   0  0  1  0  0  0  0  0  0  0  0  0
    1.4768    4.0474    2.3979 O   0  0  0  0  0  0  0  0  0  0  0  0
    0.0973    4.2775    2.1595 C   0  0  2  0  0  0  0  0  0  0  0  0
   -0.2300    5.6992    2.6430 C   0  0  1  0  0  0  0  0  0  0  0  0
    0.3864    6.6489    1.7876 O   0  0  0  0  0  0  0  0  0  0  0  0
   -1.7321    6.0198    2.6746 C   0  0  2  0  0  0  0  0  0  0  0  0
   -1.9750    7.3572    3.2371 N   0  0  0  0  0  0  0  0  0  0  0  0
   -2.4629    4.9769    3.5120 C   0  0  0  0  0  0  0  0  0  0  0  0
   -2.1807    3.5853    2.9590 C   0  0  2  0  0  0  0  0  0  0  0  0
   -2.9386    2.6086    3.7486 N   0  0  0  0  0  0  0  0  0  0  0  0
   -0.6650    3.2930    2.9871 C   0  0  1  0  0  0  0  0  0  0  0  0
   -0.5210    1.9634    2.4646 O   0  0  0  0  0  0  0  0  0  0  0  0
    0.6092    1.2142    2.8981 C   0  0  1  0  0  0  0  0  0  0  0  0
    0.5373    0.9598    4.2984 O   0  0  0  0  0  0  0  0  0  0  0  0
   -0.4858    0.0625    4.7244 C   0  0  2  0  0  0  0  0  0  0  0  0
   -0.4096   -0.0904    6.2493 C   0  0  0  0  0  0  0  0  0  0  0  0
   -1.4959   -0.9126    6.7629 N   0  0  0  0  0  0  0  0  0  0  0  0
   -0.3220   -1.3138    4.0530 C   0  0  1  0  0  0  0  0  0  0  0  0
   -1.3817   -2.1677    4.4460 O   0  0  0  0  0  0  0  0  0  0  0  0
   -0.3406   -1.1254    2.5310 C   0  0  2  0  0  0  0  0  0  0  0  0
   -0.1042   -2.3621    1.8846 O   0  0  0  0  0  0  0  0  0  0  0  0
    0.7077   -0.0908    2.1001 C   0  0  1  0  0  0  0  0  0  0  0  0
    0.5931    0.1741    0.6589 N   0  0  0  0  0  0  0  0  0  0  0  0
    3.3299    5.5961    2.4994 C   0  0  2  0  0  0  0  0  0  0  0  0
    3.4130    6.9239    2.0160 O   0  0  0  0  0  0  0  0  0  0  0  0
    4.6542    4.8393    2.4114 C   0  0  2  0  0  0  0  0  0  0  0  0
    5.7894    5.6517    2.6364 O   0  0  0  0  0  0  0  0  0  0  0  0
  2  1  1  0  0  0  0
  3  2  1  1  0  0  0
  3 30  1  0  0  0  0
  4  5  1  0  0  0  0
  4  3  1  0  0  0  0
  5 28  1  0  0  0  0
  5  6  1  1  0  0  0
  7  6  1  1  0  0  0
  8  7  1  0  0  0  0
  8  9  1  6  0  0  0
 10 11  1  1  0  0  0
 10  8  1  0  0  0  0
 12 10  1  0  0  0  0
 13 12  1  0  0  0  0
 13 15  1  0  0  0  0
 13 14  1  1  0  0  0
 15  7  1  0  0  0  0
 15 16  1  6  0  0  0
 17 16  1  6  0  0  0
 18 17  1  0  0  0  0
 19 20  1  1  0  0  0
 19 18  1  0  0  0  0
 20 21  1  0  0  0  0
 22 24  1  0  0  0  0
 22 19  1  0  0  0  0
 22 23  1  6  0  0  0
 24 25  1  6  0  0  0
 24 26  1  0  0  0  0
 26 17  1  0  0  0  0
 26 27  1  6  0  0  0
 28 29  1  6  0  0  0
 28 30  1  0  0  0  0
 30 31  1  6  0  0  0
M  END
>  <CHROM.1>
59.15252208,-174.89410864,-120.85614653,-69.82200547,-85.44068403,-170.48288864
66.48791662,86.37836989,64.49672329,175.45968839,-66.55673328,68.07409266
65.32628047,82.75777944,-173.72767251,61.57037667,0.87948603,2.80519667,2.78399910
-0.88036325,-0.31628198,3.01802150

>  <Name>
lig.pdb

>  <RI>
3.33129e+07

>  <Rbt.Current_Directory>
/home/itssahil/PROJECTS/Mol_Feturizer/New_Systems/rnas/2n0j

>  <Rbt.Executable>
rbdock ($Id: //depot/dev/client3/rdock/2013.1/src/exe/rbdock.cxx#4 $)

>  <Rbt.Library>
libRbt.so (2013.1, Build901 2013/11/27)

>  <Rbt.Parameter_File>
/export/apps/rDock/src/rDock_2013.1_src/data/scripts/dock_solv.prm

>  <Rbt.Receptor>
prm/pocket_docking_4.prm

>  <SCORE>
-32.4877

>  <SCORE.INTER>
-29.268

>  <SCORE.INTER.CONST>
1

>  <SCORE.INTER.POLAR>
-2.61727

>  <SCORE.INTER.ROT>
6

>  <SCORE.INTER.SOLV>
15.1283

>  <SCORE.INTER.VDW>
-23.4305

>  <SCORE.INTER.norm>
-0.944129

>  <SCORE.INTRA>
-3.50421

>  <SCORE.INTRA.DIHEDRAL>
-11.8765

>  <SCORE.INTRA.DIHEDRAL.0>
28.0161

>  <SCORE.INTRA.POLAR>
-0.459249

>  <SCORE.INTRA.POLAR.0>
-1.05798

>  <SCORE.INTRA.REPUL>
0

>  <SCORE.INTRA.REPUL.0>
0

>  <SCORE.INTRA.SOLV>
1.369

>  <SCORE.INTRA.SOLV.lig_0>
-42.5945

>  <SCORE.INTRA.VDW>
3.311

>  <SCORE.INTRA.VDW.0>
-5.13869

>  <SCORE.INTRA.norm>
-0.113039

>  <SCORE.RESTR>
0.28455

>  <SCORE.RESTR.CAVITY>
0.28455

>  <SCORE.RESTR.norm>
0.00917902

>  <SCORE.SYSTEM>
0

>  <SCORE.SYSTEM.CONST>
0

>  <SCORE.SYSTEM.DIHEDRAL>
0

>  <SCORE.SYSTEM.SOLV>
0

>  <SCORE.SYSTEM.norm>
0

>  <SCORE.heavy>
31

>  <SCORE.norm>
-1.04799

>  <RMSD>
7.495

$$$$
lig.pdb
 OpenBabel11021811453D
libRbt.so/2013.1/901 2013/11/27
 31 33  0  0  0  0  0  0  0  0999 V2000
    0.4961   -0.8724   -0.4919 O   0  0  0  0  0  0  0  0  0  0  0  0
    0.4994    0.3529    0.2143 C   0  0  0  0  0  0  0  0  0  0  0  0
    0.6628    0.1301    1.7239 C   0  0  1  0  0  0  0  0  0  0  0  0
    0.4354    1.3211    2.4606 O   0  0  0  0  0  0  0  0  0  0  0  0
    0.0022    0.9939    3.7774 C   0  0  1  0  0  0  0  0  0  0  0  0
   -1.1399    1.7712    4.1169 O   0  0  0  0  0  0  0  0  0  0  0  0
   -1.5495    2.7604    3.1860 C   0  0  2  0  0  0  0  0  0  0  0  0
   -0.6847    4.0092    3.4199 C   0  0  1  0  0  0  0  0  0  0  0  0
    0.6502    3.7489    3.0155 O   0  0  0  0  0  0  0  0  0  0  0  0
   -1.1602    5.2529    2.6535 C   0  0  2  0  0  0  0  0  0  0  0  0
   -0.3473    6.4292    2.9993 N   0  0  0  0  0  0  0  0  0  0  0  0
   -2.6220    5.5319    2.9826 C   0  0  0  0  0  0  0  0  0  0  0  0
   -3.4632    4.3014    2.6657 C   0  0  2  0  0  0  0  0  0  0  0  0
   -4.8694    4.6163    2.9397 N   0  0  0  0  0  0  0  0  0  0  0  0
   -2.9757    3.0904    3.4900 C   0  0  1  0  0  0  0  0  0  0  0  0
   -3.8421    2.0049    3.1259 O   0  0  0  0  0  0  0  0  0  0  0  0
   -4.2341    1.1113    4.1625 C   0  0  1  0  0  0  0  0  0  0  0  0
   -4.7790    1.8291    5.2664 O   0  0  0  0  0  0  0  0  0  0  0  0
   -6.0378    2.4621    5.0473 C   0  0  2  0  0  0  0  0  0  0  0  0
   -6.4645    3.1789    6.3352 C   0  0  0  0  0  0  0  0  0  0  0  0
   -7.4035    4.2582    6.0648 N   0  0  0  0  0  0  0  0  0  0  0  0
   -7.1077    1.4299    4.6454 C   0  0  1  0  0  0  0  0  0  0  0  0
   -8.3324    2.0891    4.3767 O   0  0  0  0  0  0  0  0  0  0  0  0
   -6.6293    0.6862    3.3922 C   0  0  2  0  0  0  0  0  0  0  0  0
   -7.5515   -0.3307    3.0479 O   0  0  0  0  0  0  0  0  0  0  0  0
   -5.2349    0.0862    3.6172 C   0  0  1  0  0  0  0  0  0  0  0  0
   -4.7354   -0.5122    2.3710 N   0  0  0  0  0  0  0  0  0  0  0  0
   -0.3752   -0.4946    3.7644 C   0  0  2  0  0  0  0  0  0  0  0  0
    0.5820   -1.2391    4.4946 O   0  0  0  0  0  0  0  0  0  0  0  0
   -0.3883   -0.8290    2.2736 C   0  0  2  0  0  0  0  0  0  0  0  0
   -0.1203   -2.1887    1.9934 O   0  0  0  0  0  0  0  0  0  0  0  0
  2  1  1  0  0  0  0
  3  2  1  6  0  0  0
  3 30  1  0  0  0  0
  4  5  1  0  0  0  0
  4  3  1  0  0  0  0
  5 28  1  0  0  0  0
  5  6  1  6  0  0  0
  7  6  1  1  0  0  0
  8  7  1  0  0  0  0
  8  9  1  6  0  0  0
 10 11  1  1  0  0  0
 10  8  1  0  0  0  0
 12 10  1  0  0  0  0
 13 12  1  0  0  0  0
 13 15  1  0  0  0  0
 13 14  1  1  0  0  0
 15  7  1  0  0  0  0
 15 16  1  6  0  0  0
 17 16  1  6  0  0  0
 18 17  1  0  0  0  0
 19 20  1  1  0  0  0
 19 18  1  0  0  0  0
 20 21  1  0  0  0  0
 22 24  1  0  0  0  0
 22 19  1  0  0  0  0
 22 23  1  6  0  0  0
 24 25  1  1  0  0  0
 24 26  1  0  0  0  0
 26 17  1  0  0  0  0
 26 27  1  6  0  0  0
 28 29  1  1  0  0  0
 28 30  1  0  0  0  0
 30 31  1  1  0  0  0
M  END
>  <CHROM.1>
-174.26763994,-169.76355369,-5.15263468,-82.52876742,51.78296750,59.06394164
-33.32858623,97.55428780,52.43174820,156.67599121,55.00205251,63.92352768
176.29507413,172.35040323,-173.17868256,-39.09287292,-2.87502381,1.82352517
3.30428632,0.29777720,-0.28709549,-2.96893803

>  <Name>
lig.pdb

>  <RI>
0

>  <Rbt.Current_Directory>
/home/itssahil/PROJECTS/Mol_Feturizer/New_Systems/rnas/2n0j

>  <Rbt.Executable>
rbdock ($Id: //depot/dev/client3/rdock/2013.1/src/exe/rbdock.cxx#4 $)

>  <Rbt.Library>
libRbt.so (2013.1, Build901 2013/11/27)

>  <Rbt.Parameter_File>
/export/apps/rDock/src/rDock_2013.1_src/data/scripts/dock_solv.prm

>  <Rbt.Receptor>
prm/pocket_docking_8.prm

>  <SCORE>
-33.4645

>  <SCORE.INTER>
-34.007

>  <SCORE.INTER.CONST>
1

>  <SCORE.INTER.POLAR>
-5.77624

>  <SCORE.INTER.ROT>
6

>  <SCORE.INTER.SOLV>
14.3141

>  <SCORE.INTER.VDW>
-15.7886

>  <SCORE.INTER.norm>
-1.097

>  <SCORE.INTRA>
0.542438

>  <SCORE.INTRA.DIHEDRAL>
-6.51694

>  <SCORE.INTRA.DIHEDRAL.0>
28.0161

>  <SCORE.INTRA.POLAR>
0.0296549

>  <SCORE.INTRA.POLAR.0>
-1.05798

>  <SCORE.INTRA.REPUL>
0

>  <SCORE.INTRA.REPUL.0>
0

>  <SCORE.INTRA.SOLV>
1.1407

>  <SCORE.INTRA.SOLV.lig_0>
-42.5945

>  <SCORE.INTRA.VDW>
3.12973

>  <SCORE.INTRA.VDW.0>
-5.13869

>  <SCORE.INTRA.norm>
0.017498

>  <SCORE.RESTR>
0

>  <SCORE.RESTR.CAVITY>
0

>  <SCORE.RESTR.norm>
0

>  <SCORE.SYSTEM>
0

>  <SCORE.SYSTEM.CONST>
0

>  <SCORE.SYSTEM.DIHEDRAL>
0

>  <SCORE.SYSTEM.SOLV>
0

>  <SCORE.SYSTEM.norm>
0

>  <SCORE.heavy>
31

>  <SCORE.norm>
-1.0795

>  <RMSD>
7.513

$$$$
lig.pdb
 OpenBabel11021811453D
libRbt.so/2013.1/901 2013/11/27
 31 33  0  0  0  0  0  0  0  0999 V2000
    2.1245    3.9667    1.0817 O   0  0  0  0  0  0  0  0  0  0  0  0
    1.0070    4.4258    1.8169 C   0  0  0  0  0  0  0  0  0  0  0  0
    0.6498    3.4610    2.9557 C   0  0  1  0  0  0  0  0  0  0  0  0
   -0.4514    3.9293    3.7179 O   0  0  0  0  0  0  0  0  0  0  0  0
   -1.1203    2.8255    4.3204 C   0  0  1  0  0  0  0  0  0  0  0  0
   -2.5227    2.9371    4.1092 O   0  0  0  0  0  0  0  0  0  0  0  0
   -3.1496    4.1331    4.5445 C   0  0  2  0  0  0  0  0  0  0  0  0
   -2.7139    5.2614    3.5961 C   0  0  1  0  0  0  0  0  0  0  0  0
   -3.2970    5.0633    2.3178 O   0  0  0  0  0  0  0  0  0  0  0  0
   -3.1153    6.6669    4.0687 C   0  0  2  0  0  0  0  0  0  0  0  0
   -2.5834    7.6996    3.1662 N   0  0  0  0  0  0  0  0  0  0  0  0
   -2.5882    6.9052    5.4788 C   0  0  0  0  0  0  0  0  0  0  0  0
   -3.1021    5.8140    6.4100 C   0  0  2  0  0  0  0  0  0  0  0  0
   -2.6253    6.0985    7.7677 N   0  0  0  0  0  0  0  0  0  0  0  0
   -2.6382    4.4258    5.9186 C   0  0  1  0  0  0  0  0  0  0  0  0
   -3.1612    3.4873    6.8711 O   0  0  0  0  0  0  0  0  0  0  0  0
   -4.5465    3.5838    7.1843 C   0  0  1  0  0  0  0  0  0  0  0  0
   -5.3274    3.6594    5.9947 O   0  0  0  0  0  0  0  0  0  0  0  0
   -5.3743    2.4795    5.1953 C   0  0  2  0  0  0  0  0  0  0  0  0
   -6.2554    2.7456    3.9676 C   0  0  0  0  0  0  0  0  0  0  0  0
   -5.9929    4.0562    3.3904 N   0  0  0  0  0  0  0  0  0  0  0  0
   -5.9429    1.2953    5.9990 C   0  0  1  0  0  0  0  0  0  0  0  0
   -5.9247    0.1235    5.2033 O   0  0  0  0  0  0  0  0  0  0  0  0
   -5.0808    1.0896    7.2508 C   0  0  2  0  0  0  0  0  0  0  0  0
   -5.6295    0.0634    8.0564 O   0  0  0  0  0  0  0  0  0  0  0  0
   -4.9696    2.3934    8.0525 C   0  0  1  0  0  0  0  0  0  0  0  0
   -4.0397    2.2170    9.1771 N   0  0  0  0  0  0  0  0  0  0  0  0
   -0.5964    1.5576    3.6304 C   0  0  2  0  0  0  0  0  0  0  0  0
    0.2265    0.8301    4.5233 O   0  0  0  0  0  0  0  0  0  0  0  0
    0.1646    2.1144    2.4283 C   0  0  2  0  0  0  0  0  0  0  0  0
    1.2057    1.2722    1.9744 O   0  0  0  0  0  0  0  0  0  0  0  0
  2  1  1  0  0  0  0
  3  2  1  6  0  0  0
  3 30  1  0  0  0  0
  4  5  1  0  0  0  0
  4  3  1  0  0  0  0
  5 28  1  0  0  0  0
  5  6  1  6  0  0  0
  7  6  1  6  0  0  0
  8  7  1  0  0  0  0
  8  9  1  6  0  0  0
 10 11  1  6  0  0  0
 10  8  1  0  0  0  0
 12 10  1  0  0  0  0
 13 12  1  0  0  0  0
 13 15  1  0  0  0  0
 13 14  1  1  0  0  0
 15  7  1  0  0  0  0
 15 16  1  1  0  0  0
 17 16  1  6  0  0  0
 18 17  1  0  0  0  0
 19 20  1  6  0  0  0
 19 18  1  0  0  0  0
 20 21  1  0  0  0  0
 22 24  1  0  0  0  0
 22 19  1  0  0  0  0
 22 23  1  6  0  0  0
 24 25  1  1  0  0  0
 24 26  1  0  0  0  0
 26 17  1  0  0  0  0
 26 27  1  1  0  0  0
 28 29  1  1  0  0  0
 28 30  1  0  0  0  0
 30 31  1  1  0  0  0
M  END
>  <CHROM.1>
40.41290776,178.64620876,-55.78062781,71.49884456,173.41767778,66.69912795
149.59457296,-70.29835845,48.65763582,42.47905853,-46.08010237,-170.60893899
74.28728122,71.84657980,-178.04560876,176.36154951,-2.80123459,3.41881171
4.82881936,-0.30821981,-0.64669517,2.98415180

>  <Name>
lig.pdb

>  <RI>
0

>  <Rbt.Current_Directory>
/home/itssahil/PROJECTS/Mol_Feturizer/New_Systems/rnas/2n0j

>  <Rbt.Executable>
rbdock ($Id: //depot/dev/client3/rdock/2013.1/src/exe/rbdock.cxx#4 $)

>  <Rbt.Library>
libRbt.so (2013.1, Build901 2013/11/27)

>  <Rbt.Parameter_File>
/export/apps/rDock/src/rDock_2013.1_src/data/scripts/dock_solv.prm

>  <Rbt.Receptor>
prm/pocket_docking_8.prm

>  <SCORE>
-38.964

>  <SCORE.INTER>
-35.2964

>  <SCORE.INTER.CONST>
1

>  <SCORE.INTER.POLAR>
-4.79632

>  <SCORE.INTER.ROT>
6

>  <SCORE.INTER.SOLV>
15.6516

>  <SCORE.INTER.VDW>
-20.3604

>  <SCORE.INTER.norm>
-1.13859

>  <SCORE.INTRA>
-3.66766

>  <SCORE.INTRA.DIHEDRAL>
-18.5619

>  <SCORE.INTRA.DIHEDRAL.0>
28.0161

>  <SCORE.INTRA.POLAR>
-0.708174

>  <SCORE.INTRA.POLAR.0>
-1.05798

>  <SCORE.INTRA.REPUL>
0

>  <SCORE.INTRA.REPUL.0>
0

>  <SCORE.INTRA.SOLV>
1.72506

>  <SCORE.INTRA.SOLV.lig_0>
-42.5945

>  <SCORE.INTRA.VDW>
7.15853

>  <SCORE.INTRA.VDW.0>
-5.13869

>  <SCORE.INTRA.norm>
-0.118312

>  <SCORE.RESTR>
0

>  <SCORE.RESTR.CAVITY>
0

>  <SCORE.RESTR.norm>
0

>  <SCORE.SYSTEM>
0

>  <SCORE.SYSTEM.CONST>
0

>  <SCORE.SYSTEM.DIHEDRAL>
0

>  <SCORE.SYSTEM.SOLV>
0

>  <SCORE.SYSTEM.norm>
0

>  <SCORE.heavy>
31

>  <SCORE.norm>
-1.2569

>  <RMSD>
7.514

$$$$
lig.pdb
 OpenBabel11021811453D
libRbt.so/2013.1/901 2013/11/27
 31 33  0  0  0  0  0  0  0  0999 V2000
    6.7252    4.7809   -0.1698 O   0  0  0  0  0  0  0  0  0  0  0  0
    5.4789    5.2723    0.2834 C   0  0  0  0  0  0  0  0  0  0  0  0
    4.8140    4.2966    1.2638 C   0  0  1  0  0  0  0  0  0  0  0  0
    3.4378    4.5889    1.4472 O   0  0  0  0  0  0  0  0  0  0  0  0
    2.7437    3.4048    1.8279 C   0  0  1  0  0  0  0  0  0  0  0  0
    1.5657    3.2625    1.0430 O   0  0  0  0  0  0  0  0  0  0  0  0
    0.3753    3.8434    1.5513 C   0  0  2  0  0  0  0  0  0  0  0  0
    0.5860    5.3647    1.6113 C   0  0  1  0  0  0  0  0  0  0  0  0
    0.6408    5.8920    0.2951 O   0  0  0  0  0  0  0  0  0  0  0  0
   -0.5211    6.1212    2.3610 C   0  0  2  0  0  0  0  0  0  0  0  0
   -0.2056    7.5545    2.4629 N   0  0  0  0  0  0  0  0  0  0  0  0
   -0.6864    5.5376    3.7593 C   0  0  0  0  0  0  0  0  0  0  0  0
   -0.9718    4.0440    3.6614 C   0  0  2  0  0  0  0  0  0  0  0  0
   -1.1803    3.5206    5.0158 N   0  0  0  0  0  0  0  0  0  0  0  0
    0.1862    3.3217    2.9396 C   0  0  1  0  0  0  0  0  0  0  0  0
   -0.1802    1.9336    2.9203 O   0  0  0  0  0  0  0  0  0  0  0  0
    0.8789    0.9823    2.9283 C   0  0  1  0  0  0  0  0  0  0  0  0
    0.9541    0.3235    4.1896 O   0  0  0  0  0  0  0  0  0  0  0  0
   -0.1218   -0.5572    4.5059 C   0  0  2  0  0  0  0  0  0  0  0  0
    0.1294   -1.1720    5.8893 C   0  0  0  0  0  0  0  0  0  0  0  0
    0.8059   -0.2384    6.7784 N   0  0  0  0  0  0  0  0  0  0  0  0
   -0.2436   -1.6742    3.4527 C   0  0  1  0  0  0  0  0  0  0  0  0
   -1.3536   -2.5001    3.7564 O   0  0  0  0  0  0  0  0  0  0  0  0
   -0.4328   -1.0322    2.0727 C   0  0  2  0  0  0  0  0  0  0  0  0
   -0.4603   -2.0313    1.0707 O   0  0  0  0  0  0  0  0  0  0  0  0
    0.6868   -0.0223    1.7866 C   0  0  1  0  0  0  0  0  0  0  0  0
    0.4247    0.6770    0.5206 N   0  0  0  0  0  0  0  0  0  0  0  0
    3.6896    2.2269    1.5525 C   0  0  2  0  0  0  0  0  0  0  0  0
    4.1487    1.6835    2.7762 O   0  0  0  0  0  0  0  0  0  0  0  0
    4.8011    2.8698    0.7245 C   0  0  2  0  0  0  0  0  0  0  0  0
    6.0462    2.2088    0.8334 O   0  0  0  0  0  0  0  0  0  0  0  0
  2  1  1  0  0  0  0
  3  2  1  6  0  0  0
  3 30  1  0  0  0  0
  4  5  1  0  0  0  0
  4  3  1  0  0  0  0
  5 28  1  0  0  0  0
  5  6  1  6  0  0  0
  7  6  1  1  0  0  0
  8  7  1  0  0  0  0
  8  9  1  6  0  0  0
 10 11  1  1  0  0  0
 10  8  1  0  0  0  0
 12 10  1  0  0  0  0
 13 12  1  0  0  0  0
 13 15  1  0  0  0  0
 13 14  1  1  0  0  0
 15  7  1  0  0  0  0
 15 16  1  6  0  0  0
 17 16  1  1  0  0  0
 18 17  1  0  0  0  0
 19 20  1  1  0  0  0
 19 18  1  0  0  0  0
 20 21  1  0  0  0  0
 22 24  1  0  0  0  0
 22 19  1  0  0  0  0
 22 23  1  1  0  0  0
 24 25  1  6  0  0  0
 24 26  1  0  0  0  0
 26 17  1  0  0  0  0
 26 27  1  6  0  0  0
 28 29  1  1  0  0  0
 28 30  1  0  0  0  0
 30 31  1  1  0  0  0
M  END
>  <CHROM.1>
-60.85619169,-164.31020933,-90.64967214,63.90548336,64.01612668,154.21216942
79.91428235,88.71371706,108.23894061,33.75235870,76.63316968,-95.91431725
-69.65131461,122.03312102,-169.39108073,63.37170564,1.40309720,2.38906250
2.42567218,-0.94464375,-0.45070749,2.97123860

>  <Name>
lig.pdb

>  <RI>
0

>  <Rbt.Current_Directory>
/home/itssahil/PROJECTS/Mol_Feturizer/New_Systems/rnas/2n0j

>  <Rbt.Executable>
rbdock ($Id: //depot/dev/client3/rdock/2013.1/src/exe/rbdock.cxx#4 $)

>  <Rbt.Library>
libRbt.so (2013.1, Build901 2013/11/27)

>  <Rbt.Parameter_File>
/export/apps/rDock/src/rDock_2013.1_src/data/scripts/dock_solv.prm

>  <Rbt.Receptor>
prm/blind_docking_40.prm

>  <SCORE>
-32.1149

>  <SCORE.INTER>
-42.6363

>  <SCORE.INTER.CONST>
1

>  <SCORE.INTER.POLAR>
-5.69859

>  <SCORE.INTER.ROT>
6

>  <SCORE.INTER.SOLV>
20.5253

>  <SCORE.INTER.VDW>
-23.8707

>  <SCORE.INTER.norm>
-1.37537

>  <SCORE.INTRA>
4.89124

>  <SCORE.INTRA.DIHEDRAL>
1.22413

>  <SCORE.INTRA.DIHEDRAL.0>
28.0161

>  <SCORE.INTRA.POLAR>
-0.083254

>  <SCORE.INTRA.POLAR.0>
-1.05798

>  <SCORE.INTRA.REPUL>
0

>  <SCORE.INTRA.REPUL.0>
0

>  <SCORE.INTRA.SOLV>
0.928032

>  <SCORE.INTRA.SOLV.lig_0>
-42.5945

>  <SCORE.INTRA.VDW>
4.09822

>  <SCORE.INTRA.VDW.0>
-5.13869

>  <SCORE.INTRA.norm>
0.157782

>  <SCORE.RESTR>
5.63017

>  <SCORE.RESTR.CAVITY>
5.63017

>  <SCORE.RESTR.norm>
0.181618

>  <SCORE.SYSTEM>
0

>  <SCORE.SYSTEM.CONST>
0

>  <SCORE.SYSTEM.DIHEDRAL>
0

>  <SCORE.SYSTEM.SOLV>
0

>  <SCORE.SYSTEM.norm>
0

>  <SCORE.heavy>
31

>  <SCORE.norm>
-1.03597

>  <RMSD>
7.520

$$$$
lig.pdb
 OpenBabel11021811453D
libRbt.so/2013.1/901 2013/11/27
 31 33  0  0  0  0  0  0  0  0999 V2000
    0.1204   -1.2572    4.1835 O   0  0  0  0  0  0  0  0  0  0  0  0
    0.0555   -1.0872    2.7810 C   0  0  0  0  0  0  0  0  0  0  0  0
   -0.2098    0.3769    2.4050 C   0  0  1  0  0  0  0  0  0  0  0  0
   -1.3056    0.9167    3.1266 O   0  0  0  0  0  0  0  0  0  0  0  0
   -1.1596    2.3296    3.2325 C   0  0  1  0  0  0  0  0  0  0  0  0
   -1.3830    2.7385    4.5766 O   0  0  0  0  0  0  0  0  0  0  0  0
   -2.3770    3.7269    4.7956 C   0  0  2  0  0  0  0  0  0  0  0  0
   -1.9769    4.9775    3.9968 C   0  0  1  0  0  0  0  0  0  0  0  0
   -2.1087    4.7200    2.6077 O   0  0  0  0  0  0  0  0  0  0  0  0
   -2.8228    6.2202    4.3135 C   0  0  2  0  0  0  0  0  0  0  0  0
   -2.3232    7.3982    3.5876 N   0  0  0  0  0  0  0  0  0  0  0  0
   -2.7899    6.4962    5.8121 C   0  0  0  0  0  0  0  0  0  0  0  0
   -3.2667    5.2641    6.5713 C   0  0  2  0  0  0  0  0  0  0  0  0
   -3.2769    5.5761    8.0046 N   0  0  0  0  0  0  0  0  0  0  0  0
   -2.3617    4.0540    6.2544 C   0  0  1  0  0  0  0  0  0  0  0  0
   -2.8898    2.9667    7.0293 O   0  0  0  0  0  0  0  0  0  0  0  0
   -2.0291    1.8569    7.2617 C   0  0  1  0  0  0  0  0  0  0  0  0
   -0.8434    2.2718    7.9345 O   0  0  0  0  0  0  0  0  0  0  0  0
   -1.0022    2.7011    9.2850 C   0  0  2  0  0  0  0  0  0  0  0  0
    0.3691    3.1049    9.8427 C   0  0  0  0  0  0  0  0  0  0  0  0
    1.3048    1.9895    9.8307 N   0  0  0  0  0  0  0  0  0  0  0  0
   -1.6073    1.5792   10.1491 C   0  0  1  0  0  0  0  0  0  0  0  0
   -1.8095    2.0482   11.4703 O   0  0  0  0  0  0  0  0  0  0  0  0
   -2.9469    1.1526    9.5360 C   0  0  2  0  0  0  0  0  0  0  0  0
   -3.4872    0.0618   10.2580 O   0  0  0  0  0  0  0  0  0  0  0  0
   -2.7718    0.7781    8.0581 C   0  0  1  0  0  0  0  0  0  0  0  0
   -4.0799    0.4949    7.4505 N   0  0  0  0  0  0  0  0  0  0  0  0
    0.2851    2.6587    2.8290 C   0  0  2  0  0  0  0  0  0  0  0  0
    0.2961    3.3112    1.5729 O   0  0  0  0  0  0  0  0  0  0  0  0
    0.9514    1.2841    2.7992 C   0  0  2  0  0  0  0  0  0  0  0  0
    2.0573    1.2071    1.9217 O   0  0  0  0  0  0  0  0  0  0  0  0
  2  1  1  0  0  0  0
  3  2  1  1  0  0  0
  3 30  1  0  0  0  0
  4  5  1  0  0  0  0
  4  3  1  0  0  0  0
  5 28  1  0  0  0  0
  5  6  1  1  0  0  0
  7  6  1  1  0  0  0
  8  7  1  0  0  0  0
  8  9  1  6  0  0  0
 10 11  1  6  0  0  0
 10  8  1  0  0  0  0
 12 10  1  0  0  0  0
 13 12  1  0  0  0  0
 13 15  1  0  0  0  0
 13 14  1  1  0  0  0
 15  7  1  0  0  0  0
 15 16  1  1  0  0  0
 17 16  1  1  0  0  0
 18 17  1  0  0  0  0
 19 20  1  1  0  0  0
 19 18  1  0  0  0  0
 20 21  1  0  0  0  0
 22 24  1  0  0  0  0
 22 19  1  0  0  0  0
 22 23  1  1  0  0  0
 24 25  1  1  0  0  0
 24 26  1  0  0  0  0
 26 17  1  0  0  0  0
 26 27  1  6  0  0  0
 28 29  1  6  0  0  0
 28 30  1  0  0  0  0
 30 31  1  6  0  0  0
M  END
>  <CHROM.1>
179.06634569,-49.67644000,-124.64747874,-58.98375208,61.28985606,68.11417027
-57.74892612,78.34097630,58.67576963,-60.72886138,-59.56344283,62.48750476
-179.00480271,-79.83033748,50.78455136,63.78663024,-1.45858461,2.62648420
5.92596865,-1.03164984,-1.10666665,2.13561423

>  <Name>
lig.pdb

>  <RI>
0

>  <Rbt.Current_Directory>
/home/itssahil/PROJECTS/Mol_Feturizer/New_Systems/rnas/2n0j

>  <Rbt.Executable>
rbdock ($Id: //depot/dev/client3/rdock/2013.1/src/exe/rbdock.cxx#4 $)

>  <Rbt.Library>
libRbt.so (2013.1, Build901 2013/11/27)

>  <Rbt.Parameter_File>
/export/apps/rDock/src/rDock_2013.1_src/data/scripts/dock_solv.prm

>  <Rbt.Receptor>
prm/pocket_docking_8.prm

>  <SCORE>
-31.6354

>  <SCORE.INTER>
-27.0088

>  <SCORE.INTER.CONST>
1

>  <SCORE.INTER.POLAR>
-3.30806

>  <SCORE.INTER.ROT>
6

>  <SCORE.INTER.SOLV>
12.9121

>  <SCORE.INTER.VDW>
-18.8831

>  <SCORE.INTER.norm>
-0.871252

>  <SCORE.INTRA>
-4.62662

>  <SCORE.INTRA.DIHEDRAL>
-17.0498

>  <SCORE.INTRA.DIHEDRAL.0>
28.0161

>  <SCORE.INTRA.POLAR>
0.189992

>  <SCORE.INTRA.POLAR.0>
-1.05798

>  <SCORE.INTRA.REPUL>
0

>  <SCORE.INTRA.REPUL.0>
0

>  <SCORE.INTRA.SOLV>
0.686791

>  <SCORE.INTRA.SOLV.lig_0>
-42.5945

>  <SCORE.INTRA.VDW>
2.90893

>  <SCORE.INTRA.VDW.0>
-5.13869

>  <SCORE.INTRA.norm>
-0.149246

>  <SCORE.RESTR>
0

>  <SCORE.RESTR.CAVITY>
0

>  <SCORE.RESTR.norm>
0

>  <SCORE.SYSTEM>
0

>  <SCORE.SYSTEM.CONST>
0

>  <SCORE.SYSTEM.DIHEDRAL>
0

>  <SCORE.SYSTEM.SOLV>
0

>  <SCORE.SYSTEM.norm>
0

>  <SCORE.heavy>
31

>  <SCORE.norm>
-1.0205

>  <RMSD>
7.524

$$$$
lig.pdb
 OpenBabel11021811453D
libRbt.so/2013.1/901 2013/11/27
 31 33  0  0  0  0  0  0  0  0999 V2000
   -3.1768   -1.9224   -0.3966 O   0  0  0  0  0  0  0  0  0  0  0  0
   -3.4635   -0.7334    0.3134 C   0  0  0  0  0  0  0  0  0  0  0  0
   -2.2958    0.2597    0.2395 C   0  0  1  0  0  0  0  0  0  0  0  0
   -2.6053    1.4867    0.8811 O   0  0  0  0  0  0  0  0  0  0  0  0
   -1.4043    2.1113    1.3242 C   0  0  1  0  0  0  0  0  0  0  0  0
   -1.5518    2.5388    2.6730 O   0  0  0  0  0  0  0  0  0  0  0  0
   -2.3091    3.7170    2.8994 C   0  0  2  0  0  0  0  0  0  0  0  0
   -1.4684    4.9120    2.4229 C   0  0  1  0  0  0  0  0  0  0  0  0
   -1.3630    4.8886    1.0081 O   0  0  0  0  0  0  0  0  0  0  0  0
   -2.0458    6.2804    2.8155 C   0  0  2  0  0  0  0  0  0  0  0  0
   -1.1430    7.3699    2.4130 N   0  0  0  0  0  0  0  0  0  0  0  0
   -2.2637    6.3330    4.3231 C   0  0  0  0  0  0  0  0  0  0  0  0
   -3.1647    5.1813    4.7518 C   0  0  2  0  0  0  0  0  0  0  0  0
   -3.4013    5.2885    6.1955 N   0  0  0  0  0  0  0  0  0  0  0  0
   -2.5234    3.8284    4.3749 C   0  0  1  0  0  0  0  0  0  0  0  0
   -3.4423    2.8265    4.8368 O   0  0  0  0  0  0  0  0  0  0  0  0
   -2.8846    1.6502    5.4129 C   0  0  1  0  0  0  0  0  0  0  0  0
   -2.2796    1.9433    6.6694 O   0  0  0  0  0  0  0  0  0  0  0  0
   -3.1663    2.2964    7.7289 C   0  0  2  0  0  0  0  0  0  0  0  0
   -2.3434    2.5736    8.9941 C   0  0  0  0  0  0  0  0  0  0  0  0
   -1.4137    1.4901    9.2797 N   0  0  0  0  0  0  0  0  0  0  0  0
   -4.1747    1.1645    7.9998 C   0  0  1  0  0  0  0  0  0  0  0  0
   -5.0798    1.5618    9.0144 O   0  0  0  0  0  0  0  0  0  0  0  0
   -4.9406    0.8660    6.7048 C   0  0  2  0  0  0  0  0  0  0  0  0
   -5.8146   -0.2303    6.8980 O   0  0  0  0  0  0  0  0  0  0  0  0
   -3.9674    0.5744    5.5546 C   0  0  1  0  0  0  0  0  0  0  0  0
   -4.7077    0.4164    4.2946 N   0  0  0  0  0  0  0  0  0  0  0  0
   -0.2951    1.0528    1.2393 C   0  0  2  0  0  0  0  0  0  0  0  0
    0.5897    1.3682    0.1804 O   0  0  0  0  0  0  0  0  0  0  0  0
   -1.0757   -0.2398    1.0068 C   0  0  2  0  0  0  0  0  0  0  0  0
   -0.3395   -1.2333    0.3211 O   0  0  0  0  0  0  0  0  0  0  0  0
  2  1  1  0  0  0  0
  3  2  1  1  0  0  0
  3 30  1  0  0  0  0
  4  5  1  0  0  0  0
  4  3  1  0  0  0  0
  5 28  1  0  0  0  0
  5  6  1  1  0  0  0
  7  6  1  1  0  0  0
  8  7  1  0  0  0  0
  8  9  1  6  0  0  0
 10 11  1  1  0  0  0
 10  8  1  0  0  0  0
 12 10  1  0  0  0  0
 13 12  1  0  0  0  0
 13 15  1  0  0  0  0
 13 14  1  1  0  0  0
 15  7  1  0  0  0  0
 15 16  1  6  0  0  0
 17 16  1  1  0  0  0
 18 17  1  0  0  0  0
 19 20  1  1  0  0  0
 19 18  1  0  0  0  0
 20 21  1  0  0  0  0
 22 24  1  0  0  0  0
 22 19  1  0  0  0  0
 22 23  1  1  0  0  0
 24 25  1  1  0  0  0
 24 26  1  0  0  0  0
 26 17  1  0  0  0  0
 26 27  1  6  0  0  0
 28 29  1  6  0  0  0
 28 30  1  0  0  0  0
 30 31  1  6  0  0  0
M  END
>  <CHROM.1>
-176.33113206,176.48559797,-76.81253770,-72.43364921,51.38389564,-71.67637856
-177.12724279,98.21651031,69.41420154,-50.82379599,-63.01615878,-173.34627738
174.23787645,174.67211154,-54.54094279,-175.31124774,-2.56940389,2.21408992
3.94234088,0.70155560,-1.17315109,-2.53874936

>  <Name>
lig.pdb

>  <RI>
3.50357e+07

>  <Rbt.Current_Directory>
/home/itssahil/PROJECTS/Mol_Feturizer/New_Systems/rnas/2n0j

>  <Rbt.Executable>
rbdock ($Id: //depot/dev/client3/rdock/2013.1/src/exe/rbdock.cxx#4 $)

>  <Rbt.Library>
libRbt.so (2013.1, Build901 2013/11/27)

>  <Rbt.Parameter_File>
/export/apps/rDock/src/rDock_2013.1_src/data/scripts/dock_solv.prm

>  <Rbt.Receptor>
prm/pocket_docking_3.prm

>  <SCORE>
-26.9568

>  <SCORE.INTER>
-22.463

>  <SCORE.INTER.CONST>
1

>  <SCORE.INTER.POLAR>
-3.26729

>  <SCORE.INTER.ROT>
6

>  <SCORE.INTER.SOLV>
12.4048

>  <SCORE.INTER.VDW>
-15.8193

>  <SCORE.INTER.norm>
-0.724613

>  <SCORE.INTRA>
-4.49379

>  <SCORE.INTRA.DIHEDRAL>
-18.2227

>  <SCORE.INTRA.DIHEDRAL.0>
28.0161

>  <SCORE.INTRA.POLAR>
1.04394

>  <SCORE.INTRA.POLAR.0>
-1.05798

>  <SCORE.INTRA.REPUL>
0

>  <SCORE.INTRA.REPUL.0>
0

>  <SCORE.INTRA.SOLV>
0.122663

>  <SCORE.INTRA.SOLV.lig_0>
-42.5945

>  <SCORE.INTRA.VDW>
1.00685

>  <SCORE.INTRA.VDW.0>
-5.13869

>  <SCORE.INTRA.norm>
-0.144961

>  <SCORE.RESTR>
0

>  <SCORE.RESTR.CAVITY>
0

>  <SCORE.RESTR.norm>
0

>  <SCORE.SYSTEM>
0

>  <SCORE.SYSTEM.CONST>
0

>  <SCORE.SYSTEM.DIHEDRAL>
0

>  <SCORE.SYSTEM.SOLV>
0

>  <SCORE.SYSTEM.norm>
0

>  <SCORE.heavy>
31

>  <SCORE.norm>
-0.869574

>  <RMSD>
7.532

$$$$
lig.pdb
 OpenBabel11021811453D
libRbt.so/2013.1/901 2013/11/27
 31 33  0  0  0  0  0  0  0  0999 V2000
    6.1091    4.9323   -0.8118 O   0  0  0  0  0  0  0  0  0  0  0  0
    6.1867    5.1823    0.5780 C   0  0  0  0  0  0  0  0  0  0  0  0
    5.3556    4.1698    1.3775 C   0  0  1  0  0  0  0  0  0  0  0  0
    3.9996    4.5720    1.4899 O   0  0  0  0  0  0  0  0  0  0  0  0
    3.1735    3.4254    1.6682 C   0  0  1  0  0  0  0  0  0  0  0  0
    2.0607    3.4902    0.7843 O   0  0  0  0  0  0  0  0  0  0  0  0
    0.9193    4.2041    1.2319 C   0  0  2  0  0  0  0  0  0  0  0  0
    1.3460    5.6595    1.4807 C   0  0  1  0  0  0  0  0  0  0  0  0
    1.6313    6.2923    0.2430 O   0  0  0  0  0  0  0  0  0  0  0  0
    0.2846    6.5101    2.1949 C   0  0  2  0  0  0  0  0  0  0  0  0
    0.7963    7.8583    2.4857 N   0  0  0  0  0  0  0  0  0  0  0  0
   -0.1270    5.8321    3.4964 C   0  0  0  0  0  0  0  0  0  0  0  0
   -0.6186    4.4193    3.2057 C   0  0  2  0  0  0  0  0  0  0  0  0
   -1.0585    3.8115    4.4662 N   0  0  0  0  0  0  0  0  0  0  0  0
    0.4947    3.5917    2.5280 C   0  0  1  0  0  0  0  0  0  0  0  0
   -0.0698    2.2882    2.3187 O   0  0  0  0  0  0  0  0  0  0  0  0
    0.7231    1.3439    1.6072 C   0  0  1  0  0  0  0  0  0  0  0  0
    1.5733    0.6275    2.4986 O   0  0  0  0  0  0  0  0  0  0  0  0
    0.9290   -0.2734    3.3969 C   0  0  2  0  0  0  0  0  0  0  0  0
    1.9935   -0.9504    4.2705 C   0  0  0  0  0  0  0  0  0  0  0  0
    2.1621   -0.2634    5.5430 N   0  0  0  0  0  0  0  0  0  0  0  0
    0.1316   -1.3407    2.6246 C   0  0  1  0  0  0  0  0  0  0  0  0
   -0.5455   -2.1865    3.5372 O   0  0  0  0  0  0  0  0  0  0  0  0
   -0.8826   -0.6363    1.7148 C   0  0  2  0  0  0  0  0  0  0  0  0
   -1.5718   -1.5879    0.9259 O   0  0  0  0  0  0  0  0  0  0  0  0
   -0.1822    0.3924    0.8168 C   0  0  1  0  0  0  0  0  0  0  0  0
   -1.1776    1.1484    0.0434 N   0  0  0  0  0  0  0  0  0  0  0  0
    4.0327    2.2003    1.3231 C   0  0  2  0  0  0  0  0  0  0  0  0
    4.3337    1.4773    2.5022 O   0  0  0  0  0  0  0  0  0  0  0  0
    5.2645    2.8227    0.6676 C   0  0  2  0  0  0  0  0  0  0  0  0
    6.4325    2.0351    0.7891 O   0  0  0  0  0  0  0  0  0  0  0  0
  2  1  1  0  0  0  0
  3  2  1  6  0  0  0
  3 30  1  0  0  0  0
  4  5  1  0  0  0  0
  4  3  1  0  0  0  0
  5 28  1  0  0  0  0
  5  6  1  6  0  0  0
  7  6  1  1  0  0  0
  8  7  1  0  0  0  0
  8  9  1  6  0  0  0
 10 11  1  1  0  0  0
 10  8  1  0  0  0  0
 12 10  1  0  0  0  0
 13 12  1  0  0  0  0
 13 15  1  0  0  0  0
 13 14  1  1  0  0  0
 15  7  1  0  0  0  0
 15 16  1  6  0  0  0
 17 16  1  1  0  0  0
 18 17  1  0  0  0  0
 19 20  1  6  0  0  0
 19 18  1  0  0  0  0
 20 21  1  0  0  0  0
 22 24  1  0  0  0  0
 22 19  1  0  0  0  0
 22 23  1  1  0  0  0
 24 25  1  6  0  0  0
 24 26  1  0  0  0  0
 26 17  1  0  0  0  0
 26 27  1  1  0  0  0
 28 29  1  1  0  0  0
 28 30  1  0  0  0  0
 30 31  1  1  0  0  0
M  END
>  <CHROM.1>
-175.22383275,-85.98909451,-86.31602230,60.81250387,-61.52536284,-39.20593076
-35.41901246,54.50605559,87.90751515,95.25033149,-179.43072366,-172.43914147
-52.32575709,-52.89785989,67.61825641,91.87453262,1.74084482,2.59869662,1.97022245
-0.95743514,-0.25745683,3.02984314

>  <Name>
lig.pdb

>  <RI>
1.79691e+07

>  <Rbt.Current_Directory>
/home/itssahil/PROJECTS/Mol_Feturizer/New_Systems/rnas/2n0j

>  <Rbt.Executable>
rbdock ($Id: //depot/dev/client3/rdock/2013.1/src/exe/rbdock.cxx#4 $)

>  <Rbt.Library>
libRbt.so (2013.1, Build901 2013/11/27)

>  <Rbt.Parameter_File>
/export/apps/rDock/src/rDock_2013.1_src/data/scripts/dock_solv.prm

>  <Rbt.Receptor>
prm/blind_docking_20.prm

>  <SCORE>
-21.4949

>  <SCORE.INTER>
-25.1438

>  <SCORE.INTER.CONST>
1

>  <SCORE.INTER.POLAR>
-2.90205

>  <SCORE.INTER.ROT>
6

>  <SCORE.INTER.SOLV>
20.0421

>  <SCORE.INTER.VDW>
-21.3697

>  <SCORE.INTER.norm>
-0.811089

>  <SCORE.INTRA>
-0.495635

>  <SCORE.INTRA.DIHEDRAL>
-8.74969

>  <SCORE.INTRA.DIHEDRAL.0>
28.0161

>  <SCORE.INTRA.POLAR>
-0.213223

>  <SCORE.INTRA.POLAR.0>
-1.05798

>  <SCORE.INTRA.REPUL>
0

>  <SCORE.INTRA.REPUL.0>
0

>  <SCORE.INTRA.SOLV>
0.913871

>  <SCORE.INTRA.SOLV.lig_0>
-42.5945

>  <SCORE.INTRA.VDW>
4.14723

>  <SCORE.INTRA.VDW.0>
-5.13869

>  <SCORE.INTRA.norm>
-0.0159882

>  <SCORE.RESTR>
4.1445

>  <SCORE.RESTR.CAVITY>
4.1445

>  <SCORE.RESTR.norm>
0.133694

>  <SCORE.SYSTEM>
0

>  <SCORE.SYSTEM.CONST>
0

>  <SCORE.SYSTEM.DIHEDRAL>
0

>  <SCORE.SYSTEM.SOLV>
0

>  <SCORE.SYSTEM.norm>
0

>  <SCORE.heavy>
31

>  <SCORE.norm>
-0.693384

>  <RMSD>
7.554

$$$$
lig.pdb
 OpenBabel11021811453D
libRbt.so/2013.1/901 2013/11/27
 31 33  0  0  0  0  0  0  0  0999 V2000
   -1.1339   -0.1588   -0.8003 O   0  0  0  0  0  0  0  0  0  0  0  0
   -0.8222   -0.7490    0.4465 C   0  0  0  0  0  0  0  0  0  0  0  0
    0.3365   -0.0188    1.1389 C   0  0  1  0  0  0  0  0  0  0  0  0
    0.0021    1.3241    1.4517 O   0  0  0  0  0  0  0  0  0  0  0  0
    0.7788    1.7646    2.5614 C   0  0  1  0  0  0  0  0  0  0  0  0
   -0.0616    2.4020    3.5160 O   0  0  0  0  0  0  0  0  0  0  0  0
   -1.0155    3.3288    3.0220 C   0  0  2  0  0  0  0  0  0  0  0  0
   -0.2936    4.6664    2.7945 C   0  0  1  0  0  0  0  0  0  0  0  0
    0.6036    4.5458    1.7019 O   0  0  0  0  0  0  0  0  0  0  0  0
   -1.2342    5.8413    2.4860 C   0  0  2  0  0  0  0  0  0  0  0  0
   -0.4853    7.1028    2.3766 N   0  0  0  0  0  0  0  0  0  0  0  0
   -2.2797    5.9659    3.5879 C   0  0  0  0  0  0  0  0  0  0  0  0
   -3.0305    4.6479    3.7343 C   0  0  2  0  0  0  0  0  0  0  0  0
   -4.0646    4.8134    4.7613 N   0  0  0  0  0  0  0  0  0  0  0  0
   -2.0508    3.5076    4.0857 C   0  0  1  0  0  0  0  0  0  0  0  0
   -2.8627    2.3304    4.2142 O   0  0  0  0  0  0  0  0  0  0  0  0
   -3.2213    1.9296    5.5323 C   0  0  1  0  0  0  0  0  0  0  0  0
   -4.6335    1.9950    5.7115 O   0  0  0  0  0  0  0  0  0  0  0  0
   -5.4060    1.0420    4.9845 C   0  0  2  0  0  0  0  0  0  0  0  0
   -6.8915    1.2612    5.3008 C   0  0  0  0  0  0  0  0  0  0  0  0
   -7.7511    0.5209    4.3883 N   0  0  0  0  0  0  0  0  0  0  0  0
   -4.9988   -0.3948    5.3604 C   0  0  1  0  0  0  0  0  0  0  0  0
   -5.7377   -1.3208    4.5839 O   0  0  0  0  0  0  0  0  0  0  0  0
   -3.4987   -0.5684    5.0922 C   0  0  2  0  0  0  0  0  0  0  0  0
   -3.0749   -1.8525    5.5100 O   0  0  0  0  0  0  0  0  0  0  0  0
   -2.6900    0.5193    5.8119 C   0  0  1  0  0  0  0  0  0  0  0  0
   -1.2702    0.4191    5.4449 N   0  0  0  0  0  0  0  0  0  0  0  0
    1.4097    0.5125    3.1877 C   0  0  2  0  0  0  0  0  0  0  0  0
    2.8018    0.4970    2.9319 O   0  0  0  0  0  0  0  0  0  0  0  0
    0.6586   -0.6267    2.5004 C   0  0  2  0  0  0  0  0  0  0  0  0
    1.3960   -1.8308    2.4261 O   0  0  0  0  0  0  0  0  0  0  0  0
  2  1  1  0  0  0  0
  3  2  1  1  0  0  0
  3 30  1  0  0  0  0
  4  5  1  0  0  0  0
  4  3  1  0  0  0  0
  5 28  1  0  0  0  0
  5  6  1  1  0  0  0
  7  6  1  1  0  0  0
  8  7  1  0  0  0  0
  8  9  1  6  0  0  0
 10 11  1  1  0  0  0
 10  8  1  0  0  0  0
 12 10  1  0  0  0  0
 13 12  1  0  0  0  0
 13 15  1  0  0  0  0
 13 14  1  1  0  0  0
 15  7  1  0  0  0  0
 15 16  1  6  0  0  0
 17 16  1  6  0  0  0
 18 17  1  0  0  0  0
 19 20  1  1  0  0  0
 19 18  1  0  0  0  0
 20 21  1  0  0  0  0
 22 24  1  0  0  0  0
 22 19  1  0  0  0  0
 22 23  1  6  0  0  0
 24 25  1  1  0  0  0
 24 26  1  0  0  0  0
 26 17  1  0  0  0  0
 26 27  1  6  0  0  0
 28 29  1  6  0  0  0
 28 30  1  0  0  0  0
 30 31  1  6  0  0  0
M  END
>  <CHROM.1>
-62.59836047,63.27405587,-45.12370746,-81.47941519,60.35221646,-68.80786873
-56.96221947,139.98961723,116.60915357,167.88042401,44.96232880,-178.91509836
-55.95148280,-120.97300705,-58.51731225,62.75027515,-1.95217032,1.69535424
3.52474576,-0.23992007,-0.47566878,3.12236585

>  <Name>
lig.pdb

>  <RI>
0

>  <Rbt.Current_Directory>
/home/itssahil/PROJECTS/Mol_Feturizer/New_Systems/rnas/2n0j

>  <Rbt.Executable>
rbdock ($Id: //depot/dev/client3/rdock/2013.1/src/exe/rbdock.cxx#4 $)

>  <Rbt.Library>
libRbt.so (2013.1, Build901 2013/11/27)

>  <Rbt.Parameter_File>
/export/apps/rDock/src/rDock_2013.1_src/data/scripts/dock_solv.prm

>  <Rbt.Receptor>
prm/pocket_docking_5.prm

>  <SCORE>
-40.2712

>  <SCORE.INTER>
-33.8804

>  <SCORE.INTER.CONST>
1

>  <SCORE.INTER.POLAR>
-4.98038

>  <SCORE.INTER.ROT>
6

>  <SCORE.INTER.SOLV>
13.7269

>  <SCORE.INTER.VDW>
-18.1613

>  <SCORE.INTER.norm>
-1.09292

>  <SCORE.INTRA>
-6.39072

>  <SCORE.INTRA.DIHEDRAL>
-7.06614

>  <SCORE.INTRA.DIHEDRAL.0>
28.0161

>  <SCORE.INTRA.POLAR>
-1.47277

>  <SCORE.INTRA.POLAR.0>
-1.05798

>  <SCORE.INTRA.REPUL>
0

>  <SCORE.INTRA.REPUL.0>
0

>  <SCORE.INTRA.SOLV>
0.575883

>  <SCORE.INTRA.SOLV.lig_0>
-42.5945

>  <SCORE.INTRA.VDW>
1.86182

>  <SCORE.INTRA.VDW.0>
-5.13869

>  <SCORE.INTRA.norm>
-0.206152

>  <SCORE.RESTR>
0

>  <SCORE.RESTR.CAVITY>
0

>  <SCORE.RESTR.norm>
0

>  <SCORE.SYSTEM>
0

>  <SCORE.SYSTEM.CONST>
0

>  <SCORE.SYSTEM.DIHEDRAL>
0

>  <SCORE.SYSTEM.SOLV>
0

>  <SCORE.SYSTEM.norm>
0

>  <SCORE.heavy>
31

>  <SCORE.norm>
-1.29907

>  <RMSD>
7.567

$$$$
lig.pdb
 OpenBabel11021811453D
libRbt.so/2013.1/901 2013/11/27
 31 33  0  0  0  0  0  0  0  0999 V2000
    3.0922    0.8253    3.8532 O   0  0  0  0  0  0  0  0  0  0  0  0
    3.8402    0.7292    2.6568 C   0  0  0  0  0  0  0  0  0  0  0  0
    3.5628    1.9164    1.7247 C   0  0  1  0  0  0  0  0  0  0  0  0
    2.1845    2.2516    1.6933 O   0  0  0  0  0  0  0  0  0  0  0  0
    2.0340    3.6270    1.3549 C   0  0  1  0  0  0  0  0  0  0  0  0
    1.1231    4.2484    2.2538 O   0  0  0  0  0  0  0  0  0  0  0  0
    0.4098    5.3773    1.7748 C   0  0  2  0  0  0  0  0  0  0  0  0
    1.3576    6.5861    1.8273 C   0  0  1  0  0  0  0  0  0  0  0  0
    2.3769    6.4371    0.8514 O   0  0  0  0  0  0  0  0  0  0  0  0
    0.6686    7.9342    1.5663 C   0  0  2  0  0  0  0  0  0  0  0  0
    1.6133    9.0502    1.7278 N   0  0  0  0  0  0  0  0  0  0  0  0
   -0.4963    8.1117    2.5330 C   0  0  0  0  0  0  0  0  0  0  0  0
   -1.4572    6.9366    2.3999 C   0  0  2  0  0  0  0  0  0  0  0  0
   -2.5935    7.1608    3.3000 N   0  0  0  0  0  0  0  0  0  0  0  0
   -0.7309    5.6105    2.7127 C   0  0  1  0  0  0  0  0  0  0  0  0
   -1.7269    4.5857    2.5736 O   0  0  0  0  0  0  0  0  0  0  0  0
   -1.7418    3.5571    3.5577 C   0  0  1  0  0  0  0  0  0  0  0  0
   -1.8192    4.1142    4.8670 O   0  0  0  0  0  0  0  0  0  0  0  0
   -3.0483    4.7508    5.2096 C   0  0  2  0  0  0  0  0  0  0  0  0
   -2.9484    5.2845    6.6448 C   0  0  0  0  0  0  0  0  0  0  0  0
   -3.5045    6.6251    6.7606 N   0  0  0  0  0  0  0  0  0  0  0  0
   -4.2256    3.7641    5.1004 C   0  0  1  0  0  0  0  0  0  0  0  0
   -5.4402    4.4337    5.3881 O   0  0  0  0  0  0  0  0  0  0  0  0
   -4.2657    3.1999    3.6747 C   0  0  2  0  0  0  0  0  0  0  0  0
   -5.2840    2.2231    3.5662 O   0  0  0  0  0  0  0  0  0  0  0  0
   -2.9072    2.5973    3.2919 C   0  0  1  0  0  0  0  0  0  0  0  0
   -2.9201    2.1766    1.8836 N   0  0  0  0  0  0  0  0  0  0  0  0
    3.4192    4.2743    1.4985 C   0  0  2  0  0  0  0  0  0  0  0  0
    3.9361    4.5909    0.2194 O   0  0  0  0  0  0  0  0  0  0  0  0
    4.2243    3.1972    2.2236 C   0  0  2  0  0  0  0  0  0  0  0  0
    5.6137    3.2570    1.9680 O   0  0  0  0  0  0  0  0  0  0  0  0
  2  1  1  0  0  0  0
  3  2  1  1  0  0  0
  3 30  1  0  0  0  0
  4  5  1  0  0  0  0
  4  3  1  0  0  0  0
  5 28  1  0  0  0  0
  5  6  1  1  0  0  0
  7  6  1  1  0  0  0
  8  7  1  0  0  0  0
  8  9  1  6  0  0  0
 10 11  1  1  0  0  0
 10  8  1  0  0  0  0
 12 10  1  0  0  0  0
 13 12  1  0  0  0  0
 13 15  1  0  0  0  0
 13 14  1  1  0  0  0
 15  7  1  0  0  0  0
 15 16  1  6  0  0  0
 17 16  1  6  0  0  0
 18 17  1  0  0  0  0
 19 20  1  1  0  0  0
 19 18  1  0  0  0  0
 20 21  1  0  0  0  0
 22 24  1  0  0  0  0
 22 19  1  0  0  0  0
 22 23  1  6  0  0  0
 24 25  1  1  0  0  0
 24 26  1  0  0  0  0
 26 17  1  0  0  0  0
 26 27  1  6  0  0  0
 28 29  1  6  0  0  0
 28 30  1  0  0  0  0
 30 31  1  6  0  0  0
M  END
>  <CHROM.1>
-172.29733155,-41.50269040,-153.16181979,-78.52911031,51.39520962,-71.19510197
-39.70661415,101.52425998,53.81978922,136.68956683,145.44825127,53.10506927
-61.87876829,58.12558426,101.03256601,-48.31495561,-0.18913550,4.49902153
2.93111778,0.05358824,-0.39210925,3.00173782

>  <Name>
lig.pdb

>  <RI>
2.74555e+07

>  <Rbt.Current_Directory>
/home/itssahil/PROJECTS/Mol_Feturizer/New_Systems/rnas/2n0j

>  <Rbt.Executable>
rbdock ($Id: //depot/dev/client3/rdock/2013.1/src/exe/rbdock.cxx#4 $)

>  <Rbt.Library>
libRbt.so (2013.1, Build901 2013/11/27)

>  <Rbt.Parameter_File>
/export/apps/rDock/src/rDock_2013.1_src/data/scripts/dock_solv.prm

>  <Rbt.Receptor>
prm/pocket_docking_6.prm

>  <SCORE>
-34.6945

>  <SCORE.INTER>
-41.8348

>  <SCORE.INTER.CONST>
1

>  <SCORE.INTER.POLAR>
-5.99611

>  <SCORE.INTER.ROT>
6

>  <SCORE.INTER.SOLV>
19.8685

>  <SCORE.INTER.VDW>
-22.1257

>  <SCORE.INTER.norm>
-1.34951

>  <SCORE.INTRA>
7.14029

>  <SCORE.INTRA.DIHEDRAL>
-1.34839

>  <SCORE.INTRA.DIHEDRAL.0>
28.0161

>  <SCORE.INTRA.POLAR>
0.617821

>  <SCORE.INTRA.POLAR.0>
-1.05798

>  <SCORE.INTRA.REPUL>
0.00639062

>  <SCORE.INTRA.REPUL.0>
0

>  <SCORE.INTRA.SOLV>
1.52412

>  <SCORE.INTRA.SOLV.lig_0>
-42.5945

>  <SCORE.INTRA.VDW>
4.91988

>  <SCORE.INTRA.VDW.0>
-5.13869

>  <SCORE.INTRA.norm>
0.230332

>  <SCORE.RESTR>
0

>  <SCORE.RESTR.CAVITY>
0

>  <SCORE.RESTR.norm>
0

>  <SCORE.SYSTEM>
0

>  <SCORE.SYSTEM.CONST>
0

>  <SCORE.SYSTEM.DIHEDRAL>
0

>  <SCORE.SYSTEM.SOLV>
0

>  <SCORE.SYSTEM.norm>
0

>  <SCORE.heavy>
31

>  <SCORE.norm>
-1.11918

>  <RMSD>
7.631

$$$$
lig.pdb
 OpenBabel11021811453D
libRbt.so/2013.1/901 2013/11/27
 31 33  0  0  0  0  0  0  0  0999 V2000
    6.2534    5.3628   -0.9391 O   0  0  0  0  0  0  0  0  0  0  0  0
    6.7291    5.2040    0.3832 C   0  0  0  0  0  0  0  0  0  0  0  0
    5.7866    4.3254    1.2169 C   0  0  1  0  0  0  0  0  0  0  0  0
    4.4699    4.8526    1.2549 O   0  0  0  0  0  0  0  0  0  0  0  0
    3.5385    3.7982    1.4779 C   0  0  1  0  0  0  0  0  0  0  0  0
    2.4626    3.9010    0.5528 O   0  0  0  0  0  0  0  0  0  0  0  0
    1.2713    4.5198    1.0119 C   0  0  2  0  0  0  0  0  0  0  0  0
    1.6162    5.9655    1.4032 C   0  0  1  0  0  0  0  0  0  0  0  0
    1.9169    6.7174    0.2380 O   0  0  0  0  0  0  0  0  0  0  0  0
    0.4878    6.7003    2.1428 C   0  0  2  0  0  0  0  0  0  0  0  0
    0.9211    8.0396    2.5703 N   0  0  0  0  0  0  0  0  0  0  0  0
    0.0607    5.8920    3.3622 C   0  0  0  0  0  0  0  0  0  0  0  0
   -0.3494    4.4895    2.9302 C   0  0  2  0  0  0  0  0  0  0  0  0
   -0.8066    3.7533    4.1137 N   0  0  0  0  0  0  0  0  0  0  0  0
    0.8282    3.7766    2.2311 C   0  0  1  0  0  0  0  0  0  0  0  0
    0.3369    2.4722    1.8864 O   0  0  0  0  0  0  0  0  0  0  0  0
    1.3019    1.4881    1.5301 C   0  0  1  0  0  0  0  0  0  0  0  0
    1.9896    1.0162    2.6856 O   0  0  0  0  0  0  0  0  0  0  0  0
    1.2228    0.2370    3.6012 C   0  0  2  0  0  0  0  0  0  0  0  0
    2.1218   -0.1811    4.7723 C   0  0  0  0  0  0  0  0  0  0  0  0
    1.3557   -0.7989    5.8452 N   0  0  0  0  0  0  0  0  0  0  0  0
    0.6502   -1.0145    2.9101 C   0  0  1  0  0  0  0  0  0  0  0  0
   -0.1543   -1.7399    3.8228 O   0  0  0  0  0  0  0  0  0  0  0  0
   -0.1937   -0.5716    1.7083 C   0  0  2  0  0  0  0  0  0  0  0  0
   -0.6629   -1.7032    0.9996 O   0  0  0  0  0  0  0  0  0  0  0  0
    0.6217    0.3378    0.7792 C   0  0  1  0  0  0  0  0  0  0  0  0
   -0.2338    0.8570   -0.2974 N   0  0  0  0  0  0  0  0  0  0  0  0
    4.2931    2.4814    1.2436 C   0  0  2  0  0  0  0  0  0  0  0  0
    4.4926    1.8163    2.4770 O   0  0  0  0  0  0  0  0  0  0  0  0
    5.5949    2.9467    0.5930 C   0  0  2  0  0  0  0  0  0  0  0  0
    6.6827    2.0691    0.8066 O   0  0  0  0  0  0  0  0  0  0  0  0
  2  1  1  0  0  0  0
  3  2  1  6  0  0  0
  3 30  1  0  0  0  0
  4  5  1  0  0  0  0
  4  3  1  0  0  0  0
  5 28  1  0  0  0  0
  5  6  1  6  0  0  0
  7  6  1  1  0  0  0
  8  7  1  0  0  0  0
  8  9  1  6  0  0  0
 10 11  1  1  0  0  0
 10  8  1  0  0  0  0
 12 10  1  0  0  0  0
 13 12  1  0  0  0  0
 13 15  1  0  0  0  0
 13 14  1  1  0  0  0
 15  7  1  0  0  0  0
 15 16  1  6  0  0  0
 17 16  1  1  0  0  0
 18 17  1  0  0  0  0
 19 20  1  1  0  0  0
 19 18  1  0  0  0  0
 20 21  1  0  0  0  0
 22 24  1  0  0  0  0
 22 19  1  0  0  0  0
 22 23  1  1  0  0  0
 24 25  1  6  0  0  0
 24 26  1  0  0  0  0
 26 17  1  0  0  0  0
 26 27  1  6  0  0  0
 28 29  1  1  0  0  0
 28 30  1  0  0  0  0
 30 31  1  1  0  0  0
M  END
>  <CHROM.1>
-54.69573981,-57.46226498,-98.38348387,61.37578186,-166.00125861,81.22774889
83.01343524,74.35070590,74.67188630,170.99971008,178.26875054,-149.24583804
70.95303157,-138.82441610,-166.17165144,33.68578039,2.08520888,2.78328530
1.92028869,-0.99915084,-0.33307500,2.99924635

>  <Name>
lig.pdb

>  <RI>
0

>  <Rbt.Current_Directory>
/home/itssahil/PROJECTS/Mol_Feturizer/New_Systems/rnas/2n0j

>  <Rbt.Executable>
rbdock ($Id: //depot/dev/client3/rdock/2013.1/src/exe/rbdock.cxx#4 $)

>  <Rbt.Library>
libRbt.so (2013.1, Build901 2013/11/27)

>  <Rbt.Parameter_File>
/export/apps/rDock/src/rDock_2013.1_src/data/scripts/dock_solv.prm

>  <Rbt.Receptor>
prm/blind_docking_40.prm

>  <SCORE>
-25.1548

>  <SCORE.INTER>
-32.1092

>  <SCORE.INTER.CONST>
1

>  <SCORE.INTER.POLAR>
-4.61877

>  <SCORE.INTER.ROT>
6

>  <SCORE.INTER.SOLV>
19.8134

>  <SCORE.INTER.VDW>
-20.2147

>  <SCORE.INTER.norm>
-1.03578

>  <SCORE.INTRA>
2.67937

>  <SCORE.INTRA.DIHEDRAL>
-6.17193

>  <SCORE.INTRA.DIHEDRAL.0>
28.0161

>  <SCORE.INTRA.POLAR>
0.428014

>  <SCORE.INTRA.POLAR.0>
-1.05798

>  <SCORE.INTRA.REPUL>
0

>  <SCORE.INTRA.REPUL.0>
0

>  <SCORE.INTRA.SOLV>
1.76064

>  <SCORE.INTRA.SOLV.lig_0>
-42.5945

>  <SCORE.INTRA.VDW>
3.42977

>  <SCORE.INTRA.VDW.0>
-5.13869

>  <SCORE.INTRA.norm>
0.0864312

>  <SCORE.RESTR>
4.275

>  <SCORE.RESTR.CAVITY>
4.275

>  <SCORE.RESTR.norm>
0.137903

>  <SCORE.SYSTEM>
0

>  <SCORE.SYSTEM.CONST>
0

>  <SCORE.SYSTEM.DIHEDRAL>
0

>  <SCORE.SYSTEM.SOLV>
0

>  <SCORE.SYSTEM.norm>
0

>  <SCORE.heavy>
31

>  <SCORE.norm>
-0.811445

>  <RMSD>
7.732

$$$$
lig.pdb
 OpenBabel11021811453D
libRbt.so/2013.1/901 2013/11/27
 31 33  0  0  0  0  0  0  0  0999 V2000
    7.7741    4.3253   -0.4514 O   0  0  0  0  0  0  0  0  0  0  0  0
    6.5189    4.9648   -0.3266 C   0  0  0  0  0  0  0  0  0  0  0  0
    5.6694    4.3226    0.7784 C   0  0  1  0  0  0  0  0  0  0  0  0
    4.3643    4.8769    0.8300 O   0  0  0  0  0  0  0  0  0  0  0  0
    3.4613    3.9243    1.3829 C   0  0  1  0  0  0  0  0  0  0  0  0
    2.2936    3.8403    0.5745 O   0  0  0  0  0  0  0  0  0  0  0  0
    1.1176    4.4604    1.0698 C   0  0  2  0  0  0  0  0  0  0  0  0
    1.4831    5.8957    1.4802 C   0  0  1  0  0  0  0  0  0  0  0  0
    1.7659    6.6665    0.3229 O   0  0  0  0  0  0  0  0  0  0  0  0
    0.3770    6.6262    2.2567 C   0  0  2  0  0  0  0  0  0  0  0  0
    0.8308    7.9536    2.6994 N   0  0  0  0  0  0  0  0  0  0  0  0
   -0.0315    5.7990    3.4699 C   0  0  0  0  0  0  0  0  0  0  0  0
   -0.4628    4.4082    3.0210 C   0  0  2  0  0  0  0  0  0  0  0  0
   -0.9015    3.6541    4.2003 N   0  0  0  0  0  0  0  0  0  0  0  0
    0.6937    3.6985    2.2844 C   0  0  1  0  0  0  0  0  0  0  0  0
    0.1839    2.4049    1.9263 O   0  0  0  0  0  0  0  0  0  0  0  0
    1.0912    1.4973    1.3102 C   0  0  1  0  0  0  0  0  0  0  0  0
    1.8519    0.8008    2.2935 O   0  0  0  0  0  0  0  0  0  0  0  0
    1.1361   -0.1323    3.0999 C   0  0  2  0  0  0  0  0  0  0  0  0
    2.1102   -0.7816    4.0920 C   0  0  0  0  0  0  0  0  0  0  0  0
    3.1938    0.1217    4.4519 N   0  0  0  0  0  0  0  0  0  0  0  0
    0.4779   -1.2180    2.2283 C   0  0  1  0  0  0  0  0  0  0  0  0
   -0.2742   -2.0975    3.0453 O   0  0  0  0  0  0  0  0  0  0  0  0
   -0.4428   -0.5391    1.2066 C   0  0  2  0  0  0  0  0  0  0  0  0
   -0.9960   -1.5051    0.3326 O   0  0  0  0  0  0  0  0  0  0  0  0
    0.3240    0.5238    0.4083 C   0  0  1  0  0  0  0  0  0  0  0  0
   -0.5966    1.2533   -0.4754 N   0  0  0  0  0  0  0  0  0  0  0  0
    4.1862    2.5705    1.3801 C   0  0  2  0  0  0  0  0  0  0  0  0
    4.5146    2.1989    2.7058 O   0  0  0  0  0  0  0  0  0  0  0  0
    5.4122    2.8432    0.5100 C   0  0  2  0  0  0  0  0  0  0  0  0
    6.5160    2.0107    0.8058 O   0  0  0  0  0  0  0  0  0  0  0  0
  2  1  1  0  0  0  0
  3  2  1  6  0  0  0
  3 30  1  0  0  0  0
  4  5  1  0  0  0  0
  4  3  1  0  0  0  0
  5 28  1  0  0  0  0
  5  6  1  6  0  0  0
  7  6  1  1  0  0  0
  8  7  1  0  0  0  0
  8  9  1  6  0  0  0
 10 11  1  1  0  0  0
 10  8  1  0  0  0  0
 12 10  1  0  0  0  0
 13 12  1  0  0  0  0
 13 15  1  0  0  0  0
 13 14  1  1  0  0  0
 15  7  1  0  0  0  0
 15 16  1  6  0  0  0
 17 16  1  1  0  0  0
 18 17  1  0  0  0  0
 19 20  1  1  0  0  0
 19 18  1  0  0  0  0
 20 21  1  0  0  0  0
 22 24  1  0  0  0  0
 22 19  1  0  0  0  0
 22 23  1  1  0  0  0
 24 25  1  6  0  0  0
 24 26  1  0  0  0  0
 26 17  1  0  0  0  0
 26 27  1  1  0  0  0
 28 29  1  1  0  0  0
 28 30  1  0  0  0  0
 30 31  1  1  0  0  0
M  END
>  <CHROM.1>
45.30371394,-174.66568224,-104.81053495,50.35878724,97.52707479,-61.95217015
85.76600542,63.54698119,84.31926139,30.22166037,-37.02366320,59.41331912
174.33389181,60.89431812,-173.87515834,134.58035214,2.06832643,2.73889317
1.71084849,-0.87917612,-0.25495409,3.10008941

>  <Name>
lig.pdb

>  <RI>
1.79691e+07

>  <Rbt.Current_Directory>
/home/itssahil/PROJECTS/Mol_Feturizer/New_Systems/rnas/2n0j

>  <Rbt.Executable>
rbdock ($Id: //depot/dev/client3/rdock/2013.1/src/exe/rbdock.cxx#4 $)

>  <Rbt.Library>
libRbt.so (2013.1, Build901 2013/11/27)

>  <Rbt.Parameter_File>
/export/apps/rDock/src/rDock_2013.1_src/data/scripts/dock_solv.prm

>  <Rbt.Receptor>
prm/blind_docking_20.prm

>  <SCORE>
-15.1144

>  <SCORE.INTER>
-21.9099

>  <SCORE.INTER.CONST>
1

>  <SCORE.INTER.POLAR>
-2.50633

>  <SCORE.INTER.ROT>
6

>  <SCORE.INTER.SOLV>
21.1006

>  <SCORE.INTER.VDW>
-20.8857

>  <SCORE.INTER.norm>
-0.706771

>  <SCORE.INTRA>
3.96245

>  <SCORE.INTRA.DIHEDRAL>
-0.832616

>  <SCORE.INTRA.DIHEDRAL.0>
28.0161

>  <SCORE.INTRA.POLAR>
-0.561237

>  <SCORE.INTRA.POLAR.0>
-1.05798

>  <SCORE.INTRA.REPUL>
0

>  <SCORE.INTRA.REPUL.0>
0

>  <SCORE.INTRA.SOLV>
1.35583

>  <SCORE.INTRA.SOLV.lig_0>
-42.5945

>  <SCORE.INTRA.VDW>
5.60904

>  <SCORE.INTRA.VDW.0>
-5.13869

>  <SCORE.INTRA.norm>
0.127821

>  <SCORE.RESTR>
2.83311

>  <SCORE.RESTR.CAVITY>
2.83311

>  <SCORE.RESTR.norm>
0.0913906

>  <SCORE.SYSTEM>
0

>  <SCORE.SYSTEM.CONST>
0

>  <SCORE.SYSTEM.DIHEDRAL>
0

>  <SCORE.SYSTEM.SOLV>
0

>  <SCORE.SYSTEM.norm>
0

>  <SCORE.heavy>
31

>  <SCORE.norm>
-0.48756

>  <RMSD>
7.734

$$$$
lig.pdb
 OpenBabel11021811453D
libRbt.so/2013.1/901 2013/11/27
 31 33  0  0  0  0  0  0  0  0999 V2000
   -9.4627   -4.1534    0.6873 O   0  0  0  0  0  0  0  0  0  0  0  0
   -8.4744   -4.9592    1.2989 C   0  0  0  0  0  0  0  0  0  0  0  0
   -7.0901   -4.3004    1.2274 C   0  0  1  0  0  0  0  0  0  0  0  0
   -7.0265   -3.1199    2.0118 O   0  0  0  0  0  0  0  0  0  0  0  0
   -5.6804   -2.8840    2.4132 C   0  0  1  0  0  0  0  0  0  0  0  0
   -5.6354   -2.5956    3.8056 O   0  0  0  0  0  0  0  0  0  0  0  0
   -5.8902   -1.2561    4.1975 C   0  0  2  0  0  0  0  0  0  0  0  0
   -7.2395   -0.8398    3.5906 C   0  0  1  0  0  0  0  0  0  0  0  0
   -8.2901   -1.5464    4.2311 O   0  0  0  0  0  0  0  0  0  0  0  0
   -7.5499    0.6590    3.7225 C   0  0  2  0  0  0  0  0  0  0  0  0
   -8.8059    1.0005    3.0369 N   0  0  0  0  0  0  0  0  0  0  0  0
   -6.4086    1.4747    3.1266 C   0  0  0  0  0  0  0  0  0  0  0  0
   -5.0979    1.0945    3.8042 C   0  0  2  0  0  0  0  0  0  0  0  0
   -4.0282    1.9320    3.2509 N   0  0  0  0  0  0  0  0  0  0  0  0
   -4.8080   -0.4093    3.6083 C   0  0  1  0  0  0  0  0  0  0  0  0
   -3.5546   -0.6473    4.2670 O   0  0  0  0  0  0  0  0  0  0  0  0
   -2.9384   -1.9126    4.0525 C   0  0  1  0  0  0  0  0  0  0  0  0
   -2.5024   -2.0374    2.7015 O   0  0  0  0  0  0  0  0  0  0  0  0
   -1.4131   -1.2041    2.3111 C   0  0  2  0  0  0  0  0  0  0  0  0
   -1.0836   -1.4749    0.8371 C   0  0  0  0  0  0  0  0  0  0  0  0
   -0.1320   -0.5065    0.3115 N   0  0  0  0  0  0  0  0  0  0  0  0
   -0.1731   -1.4791    3.1821 C   0  0  1  0  0  0  0  0  0  0  0  0
    0.8750   -0.6001    2.8146 O   0  0  0  0  0  0  0  0  0  0  0  0
   -0.5459   -1.2605    4.6537 C   0  0  2  0  0  0  0  0  0  0  0  0
    0.5492   -1.5904    5.4874 O   0  0  0  0  0  0  0  0  0  0  0  0
   -1.7742   -2.0990    5.0321 C   0  0  1  0  0  0  0  0  0  0  0  0
   -2.1972   -1.7846    6.4042 N   0  0  0  0  0  0  0  0  0  0  0  0
   -4.8994   -4.1758    2.1310 C   0  0  2  0  0  0  0  0  0  0  0  0
   -4.0212   -3.9771    1.0388 O   0  0  0  0  0  0  0  0  0  0  0  0
   -6.0075   -5.1856    1.8366 C   0  0  2  0  0  0  0  0  0  0  0  0
   -5.6006   -6.2474    0.9962 O   0  0  0  0  0  0  0  0  0  0  0  0
  2  1  1  0  0  0  0
  3  2  1  1  0  0  0
  3 30  1  0  0  0  0
  4  5  1  0  0  0  0
  4  3  1  0  0  0  0
  5 28  1  0  0  0  0
  5  6  1  1  0  0  0
  7  6  1  6  0  0  0
  8  7  1  0  0  0  0
  8  9  1  1  0  0  0
 10 11  1  6  0  0  0
 10  8  1  0  0  0  0
 12 10  1  0  0  0  0
 13 12  1  0  0  0  0
 13 15  1  0  0  0  0
 13 14  1  6  0  0  0
 15  7  1  0  0  0  0
 15 16  1  1  0  0  0
 17 16  1  6  0  0  0
 18 17  1  0  0  0  0
 19 20  1  6  0  0  0
 19 18  1  0  0  0  0
 20 21  1  0  0  0  0
 22 24  1  0  0  0  0
 22 19  1  0  0  0  0
 22 23  1  6  0  0  0
 24 25  1  1  0  0  0
 24 26  1  0  0  0  0
 26 17  1  0  0  0  0
 26 27  1  1  0  0  0
 28 29  1  6  0  0  0
 28 30  1  0  0  0  0
 30 31  1  6  0  0  0
M  END
>  <CHROM.1>
170.05118083,66.85732989,-83.80960180,54.01586637,-176.08529883,-162.46788270
-58.14541930,69.31873493,67.81583449,170.54263265,-78.95972093,-176.28769505
64.52077200,48.41959969,62.54070052,178.02427488,-4.39935280,-1.80556724
2.95589590,-2.82469243,-0.05012370,0.47321166

>  <Name>
lig.pdb

>  <RI>
0

>  <Rbt.Current_Directory>
/home/itssahil/PROJECTS/Mol_Feturizer/New_Systems/rnas/2n0j

>  <Rbt.Executable>
rbdock ($Id: //depot/dev/client3/rdock/2013.1/src/exe/rbdock.cxx#4 $)

>  <Rbt.Library>
libRbt.so (2013.1, Build901 2013/11/27)

>  <Rbt.Parameter_File>
/export/apps/rDock/src/rDock_2013.1_src/data/scripts/dock_solv.prm

>  <Rbt.Receptor>
prm/pocket_docking_8.prm

>  <SCORE>
-31.0895

>  <SCORE.INTER>
-21.0823

>  <SCORE.INTER.CONST>
1

>  <SCORE.INTER.POLAR>
-3.05693

>  <SCORE.INTER.ROT>
6

>  <SCORE.INTER.SOLV>
11.4736

>  <SCORE.INTER.VDW>
-15.2897

>  <SCORE.INTER.norm>
-0.680076

>  <SCORE.INTRA>
-10.0491

>  <SCORE.INTRA.DIHEDRAL>
-21.1344

>  <SCORE.INTRA.DIHEDRAL.0>
28.0161

>  <SCORE.INTRA.POLAR>
-0.7272

>  <SCORE.INTRA.POLAR.0>
-1.05798

>  <SCORE.INTRA.REPUL>
0

>  <SCORE.INTRA.REPUL.0>
0

>  <SCORE.INTRA.SOLV>
0.736313

>  <SCORE.INTRA.SOLV.lig_0>
-42.5945

>  <SCORE.INTRA.VDW>
2.62246

>  <SCORE.INTRA.VDW.0>
-5.13869

>  <SCORE.INTRA.norm>
-0.324163

>  <SCORE.RESTR>
0.0419115

>  <SCORE.RESTR.CAVITY>
0.0419115

>  <SCORE.RESTR.norm>
0.00135198

>  <SCORE.SYSTEM>
0

>  <SCORE.SYSTEM.CONST>
0

>  <SCORE.SYSTEM.DIHEDRAL>
0

>  <SCORE.SYSTEM.SOLV>
0

>  <SCORE.SYSTEM.norm>
0

>  <SCORE.heavy>
31

>  <SCORE.norm>
-1.00289

>  <RMSD>
7.748

$$$$
lig.pdb
 OpenBabel11021811453D
libRbt.so/2013.1/901 2013/11/27
 31 33  0  0  0  0  0  0  0  0999 V2000
    7.6541    4.0581   -0.2979 O   0  0  0  0  0  0  0  0  0  0  0  0
    6.8422    4.8542    0.5430 C   0  0  0  0  0  0  0  0  0  0  0  0
    5.8469    3.9974    1.3369 C   0  0  1  0  0  0  0  0  0  0  0  0
    4.5446    4.5606    1.3319 O   0  0  0  0  0  0  0  0  0  0  0  0
    3.5773    3.5312    1.5147 C   0  0  1  0  0  0  0  0  0  0  0  0
    2.5382    3.6689    0.5529 O   0  0  0  0  0  0  0  0  0  0  0  0
    1.3493    4.3190    0.9732 C   0  0  2  0  0  0  0  0  0  0  0  0
    1.7262    5.7409    1.4187 C   0  0  1  0  0  0  0  0  0  0  0  0
    2.1076    6.5105    0.2892 O   0  0  0  0  0  0  0  0  0  0  0  0
    0.5911    6.4975    2.1252 C   0  0  2  0  0  0  0  0  0  0  0  0
    1.0509    7.8089    2.6080 N   0  0  0  0  0  0  0  0  0  0  0  0
    0.0791    5.6748    3.3016 C   0  0  0  0  0  0  0  0  0  0  0  0
   -0.3596    4.2995    2.8136 C   0  0  2  0  0  0  0  0  0  0  0  0
   -0.8974    3.5509    3.9547 N   0  0  0  0  0  0  0  0  0  0  0  0
    0.8236    3.5620    2.1505 C   0  0  1  0  0  0  0  0  0  0  0  0
    0.3032    2.2856    1.7485 O   0  0  0  0  0  0  0  0  0  0  0  0
    1.2471    1.2904    1.3675 C   0  0  1  0  0  0  0  0  0  0  0  0
    1.8734    0.7248    2.5158 O   0  0  0  0  0  0  0  0  0  0  0  0
    1.0459   -0.0799    3.3531 C   0  0  2  0  0  0  0  0  0  0  0  0
    1.8845   -0.6003    4.5281 C   0  0  0  0  0  0  0  0  0  0  0  0
    3.2050   -1.0354    4.0960 N   0  0  0  0  0  0  0  0  0  0  0  0
    0.4580   -1.2657    2.5658 C   0  0  1  0  0  0  0  0  0  0  0  0
   -0.4052   -2.0152    3.4022 O   0  0  0  0  0  0  0  0  0  0  0  0
   -0.3235   -0.7206    1.3639 C   0  0  2  0  0  0  0  0  0  0  0  0
   -0.8033   -1.7896    0.5701 O   0  0  0  0  0  0  0  0  0  0  0  0
    0.5575    0.2130    0.5229 C   0  0  1  0  0  0  0  0  0  0  0  0
   -0.2377    0.8270   -0.5500 N   0  0  0  0  0  0  0  0  0  0  0  0
    4.3033    2.1953    1.2985 C   0  0  2  0  0  0  0  0  0  0  0  0
    4.4404    1.5179    2.5338 O   0  0  0  0  0  0  0  0  0  0  0  0
    5.6397    2.6280    0.6975 C   0  0  2  0  0  0  0  0  0  0  0  0
    6.6947    1.7194    0.9436 O   0  0  0  0  0  0  0  0  0  0  0  0
  2  1  1  0  0  0  0
  3  2  1  6  0  0  0
  3 30  1  0  0  0  0
  4  5  1  0  0  0  0
  4  3  1  0  0  0  0
  5 28  1  0  0  0  0
  5  6  1  6  0  0  0
  7  6  1  1  0  0  0
  8  7  1  0  0  0  0
  8  9  1  6  0  0  0
 10 11  1  1  0  0  0
 10  8  1  0  0  0  0
 12 10  1  0  0  0  0
 13 12  1  0  0  0  0
 13 15  1  0  0  0  0
 13 14  1  1  0  0  0
 15  7  1  0  0  0  0
 15 16  1  6  0  0  0
 17 16  1  1  0  0  0
 18 17  1  0  0  0  0
 19 20  1  1  0  0  0
 19 18  1  0  0  0  0
 20 21  1  0  0  0  0
 22 24  1  0  0  0  0
 22 19  1  0  0  0  0
 22 23  1  1  0  0  0
 24 25  1  6  0  0  0
 24 26  1  0  0  0  0
 26 17  1  0  0  0  0
 26 27  1  6  0  0  0
 28 29  1  1  0  0  0
 28 30  1  0  0  0  0
 30 31  1  1  0  0  0
M  END
>  <CHROM.1>
67.21252051,-135.12615517,-98.32491965,59.96473461,-60.89333353,-28.18273996
-165.48114610,72.29621771,76.58685799,-42.14992926,-46.73198076,-79.68539754
63.43337989,95.32043902,66.93111990,-55.36564808,2.19152573,2.50652189,1.78973144
-0.92201412,-0.21831627,3.06818554

>  <Name>
lig.pdb

>  <RI>
9.20816e+06

>  <Rbt.Current_Directory>
/home/itssahil/PROJECTS/Mol_Feturizer/New_Systems/rnas/2n0j

>  <Rbt.Executable>
rbdock ($Id: //depot/dev/client3/rdock/2013.1/src/exe/rbdock.cxx#4 $)

>  <Rbt.Library>
libRbt.so (2013.1, Build901 2013/11/27)

>  <Rbt.Parameter_File>
/export/apps/rDock/src/rDock_2013.1_src/data/scripts/dock_solv.prm

>  <Rbt.Receptor>
prm/blind_docking_100.prm

>  <SCORE>
-32.7362

>  <SCORE.INTER>
-34.0278

>  <SCORE.INTER.CONST>
1

>  <SCORE.INTER.POLAR>
-5.08363

>  <SCORE.INTER.ROT>
6

>  <SCORE.INTER.SOLV>
21.0895

>  <SCORE.INTER.VDW>
-20.3696

>  <SCORE.INTER.norm>
-1.09767

>  <SCORE.INTRA>
-1.34454

>  <SCORE.INTRA.DIHEDRAL>
-7.49452

>  <SCORE.INTRA.DIHEDRAL.0>
28.0161

>  <SCORE.INTRA.POLAR>
-0.8163

>  <SCORE.INTRA.POLAR.0>
-1.05798

>  <SCORE.INTRA.REPUL>
0

>  <SCORE.INTRA.REPUL.0>
0

>  <SCORE.INTRA.SOLV>
1.81437

>  <SCORE.INTRA.SOLV.lig_0>
-42.5945

>  <SCORE.INTRA.VDW>
4.27096

>  <SCORE.INTRA.VDW.0>
-5.13869

>  <SCORE.INTRA.norm>
-0.0433723

>  <SCORE.RESTR>
2.6362

>  <SCORE.RESTR.CAVITY>
2.6362

>  <SCORE.RESTR.norm>
0.0850386

>  <SCORE.SYSTEM>
0

>  <SCORE.SYSTEM.CONST>
0

>  <SCORE.SYSTEM.DIHEDRAL>
0

>  <SCORE.SYSTEM.SOLV>
0

>  <SCORE.SYSTEM.norm>
0

>  <SCORE.heavy>
31

>  <SCORE.norm>
-1.05601

>  <RMSD>
7.750

$$$$
lig.pdb
 OpenBabel11021811453D
libRbt.so/2013.1/901 2013/11/27
 31 33  0  0  0  0  0  0  0  0999 V2000
    7.0525    4.4623   -0.8798 O   0  0  0  0  0  0  0  0  0  0  0  0
    6.4440    5.2438    0.1297 C   0  0  0  0  0  0  0  0  0  0  0  0
    5.5814    4.3828    1.0624 C   0  0  1  0  0  0  0  0  0  0  0  0
    4.2514    4.8692    1.1494 O   0  0  0  0  0  0  0  0  0  0  0  0
    3.3715    3.7997    1.4819 C   0  0  1  0  0  0  0  0  0  0  0  0
    2.2420    3.8173    0.6172 O   0  0  0  0  0  0  0  0  0  0  0  0
    1.0493    4.3964    1.1222 C   0  0  2  0  0  0  0  0  0  0  0  0
    1.3438    5.8709    1.4406 C   0  0  1  0  0  0  0  0  0  0  0  0
    1.5408    6.5905    0.2336 O   0  0  0  0  0  0  0  0  0  0  0  0
    0.2239    6.5796    2.2176 C   0  0  2  0  0  0  0  0  0  0  0  0
    0.6139    7.9534    2.5708 N   0  0  0  0  0  0  0  0  0  0  0  0
   -0.0933    5.7998    3.4882 C   0  0  0  0  0  0  0  0  0  0  0  0
   -0.4573    4.3638    3.1314 C   0  0  2  0  0  0  0  0  0  0  0  0
   -0.8101    3.6532    4.3652 N   0  0  0  0  0  0  0  0  0  0  0  0
    0.7129    3.6808    2.3912 C   0  0  1  0  0  0  0  0  0  0  0  0
    0.2680    2.3424    2.1227 O   0  0  0  0  0  0  0  0  0  0  0  0
    1.2632    1.3837    1.7804 C   0  0  1  0  0  0  0  0  0  0  0  0
    1.7145    0.6905    2.9408 O   0  0  0  0  0  0  0  0  0  0  0  0
    0.7757   -0.1907    3.5536 C   0  0  2  0  0  0  0  0  0  0  0  0
    1.4328   -0.8443    4.7766 C   0  0  0  0  0  0  0  0  0  0  0  0
    0.4507   -1.1927    5.7935 N   0  0  0  0  0  0  0  0  0  0  0  0
    0.3177   -1.2779    2.5638 C   0  0  1  0  0  0  0  0  0  0  0  0
   -0.6566   -2.1038    3.1764 O   0  0  0  0  0  0  0  0  0  0  0  0
   -0.2790   -0.5976    1.3254 C   0  0  2  0  0  0  0  0  0  0  0  0
   -0.6298   -1.5691    0.3579 O   0  0  0  0  0  0  0  0  0  0  0  0
    0.7126    0.4116    0.7308 C   0  0  1  0  0  0  0  0  0  0  0  0
    0.0828    1.1467   -0.3753 N   0  0  0  0  0  0  0  0  0  0  0  0
    4.1570    2.4966    1.2741 C   0  0  2  0  0  0  0  0  0  0  0  0
    4.4491    1.9069    2.5272 O   0  0  0  0  0  0  0  0  0  0  0  0
    5.4029    2.9665    0.5248 C   0  0  2  0  0  0  0  0  0  0  0  0
    6.5309    2.1369    0.7206 O   0  0  0  0  0  0  0  0  0  0  0  0
  2  1  1  0  0  0  0
  3  2  1  6  0  0  0
  3 30  1  0  0  0  0
  4  5  1  0  0  0  0
  4  3  1  0  0  0  0
  5 28  1  0  0  0  0
  5  6  1  6  0  0  0
  7  6  1  1  0  0  0
  8  7  1  0  0  0  0
  8  9  1  6  0  0  0
 10 11  1  1  0  0  0
 10  8  1  0  0  0  0
 12 10  1  0  0  0  0
 13 12  1  0  0  0  0
 13 15  1  0  0  0  0
 13 14  1  1  0  0  0
 15  7  1  0  0  0  0
 15 16  1  6  0  0  0
 17 16  1  1  0  0  0
 18 17  1  0  0  0  0
 19 20  1  1  0  0  0
 19 18  1  0  0  0  0
 20 21  1  0  0  0  0
 22 24  1  0  0  0  0
 22 19  1  0  0  0  0
 22 23  1  1  0  0  0
 24 25  1  6  0  0  0
 24 26  1  0  0  0  0
 26 17  1  0  0  0  0
 26 27  1  6  0  0  0
 28 29  1  1  0  0  0
 28 30  1  0  0  0  0
 30 31  1  1  0  0  0
M  END
>  <CHROM.1>
-47.83784652,-125.40593134,-99.70885021,61.46724154,-175.35178544,79.22667919
-151.35156589,75.93754784,92.89046223,151.47463765,-52.59964161,-80.37487348
56.63279091,25.49301465,68.57059207,91.15487208,1.90785082,2.65804567,1.88863715
-0.93532953,-0.39313802,3.06030786

>  <Name>
lig.pdb

>  <RI>
0

>  <Rbt.Current_Directory>
/home/itssahil/PROJECTS/Mol_Feturizer/New_Systems/rnas/2n0j

>  <Rbt.Executable>
rbdock ($Id: //depot/dev/client3/rdock/2013.1/src/exe/rbdock.cxx#4 $)

>  <Rbt.Library>
libRbt.so (2013.1, Build901 2013/11/27)

>  <Rbt.Parameter_File>
/export/apps/rDock/src/rDock_2013.1_src/data/scripts/dock_solv.prm

>  <Rbt.Receptor>
prm/blind_docking_40.prm

>  <SCORE>
-25.1335

>  <SCORE.INTER>
-32.7473

>  <SCORE.INTER.CONST>
1

>  <SCORE.INTER.POLAR>
-4.31885

>  <SCORE.INTER.ROT>
6

>  <SCORE.INTER.SOLV>
20.1926

>  <SCORE.INTER.VDW>
-21.7662

>  <SCORE.INTER.norm>
-1.05636

>  <SCORE.INTRA>
4.35156

>  <SCORE.INTRA.DIHEDRAL>
2.19894

>  <SCORE.INTRA.DIHEDRAL.0>
28.0161

>  <SCORE.INTRA.POLAR>
-0.712519

>  <SCORE.INTRA.POLAR.0>
-1.05798

>  <SCORE.INTRA.REPUL>
0

>  <SCORE.INTRA.REPUL.0>
0

>  <SCORE.INTRA.SOLV>
1.36609

>  <SCORE.INTRA.SOLV.lig_0>
-42.5945

>  <SCORE.INTRA.VDW>
4.99161

>  <SCORE.INTRA.VDW.0>
-5.13869

>  <SCORE.INTRA.norm>
0.140373

>  <SCORE.RESTR>
3.2622

>  <SCORE.RESTR.CAVITY>
3.2622

>  <SCORE.RESTR.norm>
0.105232

>  <SCORE.SYSTEM>
0

>  <SCORE.SYSTEM.CONST>
0

>  <SCORE.SYSTEM.DIHEDRAL>
0

>  <SCORE.SYSTEM.SOLV>
0

>  <SCORE.SYSTEM.norm>
0

>  <SCORE.heavy>
31

>  <SCORE.norm>
-0.810758

>  <RMSD>
7.754

$$$$
lig.pdb
 OpenBabel11021811453D
libRbt.so/2013.1/901 2013/11/27
 31 33  0  0  0  0  0  0  0  0999 V2000
    7.9668    2.7594    0.7613 O   0  0  0  0  0  0  0  0  0  0  0  0
    6.7837    2.9738    0.0168 C   0  0  0  0  0  0  0  0  0  0  0  0
    5.8532    3.9731    0.7173 C   0  0  1  0  0  0  0  0  0  0  0  0
    4.5721    4.0168    0.1091 O   0  0  0  0  0  0  0  0  0  0  0  0
    3.6025    4.4353    1.0649 C   0  0  1  0  0  0  0  0  0  0  0  0
    2.4743    3.5699    1.0187 O   0  0  0  0  0  0  0  0  0  0  0  0
    1.2108    4.1369    1.3264 C   0  0  2  0  0  0  0  0  0  0  0  0
    1.4025    5.6547    1.4730 C   0  0  1  0  0  0  0  0  0  0  0  0
    1.6883    6.2251    0.2056 O   0  0  0  0  0  0  0  0  0  0  0  0
    0.1775    6.3891    2.0389 C   0  0  2  0  0  0  0  0  0  0  0  0
    0.4652    7.8173    2.2423 N   0  0  0  0  0  0  0  0  0  0  0  0
   -0.2315    5.7600    3.3656 C   0  0  0  0  0  0  0  0  0  0  0  0
   -0.4902    4.2712    3.1694 C   0  0  2  0  0  0  0  0  0  0  0  0
   -0.9340    3.7040    4.4473 N   0  0  0  0  0  0  0  0  0  0  0  0
    0.7799    3.5701    2.6412 C   0  0  1  0  0  0  0  0  0  0  0  0
    0.4273    2.1843    2.5114 O   0  0  0  0  0  0  0  0  0  0  0  0
    1.4840    1.2345    2.5992 C   0  0  1  0  0  0  0  0  0  0  0  0
    1.7309    0.8804    3.9573 O   0  0  0  0  0  0  0  0  0  0  0  0
    0.7123    0.1223    4.6063 C   0  0  2  0  0  0  0  0  0  0  0  0
    1.1496   -0.1652    6.0488 C   0  0  0  0  0  0  0  0  0  0  0  0
    1.5066   -1.5644    6.2343 N   0  0  0  0  0  0  0  0  0  0  0  0
    0.4584   -1.2029    3.8639 C   0  0  1  0  0  0  0  0  0  0  0  0
   -0.5960   -1.9097    4.4926 O   0  0  0  0  0  0  0  0  0  0  0  0
    0.0828   -0.8896    2.4102 C   0  0  2  0  0  0  0  0  0  0  0  0
   -0.0717   -2.0907    1.6778 O   0  0  0  0  0  0  0  0  0  0  0  0
    1.1478    0.0000    1.7549 C   0  0  1  0  0  0  0  0  0  0  0  0
    0.7148    0.3970    0.4075 N   0  0  0  0  0  0  0  0  0  0  0  0
    4.2682    4.3379    2.4454 C   0  0  2  0  0  0  0  0  0  0  0  0
    4.5136    5.6362    2.9529 O   0  0  0  0  0  0  0  0  0  0  0  0
    5.5467    3.5546    2.1518 C   0  0  2  0  0  0  0  0  0  0  0  0
    6.5977    3.8208    3.0594 O   0  0  0  0  0  0  0  0  0  0  0  0
  2  1  1  0  0  0  0
  3  2  1  6  0  0  0
  3 30  1  0  0  0  0
  4  5  1  0  0  0  0
  4  3  1  0  0  0  0
  5 28  1  0  0  0  0
  5  6  1  1  0  0  0
  7  6  1  1  0  0  0
  8  7  1  0  0  0  0
  8  9  1  6  0  0  0
 10 11  1  1  0  0  0
 10  8  1  0  0  0  0
 12 10  1  0  0  0  0
 13 12  1  0  0  0  0
 13 15  1  0  0  0  0
 13 14  1  1  0  0  0
 15  7  1  0  0  0  0
 15 16  1  6  0  0  0
 17 16  1  1  0  0  0
 18 17  1  0  0  0  0
 19 20  1  1  0  0  0
 19 18  1  0  0  0  0
 20 21  1  0  0  0  0
 22 24  1  0  0  0  0
 22 19  1  0  0  0  0
 22 23  1  1  0  0  0
 24 25  1  6  0  0  0
 24 26  1  0  0  0  0
 26 17  1  0  0  0  0
 26 27  1  6  0  0  0
 28 29  1  6  0  0  0
 28 30  1  0  0  0  0
 30 31  1  1  0  0  0
M  END
>  <CHROM.1>
-179.14464359,-169.58103057,-148.59363325,6.89268930,-43.74994805,-96.90141602
-42.12258660,85.19495025,86.56080075,-108.16132157,-178.75891403,-159.04456076
175.91710726,83.11529780,59.36322104,-55.01456956,2.11406047,2.67382777,2.44799840
-0.96672079,-0.28713056,2.90791132

>  <Name>
lig.pdb

>  <RI>
1.55206e+07

>  <Rbt.Current_Directory>
/home/itssahil/PROJECTS/Mol_Feturizer/New_Systems/rnas/2n0j

>  <Rbt.Executable>
rbdock ($Id: //depot/dev/client3/rdock/2013.1/src/exe/rbdock.cxx#4 $)

>  <Rbt.Library>
libRbt.so (2013.1, Build901 2013/11/27)

>  <Rbt.Parameter_File>
/export/apps/rDock/src/rDock_2013.1_src/data/scripts/dock_solv.prm

>  <Rbt.Receptor>
prm/blind_docking_80.prm

>  <SCORE>
-26.1217

>  <SCORE.INTER>
-45.6691

>  <SCORE.INTER.CONST>
1

>  <SCORE.INTER.POLAR>
-6.91904

>  <SCORE.INTER.ROT>
6

>  <SCORE.INTER.SOLV>
24.767

>  <SCORE.INTER.VDW>
-23.2382

>  <SCORE.INTER.norm>
-1.4732

>  <SCORE.INTRA>
13.4532

>  <SCORE.INTRA.DIHEDRAL>
1.64506

>  <SCORE.INTRA.DIHEDRAL.0>
28.0161

>  <SCORE.INTRA.POLAR>
0.188299

>  <SCORE.INTRA.POLAR.0>
-1.05798

>  <SCORE.INTRA.REPUL>
0.00942359

>  <SCORE.INTRA.REPUL.0>
0

>  <SCORE.INTRA.SOLV>
1.12065

>  <SCORE.INTRA.SOLV.lig_0>
-42.5945

>  <SCORE.INTRA.VDW>
11.383

>  <SCORE.INTRA.VDW.0>
-5.13869

>  <SCORE.INTRA.norm>
0.433974

>  <SCORE.RESTR>
6.09422

>  <SCORE.RESTR.CAVITY>
6.09422

>  <SCORE.RESTR.norm>
0.196588

>  <SCORE.SYSTEM>
0

>  <SCORE.SYSTEM.CONST>
0

>  <SCORE.SYSTEM.DIHEDRAL>
0

>  <SCORE.SYSTEM.SOLV>
0

>  <SCORE.SYSTEM.norm>
0

>  <SCORE.heavy>
31

>  <SCORE.norm>
-0.842634

>  <RMSD>
7.823

$$$$
lig.pdb
 OpenBabel11021811453D
libRbt.so/2013.1/901 2013/11/27
 31 33  0  0  0  0  0  0  0  0999 V2000
    6.3186    6.3132   -0.9969 O   0  0  0  0  0  0  0  0  0  0  0  0
    6.3234    4.8990   -0.9945 C   0  0  0  0  0  0  0  0  0  0  0  0
    5.7800    4.3383    0.3267 C   0  0  1  0  0  0  0  0  0  0  0  0
    4.4024    4.6318    0.4974 O   0  0  0  0  0  0  0  0  0  0  0  0
    3.8058    3.6530    1.3428 C   0  0  1  0  0  0  0  0  0  0  0  0
    2.5928    3.1886    0.7624 O   0  0  0  0  0  0  0  0  0  0  0  0
    1.4053    3.8890    1.0974 C   0  0  2  0  0  0  0  0  0  0  0  0
    1.7462    5.3865    1.1553 C   0  0  1  0  0  0  0  0  0  0  0  0
    2.0200    5.8654   -0.1520 O   0  0  0  0  0  0  0  0  0  0  0  0
    0.6258    6.2619    1.7373 C   0  0  2  0  0  0  0  0  0  0  0  0
    1.0566    7.6638    1.8522 N   0  0  0  0  0  0  0  0  0  0  0  0
    0.2271    5.7394    3.1125 C   0  0  0  0  0  0  0  0  0  0  0  0
   -0.1801    4.2749    3.0067 C   0  0  2  0  0  0  0  0  0  0  0  0
   -0.6102    3.8149    4.3315 N   0  0  0  0  0  0  0  0  0  0  0  0
    0.9901    3.4300    2.4584 C   0  0  1  0  0  0  0  0  0  0  0  0
    0.5025    2.0801    2.4178 O   0  0  0  0  0  0  0  0  0  0  0  0
    1.4445    1.0586    2.1084 C   0  0  1  0  0  0  0  0  0  0  0  0
    1.7254    0.2676    3.2600 O   0  0  0  0  0  0  0  0  0  0  0  0
    0.6640   -0.5606    3.7301 C   0  0  2  0  0  0  0  0  0  0  0  0
    1.1463   -1.3334    4.9649 C   0  0  0  0  0  0  0  0  0  0  0  0
    1.3551   -0.4515    6.1044 N   0  0  0  0  0  0  0  0  0  0  0  0
    0.2154   -1.5493    2.6380 C   0  0  1  0  0  0  0  0  0  0  0  0
   -0.8767   -2.3193    3.1081 O   0  0  0  0  0  0  0  0  0  0  0  0
   -0.2034   -0.7543    1.3950 C   0  0  2  0  0  0  0  0  0  0  0  0
   -0.5384   -1.6384    0.3418 O   0  0  0  0  0  0  0  0  0  0  0  0
    0.9190    0.1956    0.9556 C   0  0  1  0  0  0  0  0  0  0  0  0
    0.4592    1.0409   -0.1555 N   0  0  0  0  0  0  0  0  0  0  0  0
    4.8026    2.4897    1.4487 C   0  0  2  0  0  0  0  0  0  0  0  0
    5.3678    2.4582    2.7461 O   0  0  0  0  0  0  0  0  0  0  0  0
    5.8205    2.8137    0.3563 C   0  0  2  0  0  0  0  0  0  0  0  0
    7.1077    2.2832    0.6029 O   0  0  0  0  0  0  0  0  0  0  0  0
  2  1  1  0  0  0  0
  3  2  1  6  0  0  0
  3 30  1  0  0  0  0
  4  5  1  0  0  0  0
  4  3  1  0  0  0  0
  5 28  1  0  0  0  0
  5  6  1  6  0  0  0
  7  6  1  1  0  0  0
  8  7  1  0  0  0  0
  8  9  1  6  0  0  0
 10 11  1  1  0  0  0
 10  8  1  0  0  0  0
 12 10  1  0  0  0  0
 13 12  1  0  0  0  0
 13 15  1  0  0  0  0
 13 14  1  1  0  0  0
 15  7  1  0  0  0  0
 15 16  1  6  0  0  0
 17 16  1  1  0  0  0
 18 17  1  0  0  0  0
 19 20  1  1  0  0  0
 19 18  1  0  0  0  0
 20 21  1  0  0  0  0
 22 24  1  0  0  0  0
 22 19  1  0  0  0  0
 22 23  1  1  0  0  0
 24 25  1  6  0  0  0
 24 26  1  0  0  0  0
 26 17  1  0  0  0  0
 26 27  1  6  0  0  0
 28 29  1  1  0  0  0
 28 30  1  0  0  0  0
 30 31  1  1  0  0  0
M  END
>  <CHROM.1>
-59.97415683,66.40179452,-89.78040877,38.73185882,48.71954903,-175.56267972
83.35354380,67.04460832,108.99355253,68.63489733,-173.61784078,-74.76548416
-179.98265073,35.23333090,-73.97484551,63.80902108,2.14948184,2.56622655
1.79655187,-0.91760619,-0.39074989,2.98601530

>  <Name>
lig.pdb

>  <RI>
0

>  <Rbt.Current_Directory>
/home/itssahil/PROJECTS/Mol_Feturizer/New_Systems/rnas/2n0j

>  <Rbt.Executable>
rbdock ($Id: //depot/dev/client3/rdock/2013.1/src/exe/rbdock.cxx#4 $)

>  <Rbt.Library>
libRbt.so (2013.1, Build901 2013/11/27)

>  <Rbt.Parameter_File>
/export/apps/rDock/src/rDock_2013.1_src/data/scripts/dock_solv.prm

>  <Rbt.Receptor>
prm/blind_docking_60.prm

>  <SCORE>
-12.7163

>  <SCORE.INTER>
-17.8823

>  <SCORE.INTER.CONST>
1

>  <SCORE.INTER.POLAR>
-4.95175

>  <SCORE.INTER.ROT>
6

>  <SCORE.INTER.SOLV>
22.5955

>  <SCORE.INTER.VDW>
-10.5475

>  <SCORE.INTER.norm>
-0.576848

>  <SCORE.INTRA>
0.847612

>  <SCORE.INTRA.DIHEDRAL>
-9.64381

>  <SCORE.INTRA.DIHEDRAL.0>
28.0161

>  <SCORE.INTRA.POLAR>
0.351942

>  <SCORE.INTRA.POLAR.0>
-1.05798

>  <SCORE.INTRA.REPUL>
0

>  <SCORE.INTRA.REPUL.0>
0

>  <SCORE.INTRA.SOLV>
-0.606387

>  <SCORE.INTRA.SOLV.lig_0>
-42.5945

>  <SCORE.INTRA.VDW>
4.77611

>  <SCORE.INTRA.VDW.0>
-5.13869

>  <SCORE.INTRA.norm>
0.0273423

>  <SCORE.RESTR>
4.31834

>  <SCORE.RESTR.CAVITY>
4.31834

>  <SCORE.RESTR.norm>
0.139301

>  <SCORE.SYSTEM>
0

>  <SCORE.SYSTEM.CONST>
0

>  <SCORE.SYSTEM.DIHEDRAL>
0

>  <SCORE.SYSTEM.SOLV>
0

>  <SCORE.SYSTEM.norm>
0

>  <SCORE.heavy>
31

>  <SCORE.norm>
-0.410205

>  <RMSD>
7.901

$$$$
lig.pdb
 OpenBabel11021811453D
libRbt.so/2013.1/901 2013/11/27
 31 33  0  0  0  0  0  0  0  0999 V2000
    7.9669    4.0640   -1.6377 O   0  0  0  0  0  0  0  0  0  0  0  0
    6.5552    4.0135   -1.5699 C   0  0  0  0  0  0  0  0  0  0  0  0
    6.0557    4.1948   -0.1301 C   0  0  1  0  0  0  0  0  0  0  0  0
    4.7058    4.6298   -0.0908 O   0  0  0  0  0  0  0  0  0  0  0  0
    4.1068    4.2209    1.1351 C   0  0  1  0  0  0  0  0  0  0  0  0
    2.8426    3.6212    0.8781 O   0  0  0  0  0  0  0  0  0  0  0  0
    1.7002    4.4582    0.9621 C   0  0  2  0  0  0  0  0  0  0  0  0
    2.1237    5.7584    1.6638 C   0  0  1  0  0  0  0  0  0  0  0  0
    2.9812    6.5032    0.8133 O   0  0  0  0  0  0  0  0  0  0  0  0
    0.9511    6.6744    2.0461 C   0  0  2  0  0  0  0  0  0  0  0  0
    1.4214    7.8487    2.7972 N   0  0  0  0  0  0  0  0  0  0  0  0
   -0.0520    5.8994    2.8924 C   0  0  0  0  0  0  0  0  0  0  0  0
   -0.5110    4.6587    2.1361 C   0  0  2  0  0  0  0  0  0  0  0  0
   -1.5144    3.9631    2.9491 N   0  0  0  0  0  0  0  0  0  0  0  0
    0.6945    3.7501    1.8122 C   0  0  1  0  0  0  0  0  0  0  0  0
    0.1461    2.6170    1.1215 O   0  0  0  0  0  0  0  0  0  0  0  0
    1.0681    1.6656    0.6005 C   0  0  1  0  0  0  0  0  0  0  0  0
    2.0573    1.3387    1.5728 O   0  0  0  0  0  0  0  0  0  0  0  0
    1.6076    0.5976    2.7050 C   0  0  2  0  0  0  0  0  0  0  0  0
    2.8004    0.3383    3.6350 C   0  0  0  0  0  0  0  0  0  0  0  0
    3.9820   -0.0762    2.8922 N   0  0  0  0  0  0  0  0  0  0  0  0
    0.9837   -0.7417    2.2707 C   0  0  1  0  0  0  0  0  0  0  0  0
    0.4926   -1.4320    3.4060 O   0  0  0  0  0  0  0  0  0  0  0  0
   -0.1654   -0.4572    1.2954 C   0  0  2  0  0  0  0  0  0  0  0  0
   -0.7035   -1.6726    0.8094 O   0  0  0  0  0  0  0  0  0  0  0  0
    0.3173    0.4152    0.1288 C   0  0  1  0  0  0  0  0  0  0  0  0
   -0.8179    0.7859   -0.7281 N   0  0  0  0  0  0  0  0  0  0  0  0
    5.0480    3.1844    1.7660 C   0  0  2  0  0  0  0  0  0  0  0  0
    5.6795    3.7395    2.9046 O   0  0  0  0  0  0  0  0  0  0  0  0
    6.0209    2.8727    0.6299 C   0  0  2  0  0  0  0  0  0  0  0  0
    7.2911    2.4368    1.0725 O   0  0  0  0  0  0  0  0  0  0  0  0
  2  1  1  0  0  0  0
  3  2  1  6  0  0  0
  3 30  1  0  0  0  0
  4  5  1  0  0  0  0
  4  3  1  0  0  0  0
  5 28  1  0  0  0  0
  5  6  1  6  0  0  0
  7  6  1  1  0  0  0
  8  7  1  0  0  0  0
  8  9  1  6  0  0  0
 10 11  1  1  0  0  0
 10  8  1  0  0  0  0
 12 10  1  0  0  0  0
 13 12  1  0  0  0  0
 13 15  1  0  0  0  0
 13 14  1  1  0  0  0
 15  7  1  0  0  0  0
 15 16  1  6  0  0  0
 17 16  1  1  0  0  0
 18 17  1  0  0  0  0
 19 20  1  1  0  0  0
 19 18  1  0  0  0  0
 20 21  1  0  0  0  0
 22 24  1  0  0  0  0
 22 19  1  0  0  0  0
 22 23  1  1  0  0  0
 24 25  1  6  0  0  0
 24 26  1  0  0  0  0
 26 17  1  0  0  0  0
 26 27  1  1  0  0  0
 28 29  1  1  0  0  0
 28 30  1  0  0  0  0
 30 31  1  1  0  0  0
M  END
>  <CHROM.1>
-173.15049163,158.54790025,-94.48879880,-13.94145667,67.83652414,147.02130963
-53.64258150,53.87295112,46.47824379,-43.96006120,147.19171333,-157.39218976
174.50635143,177.00329427,-58.26474140,-60.61226523,2.46942474,2.88301745
1.37268892,-0.59549852,-0.25060243,-3.12431283

>  <Name>
lig.pdb

>  <RI>
1.55206e+07

>  <Rbt.Current_Directory>
/home/itssahil/PROJECTS/Mol_Feturizer/New_Systems/rnas/2n0j

>  <Rbt.Executable>
rbdock ($Id: //depot/dev/client3/rdock/2013.1/src/exe/rbdock.cxx#4 $)

>  <Rbt.Library>
libRbt.so (2013.1, Build901 2013/11/27)

>  <Rbt.Parameter_File>
/export/apps/rDock/src/rDock_2013.1_src/data/scripts/dock_solv.prm

>  <Rbt.Receptor>
prm/blind_docking_80.prm

>  <SCORE>
-33.4588

>  <SCORE.INTER>
-46.8346

>  <SCORE.INTER.CONST>
1

>  <SCORE.INTER.POLAR>
-6.35398

>  <SCORE.INTER.ROT>
6

>  <SCORE.INTER.SOLV>
21.9764

>  <SCORE.INTER.VDW>
-24.9686

>  <SCORE.INTER.norm>
-1.51079

>  <SCORE.INTRA>
9.55325

>  <SCORE.INTRA.DIHEDRAL>
-6.41129

>  <SCORE.INTRA.DIHEDRAL.0>
28.0161

>  <SCORE.INTRA.POLAR>
0.81919

>  <SCORE.INTRA.POLAR.0>
-1.05798

>  <SCORE.INTRA.REPUL>
0.162382

>  <SCORE.INTRA.REPUL.0>
0

>  <SCORE.INTRA.SOLV>
0.582835

>  <SCORE.INTRA.SOLV.lig_0>
-42.5945

>  <SCORE.INTRA.VDW>
8.87033

>  <SCORE.INTRA.VDW.0>
-5.13869

>  <SCORE.INTRA.norm>
0.308169

>  <SCORE.RESTR>
3.82257

>  <SCORE.RESTR.CAVITY>
3.82257

>  <SCORE.RESTR.norm>
0.123309

>  <SCORE.SYSTEM>
0

>  <SCORE.SYSTEM.CONST>
0

>  <SCORE.SYSTEM.DIHEDRAL>
0

>  <SCORE.SYSTEM.SOLV>
0

>  <SCORE.SYSTEM.norm>
0

>  <SCORE.heavy>
31

>  <SCORE.norm>
-1.07932

>  <RMSD>
7.983

$$$$
lig.pdb
 OpenBabel11021811453D
libRbt.so/2013.1/901 2013/11/27
 31 33  0  0  0  0  0  0  0  0999 V2000
    7.8466    3.9460   -1.5702 O   0  0  0  0  0  0  0  0  0  0  0  0
    6.4690    3.6499   -1.4498 C   0  0  0  0  0  0  0  0  0  0  0  0
    5.9035    4.1451   -0.1118 C   0  0  1  0  0  0  0  0  0  0  0  0
    4.5133    4.4163   -0.1946 O   0  0  0  0  0  0  0  0  0  0  0  0
    3.9213    4.2785    1.0935 C   0  0  1  0  0  0  0  0  0  0  0  0
    2.7405    3.4905    1.0003 O   0  0  0  0  0  0  0  0  0  0  0  0
    1.5070    4.1391    1.2656 C   0  0  2  0  0  0  0  0  0  0  0  0
    1.8049    5.6259    1.5165 C   0  0  1  0  0  0  0  0  0  0  0  0
    2.2154    6.2421    0.3061 O   0  0  0  0  0  0  0  0  0  0  0  0
    0.6058    6.4234    2.0516 C   0  0  2  0  0  0  0  0  0  0  0  0
    0.9887    7.8100    2.3594 N   0  0  0  0  0  0  0  0  0  0  0  0
    0.0644    5.7553    3.3100 C   0  0  0  0  0  0  0  0  0  0  0  0
   -0.2947    4.3057    3.0074 C   0  0  2  0  0  0  0  0  0  0  0  0
   -0.8628    3.7047    4.2189 N   0  0  0  0  0  0  0  0  0  0  0  0
    0.9494    3.5355    2.5146 C   0  0  1  0  0  0  0  0  0  0  0  0
    0.5004    2.1922    2.2789 O   0  0  0  0  0  0  0  0  0  0  0  0
    1.4750    1.2481    1.8482 C   0  0  1  0  0  0  0  0  0  0  0  0
    1.9293    0.4584    2.9440 O   0  0  0  0  0  0  0  0  0  0  0  0
    0.9838   -0.4535    3.4987 C   0  0  2  0  0  0  0  0  0  0  0  0
    1.6452   -1.2119    4.6572 C   0  0  0  0  0  0  0  0  0  0  0  0
    3.0371   -1.5272    4.3690 N   0  0  0  0  0  0  0  0  0  0  0  0
    0.4949   -1.4519    2.4329 C   0  0  1  0  0  0  0  0  0  0  0  0
   -0.4851   -2.3082    2.9922 O   0  0  0  0  0  0  0  0  0  0  0  0
   -0.1059   -0.6666    1.2604 C   0  0  2  0  0  0  0  0  0  0  0  0
   -0.4853   -1.5531    0.2244 O   0  0  0  0  0  0  0  0  0  0  0  0
    0.8948    0.3706    0.7333 C   0  0  1  0  0  0  0  0  0  0  0  0
    0.2633    1.2006   -0.3026 N   0  0  0  0  0  0  0  0  0  0  0  0
    4.9489    3.5607    1.9807 C   0  0  2  0  0  0  0  0  0  0  0  0
    5.4759    4.4653    2.9334 O   0  0  0  0  0  0  0  0  0  0  0  0
    5.9886    3.0751    0.9720 C   0  0  2  0  0  0  0  0  0  0  0  0
    7.2832    2.9209    1.5193 O   0  0  0  0  0  0  0  0  0  0  0  0
  2  1  1  0  0  0  0
  3  2  1  6  0  0  0
  3 30  1  0  0  0  0
  4  5  1  0  0  0  0
  4  3  1  0  0  0  0
  5 28  1  0  0  0  0
  5  6  1  6  0  0  0
  7  6  1  1  0  0  0
  8  7  1  0  0  0  0
  8  9  1  6  0  0  0
 10 11  1  1  0  0  0
 10  8  1  0  0  0  0
 12 10  1  0  0  0  0
 13 12  1  0  0  0  0
 13 15  1  0  0  0  0
 13 14  1  1  0  0  0
 15  7  1  0  0  0  0
 15 16  1  6  0  0  0
 17 16  1  1  0  0  0
 18 17  1  0  0  0  0
 19 20  1  1  0  0  0
 19 18  1  0  0  0  0
 20 21  1  0  0  0  0
 22 24  1  0  0  0  0
 22 19  1  0  0  0  0
 22 23  1  1  0  0  0
 24 25  1  6  0  0  0
 24 26  1  0  0  0  0
 26 17  1  0  0  0  0
 26 27  1  6  0  0  0
 28 29  1  1  0  0  0
 28 30  1  0  0  0  0
 30 31  1  1  0  0  0
M  END
>  <CHROM.1>
-164.01672441,153.54085318,-113.32957853,3.41084146,31.12917952,-101.58395917
85.66522701,60.98882033,99.07887175,-38.05944642,-53.68358540,-66.18008318
63.17275041,156.88525517,45.51294132,-70.61149305,2.35102422,2.62461373,1.72427460
-0.83307896,-0.36560448,3.08136628

>  <Name>
lig.pdb

>  <RI>
0

>  <Rbt.Current_Directory>
/home/itssahil/PROJECTS/Mol_Feturizer/New_Systems/rnas/2n0j

>  <Rbt.Executable>
rbdock ($Id: //depot/dev/client3/rdock/2013.1/src/exe/rbdock.cxx#4 $)

>  <Rbt.Library>
libRbt.so (2013.1, Build901 2013/11/27)

>  <Rbt.Parameter_File>
/export/apps/rDock/src/rDock_2013.1_src/data/scripts/dock_solv.prm

>  <Rbt.Receptor>
prm/blind_docking_60.prm

>  <SCORE>
-29.8559

>  <SCORE.INTER>
-49.1149

>  <SCORE.INTER.CONST>
1

>  <SCORE.INTER.POLAR>
-6.99021

>  <SCORE.INTER.ROT>
6

>  <SCORE.INTER.SOLV>
23.1515

>  <SCORE.INTER.VDW>
-24.7597

>  <SCORE.INTER.norm>
-1.58435

>  <SCORE.INTRA>
15.6639

>  <SCORE.INTRA.DIHEDRAL>
6.94483

>  <SCORE.INTRA.DIHEDRAL.0>
28.0161

>  <SCORE.INTRA.POLAR>
0.966851

>  <SCORE.INTRA.POLAR.0>
-1.05798

>  <SCORE.INTRA.REPUL>
0

>  <SCORE.INTRA.REPUL.0>
0

>  <SCORE.INTRA.SOLV>
-0.104434

>  <SCORE.INTRA.SOLV.lig_0>
-42.5945

>  <SCORE.INTRA.VDW>
8.95636

>  <SCORE.INTRA.VDW.0>
-5.13869

>  <SCORE.INTRA.norm>
0.505286

>  <SCORE.RESTR>
3.59509

>  <SCORE.RESTR.CAVITY>
3.59509

>  <SCORE.RESTR.norm>
0.115971

>  <SCORE.SYSTEM>
0

>  <SCORE.SYSTEM.CONST>
0

>  <SCORE.SYSTEM.DIHEDRAL>
0

>  <SCORE.SYSTEM.SOLV>
0

>  <SCORE.SYSTEM.norm>
0

>  <SCORE.heavy>
31

>  <SCORE.norm>
-0.963095

>  <RMSD>
8.024

$$$$
lig.pdb
 OpenBabel11021811453D
libRbt.so/2013.1/901 2013/11/27
 31 33  0  0  0  0  0  0  0  0999 V2000
    7.6472    4.5977   -1.9760 O   0  0  0  0  0  0  0  0  0  0  0  0
    6.6249    3.7545   -1.4821 C   0  0  0  0  0  0  0  0  0  0  0  0
    6.0107    4.3139   -0.1917 C   0  0  1  0  0  0  0  0  0  0  0  0
    4.6294    4.5990   -0.3454 O   0  0  0  0  0  0  0  0  0  0  0  0
    3.9816    4.5241    0.9209 C   0  0  1  0  0  0  0  0  0  0  0  0
    2.7944    3.7480    0.8106 O   0  0  0  0  0  0  0  0  0  0  0  0
    1.5679    4.3953    1.1100 C   0  0  2  0  0  0  0  0  0  0  0  0
    1.8825    5.8623    1.4433 C   0  0  1  0  0  0  0  0  0  0  0  0
    2.3024    6.5399    0.2695 O   0  0  0  0  0  0  0  0  0  0  0  0
    0.6917    6.6428    2.0203 C   0  0  2  0  0  0  0  0  0  0  0  0
    1.0900    8.0057    2.4051 N   0  0  0  0  0  0  0  0  0  0  0  0
    0.1403    5.9124    3.2391 C   0  0  0  0  0  0  0  0  0  0  0  0
   -0.2350    4.4860    2.8561 C   0  0  2  0  0  0  0  0  0  0  0  0
   -0.8123    3.8255    4.0317 N   0  0  0  0  0  0  0  0  0  0  0  0
    1.0010    3.7299    2.3229 C   0  0  1  0  0  0  0  0  0  0  0  0
    0.5370    2.4071    2.0125 O   0  0  0  0  0  0  0  0  0  0  0  0
    1.5178    1.4470    1.6343 C   0  0  1  0  0  0  0  0  0  0  0  0
    2.1635    0.9075    2.7844 O   0  0  0  0  0  0  0  0  0  0  0  0
    1.3657    0.0741    3.6225 C   0  0  2  0  0  0  0  0  0  0  0  0
    2.2219   -0.4124    4.7993 C   0  0  0  0  0  0  0  0  0  0  0  0
    1.4043   -0.9840    5.8598 N   0  0  0  0  0  0  0  0  0  0  0  0
    0.8233   -1.1343    2.8370 C   0  0  1  0  0  0  0  0  0  0  0  0
   -0.0122   -1.9139    3.6740 O   0  0  0  0  0  0  0  0  0  0  0  0
    0.0233   -0.6212    1.6331 C   0  0  2  0  0  0  0  0  0  0  0  0
   -0.4155   -1.7088    0.8410 O   0  0  0  0  0  0  0  0  0  0  0  0
    0.8697    0.3431    0.7912 C   0  0  1  0  0  0  0  0  0  0  0  0
    0.0533    0.9249   -0.2837 N   0  0  0  0  0  0  0  0  0  0  0  0
    4.9602    3.8320    1.8808 C   0  0  2  0  0  0  0  0  0  0  0  0
    5.4596    4.7698    2.8161 O   0  0  0  0  0  0  0  0  0  0  0  0
    6.0344    3.2903    0.9390 C   0  0  2  0  0  0  0  0  0  0  0  0
    7.3023    3.1432    1.5472 O   0  0  0  0  0  0  0  0  0  0  0  0
  2  1  1  0  0  0  0
  3  2  1  6  0  0  0
  3 30  1  0  0  0  0
  4  5  1  0  0  0  0
  4  3  1  0  0  0  0
  5 28  1  0  0  0  0
  5  6  1  6  0  0  0
  7  6  1  1  0  0  0
  8  7  1  0  0  0  0
  8  9  1  6  0  0  0
 10 11  1  1  0  0  0
 10  8  1  0  0  0  0
 12 10  1  0  0  0  0
 13 12  1  0  0  0  0
 13 15  1  0  0  0  0
 13 14  1  1  0  0  0
 15  7  1  0  0  0  0
 15 16  1  6  0  0  0
 17 16  1  1  0  0  0
 18 17  1  0  0  0  0
 19 20  1  1  0  0  0
 19 18  1  0  0  0  0
 20 21  1  0  0  0  0
 22 24  1  0  0  0  0
 22 19  1  0  0  0  0
 22 23  1  1  0  0  0
 24 25  1  6  0  0  0
 24 26  1  0  0  0  0
 26 17  1  0  0  0  0
 26 27  1  6  0  0  0
 28 29  1  1  0  0  0
 28 30  1  0  0  0  0
 30 31  1  1  0  0  0
M  END
>  <CHROM.1>
60.65847995,118.34477630,-118.70066803,2.08329974,-173.65003625,102.94544487
69.91450067,65.89600363,80.79438716,165.74051300,51.61377594,-155.39753882
177.68470015,17.86382245,-56.85030490,143.68683689,2.38395653,2.87216793
1.77578289,-0.83107061,-0.42484061,3.03650637

>  <Name>
lig.pdb

>  <RI>
1.79691e+07

>  <Rbt.Current_Directory>
/home/itssahil/PROJECTS/Mol_Feturizer/New_Systems/rnas/2n0j

>  <Rbt.Executable>
rbdock ($Id: //depot/dev/client3/rdock/2013.1/src/exe/rbdock.cxx#4 $)

>  <Rbt.Library>
libRbt.so (2013.1, Build901 2013/11/27)

>  <Rbt.Parameter_File>
/export/apps/rDock/src/rDock_2013.1_src/data/scripts/dock_solv.prm

>  <Rbt.Receptor>
prm/blind_docking_20.prm

>  <SCORE>
-21.6407

>  <SCORE.INTER>
-40.0372

>  <SCORE.INTER.CONST>
1

>  <SCORE.INTER.POLAR>
-5.43027

>  <SCORE.INTER.ROT>
6

>  <SCORE.INTER.SOLV>
20.8336

>  <SCORE.INTER.VDW>
-23.1351

>  <SCORE.INTER.norm>
-1.29152

>  <SCORE.INTRA>
14.2053

>  <SCORE.INTRA.DIHEDRAL>
8.35484

>  <SCORE.INTRA.DIHEDRAL.0>
28.0161

>  <SCORE.INTRA.POLAR>
0.370027

>  <SCORE.INTRA.POLAR.0>
-1.05798

>  <SCORE.INTRA.REPUL>
0

>  <SCORE.INTRA.REPUL.0>
0

>  <SCORE.INTRA.SOLV>
0.0851673

>  <SCORE.INTRA.SOLV.lig_0>
-42.5945

>  <SCORE.INTRA.VDW>
8.72716

>  <SCORE.INTRA.VDW.0>
-5.13869

>  <SCORE.INTRA.norm>
0.458234

>  <SCORE.RESTR>
4.19123

>  <SCORE.RESTR.CAVITY>
4.19123

>  <SCORE.RESTR.norm>
0.135201

>  <SCORE.SYSTEM>
0

>  <SCORE.SYSTEM.CONST>
0

>  <SCORE.SYSTEM.DIHEDRAL>
0

>  <SCORE.SYSTEM.SOLV>
0

>  <SCORE.SYSTEM.norm>
0

>  <SCORE.heavy>
31

>  <SCORE.norm>
-0.698087

>  <RMSD>
8.089

$$$$
lig.pdb
 OpenBabel11021811453D
libRbt.so/2013.1/901 2013/11/27
 31 33  0  0  0  0  0  0  0  0999 V2000
    7.9483    3.2414   -1.6623 O   0  0  0  0  0  0  0  0  0  0  0  0
    6.5691    3.5542   -1.6445 C   0  0  0  0  0  0  0  0  0  0  0  0
    6.1016    3.9496   -0.2373 C   0  0  1  0  0  0  0  0  0  0  0  0
    4.7040    4.1902   -0.1940 O   0  0  0  0  0  0  0  0  0  0  0  0
    4.2188    3.9565    1.1247 C   0  0  1  0  0  0  0  0  0  0  0  0
    3.0506    3.1463    1.0726 O   0  0  0  0  0  0  0  0  0  0  0  0
    1.8087    3.7845    1.3240 C   0  0  2  0  0  0  0  0  0  0  0  0
    2.1003    5.2505    1.6821 C   0  0  1  0  0  0  0  0  0  0  0  0
    2.5663    5.9397    0.5326 O   0  0  0  0  0  0  0  0  0  0  0  0
    0.8814    6.0199    2.2134 C   0  0  2  0  0  0  0  0  0  0  0  0
    1.2550    7.3817    2.6256 N   0  0  0  0  0  0  0  0  0  0  0  0
    0.2824    5.2767    3.4017 C   0  0  0  0  0  0  0  0  0  0  0  0
   -0.0679    3.8515    2.9918 C   0  0  2  0  0  0  0  0  0  0  0  0
   -0.6914    3.1784    4.1363 N   0  0  0  0  0  0  0  0  0  0  0  0
    1.1941    3.1063    2.5063 C   0  0  1  0  0  0  0  0  0  0  0  0
    0.7514    1.7836    2.1659 O   0  0  0  0  0  0  0  0  0  0  0  0
    1.6981    0.7284    2.2963 C   0  0  1  0  0  0  0  0  0  0  0  0
    1.9829    0.4746    3.6693 O   0  0  0  0  0  0  0  0  0  0  0  0
    0.9254   -0.0955    4.4375 C   0  0  2  0  0  0  0  0  0  0  0  0
    1.4114   -0.2980    5.8789 C   0  0  0  0  0  0  0  0  0  0  0  0
    2.7867   -0.7739    5.9213 N   0  0  0  0  0  0  0  0  0  0  0  0
    0.4811   -1.4445    3.8421 C   0  0  1  0  0  0  0  0  0  0  0  0
   -0.6072   -1.9617    4.5868 O   0  0  0  0  0  0  0  0  0  0  0  0
    0.0586   -1.2248    2.3842 C   0  0  2  0  0  0  0  0  0  0  0  0
   -0.2725   -2.4619    1.7817 O   0  0  0  0  0  0  0  0  0  0  0  0
    1.1765   -0.5306    1.5946 C   0  0  1  0  0  0  0  0  0  0  0  0
    0.7126   -0.2116    0.2368 N   0  0  0  0  0  0  0  0  0  0  0  0
    5.3278    3.2104    1.8807 C   0  0  2  0  0  0  0  0  0  0  0  0
    5.9102    4.0661    2.8462 O   0  0  0  0  0  0  0  0  0  0  0  0
    6.2940    2.8159    0.7648 C   0  0  2  0  0  0  0  0  0  0  0  0
    7.6307    2.6603    1.1986 O   0  0  0  0  0  0  0  0  0  0  0  0
  2  1  1  0  0  0  0
  3  2  1  6  0  0  0
  3 30  1  0  0  0  0
  4  5  1  0  0  0  0
  4  3  1  0  0  0  0
  5 28  1  0  0  0  0
  5  6  1  6  0  0  0
  7  6  1  1  0  0  0
  8  7  1  0  0  0  0
  8  9  1  6  0  0  0
 10 11  1  1  0  0  0
 10  8  1  0  0  0  0
 12 10  1  0  0  0  0
 13 12  1  0  0  0  0
 13 15  1  0  0  0  0
 13 14  1  1  0  0  0
 15  7  1  0  0  0  0
 15 16  1  6  0  0  0
 17 16  1  1  0  0  0
 18 17  1  0  0  0  0
 19 20  1  1  0  0  0
 19 18  1  0  0  0  0
 20 21  1  0  0  0  0
 22 24  1  0  0  0  0
 22 19  1  0  0  0  0
 22 23  1  1  0  0  0
 24 25  1  6  0  0  0
 24 26  1  0  0  0  0
 26 17  1  0  0  0  0
 26 27  1  6  0  0  0
 28 29  1  1  0  0  0
 28 30  1  0  0  0  0
 30 31  1  1  0  0  0
M  END
>  <CHROM.1>
57.98304786,-176.60070346,-106.20509648,-3.30423353,-175.35150446,89.99222488
-150.81791763,88.09825360,69.83246176,-39.95126992,17.90142044,57.14555727
62.85547186,-50.66444117,-59.14332081,65.86939142,2.54362947,2.33039734,2.11346771
-0.72978157,-0.47684533,3.00455591

>  <Name>
lig.pdb

>  <RI>
1.55206e+07

>  <Rbt.Current_Directory>
/home/itssahil/PROJECTS/Mol_Feturizer/New_Systems/rnas/2n0j

>  <Rbt.Executable>
rbdock ($Id: //depot/dev/client3/rdock/2013.1/src/exe/rbdock.cxx#4 $)

>  <Rbt.Library>
libRbt.so (2013.1, Build901 2013/11/27)

>  <Rbt.Parameter_File>
/export/apps/rDock/src/rDock_2013.1_src/data/scripts/dock_solv.prm

>  <Rbt.Receptor>
prm/blind_docking_80.prm

>  <SCORE>
-23.8524

>  <SCORE.INTER>
-35.7787

>  <SCORE.INTER.CONST>
1

>  <SCORE.INTER.POLAR>
-3.73969

>  <SCORE.INTER.ROT>
6

>  <SCORE.INTER.SOLV>
22.9329

>  <SCORE.INTER.VDW>
-26.6311

>  <SCORE.INTER.norm>
-1.15415

>  <SCORE.INTRA>
9.19576

>  <SCORE.INTRA.DIHEDRAL>
-2.18444

>  <SCORE.INTRA.DIHEDRAL.0>
28.0161

>  <SCORE.INTRA.POLAR>
0.545782

>  <SCORE.INTRA.POLAR.0>
-1.05798

>  <SCORE.INTRA.REPUL>
0

>  <SCORE.INTRA.REPUL.0>
0

>  <SCORE.INTRA.SOLV>
0.467207

>  <SCORE.INTRA.SOLV.lig_0>
-42.5945

>  <SCORE.INTRA.VDW>
8.19872

>  <SCORE.INTRA.VDW.0>
-5.13869

>  <SCORE.INTRA.norm>
0.296637

>  <SCORE.RESTR>
2.73053

>  <SCORE.RESTR.CAVITY>
2.73053

>  <SCORE.RESTR.norm>
0.0880815

>  <SCORE.SYSTEM>
0

>  <SCORE.SYSTEM.CONST>
0

>  <SCORE.SYSTEM.DIHEDRAL>
0

>  <SCORE.SYSTEM.SOLV>
0

>  <SCORE.SYSTEM.norm>
0

>  <SCORE.heavy>
31

>  <SCORE.norm>
-0.769433

>  <RMSD>
8.201

$$$$
lig.pdb
 OpenBabel11021811453D
libRbt.so/2013.1/901 2013/11/27
 31 33  0  0  0  0  0  0  0  0999 V2000
    7.8722    3.1605   -1.7935 O   0  0  0  0  0  0  0  0  0  0  0  0
    6.5078    3.5112   -1.6685 C   0  0  0  0  0  0  0  0  0  0  0  0
    6.1524    3.8752   -0.2205 C   0  0  1  0  0  0  0  0  0  0  0  0
    4.7831    4.2209   -0.0844 O   0  0  0  0  0  0  0  0  0  0  0  0
    4.3550    3.9638    1.2496 C   0  0  1  0  0  0  0  0  0  0  0  0
    3.1247    3.2498    1.2325 O   0  0  0  0  0  0  0  0  0  0  0  0
    1.9359    4.0047    1.4051 C   0  0  2  0  0  0  0  0  0  0  0  0
    2.3430    5.4432    1.7617 C   0  0  1  0  0  0  0  0  0  0  0  0
    2.9348    6.0665    0.6327 O   0  0  0  0  0  0  0  0  0  0  0  0
    1.1738    6.3313    2.2135 C   0  0  2  0  0  0  0  0  0  0  0  0
    1.6497    7.6595    2.6301 N   0  0  0  0  0  0  0  0  0  0  0  0
    0.4426    5.6674    3.3744 C   0  0  0  0  0  0  0  0  0  0  0  0
   -0.0162    4.2740    2.9621 C   0  0  2  0  0  0  0  0  0  0  0  0
   -0.7627    3.6813    4.0771 N   0  0  0  0  0  0  0  0  0  0  0  0
    1.1957    3.4068    2.5583 C   0  0  1  0  0  0  0  0  0  0  0  0
    0.6508    2.1252    2.2089 O   0  0  0  0  0  0  0  0  0  0  0  0
    1.5708    1.1169    1.8046 C   0  0  1  0  0  0  0  0  0  0  0  0
    2.0107    0.3576    2.9273 O   0  0  0  0  0  0  0  0  0  0  0  0
    1.0355   -0.4819    3.5419 C   0  0  2  0  0  0  0  0  0  0  0  0
    1.6851   -1.2170    4.7218 C   0  0  0  0  0  0  0  0  0  0  0  0
    1.7998   -0.3596    5.8929 N   0  0  0  0  0  0  0  0  0  0  0  0
    0.4781   -1.5036    2.5334 C   0  0  1  0  0  0  0  0  0  0  0  0
   -0.5289   -2.2856    3.1507 O   0  0  0  0  0  0  0  0  0  0  0  0
   -0.1100   -0.7452    1.3370 C   0  0  2  0  0  0  0  0  0  0  0  0
   -0.5522   -1.6592    0.3511 O   0  0  0  0  0  0  0  0  0  0  0  0
    0.9268    0.2179    0.7431 C   0  0  1  0  0  0  0  0  0  0  0  0
    0.3131    1.0286   -0.3184 N   0  0  0  0  0  0  0  0  0  0  0  0
    5.4412    3.0995    1.9064 C   0  0  2  0  0  0  0  0  0  0  0  0
    6.1430    3.8614    2.8710 O   0  0  0  0  0  0  0  0  0  0  0  0
    6.3091    2.6842    0.7195 C   0  0  2  0  0  0  0  0  0  0  0  0
    7.6512    2.4055    1.0664 O   0  0  0  0  0  0  0  0  0  0  0  0
  2  1  1  0  0  0  0
  3  2  1  6  0  0  0
  3 30  1  0  0  0  0
  4  5  1  0  0  0  0
  4  3  1  0  0  0  0
  5 28  1  0  0  0  0
  5  6  1  6  0  0  0
  7  6  1  1  0  0  0
  8  7  1  0  0  0  0
  8  9  1  6  0  0  0
 10 11  1  1  0  0  0
 10  8  1  0  0  0  0
 12 10  1  0  0  0  0
 13 12  1  0  0  0  0
 13 15  1  0  0  0  0
 13 14  1  1  0  0  0
 15  7  1  0  0  0  0
 15 16  1  6  0  0  0
 17 16  1  1  0  0  0
 18 17  1  0  0  0  0
 19 20  1  1  0  0  0
 19 18  1  0  0  0  0
 20 21  1  0  0  0  0
 22 24  1  0  0  0  0
 22 19  1  0  0  0  0
 22 23  1  1  0  0  0
 24 25  1  6  0  0  0
 24 26  1  0  0  0  0
 26 17  1  0  0  0  0
 26 27  1  6  0  0  0
 28 29  1  1  0  0  0
 28 30  1  0  0  0  0
 30 31  1  1  0  0  0
M  END
>  <CHROM.1>
-68.42504937,-179.65511567,-97.89362964,-7.52365032,60.34106174,-27.28361361
82.28714397,59.75589024,90.38939835,78.60623013,-55.90624805,70.09574790
174.15302216,35.44025198,-164.46243400,-55.78651864,2.54673593,2.48507999
1.79990158,-0.64914921,-0.45307343,-3.10648682

>  <Name>
lig.pdb

>  <RI>
9.20816e+06

>  <Rbt.Current_Directory>
/home/itssahil/PROJECTS/Mol_Feturizer/New_Systems/rnas/2n0j

>  <Rbt.Executable>
rbdock ($Id: //depot/dev/client3/rdock/2013.1/src/exe/rbdock.cxx#4 $)

>  <Rbt.Library>
libRbt.so (2013.1, Build901 2013/11/27)

>  <Rbt.Parameter_File>
/export/apps/rDock/src/rDock_2013.1_src/data/scripts/dock_solv.prm

>  <Rbt.Receptor>
prm/blind_docking_100.prm

>  <SCORE>
-28.5767

>  <SCORE.INTER>
-41.4978

>  <SCORE.INTER.CONST>
1

>  <SCORE.INTER.POLAR>
-5.56345

>  <SCORE.INTER.ROT>
6

>  <SCORE.INTER.SOLV>
24.04

>  <SCORE.INTER.VDW>
-24.7337

>  <SCORE.INTER.norm>
-1.33864

>  <SCORE.INTRA>
9.38744

>  <SCORE.INTRA.DIHEDRAL>
-4.27119

>  <SCORE.INTRA.DIHEDRAL.0>
28.0161

>  <SCORE.INTRA.POLAR>
0.714722

>  <SCORE.INTRA.POLAR.0>
-1.05798

>  <SCORE.INTRA.REPUL>
0

>  <SCORE.INTRA.REPUL.0>
0

>  <SCORE.INTRA.SOLV>
-0.0296153

>  <SCORE.INTRA.SOLV.lig_0>
-42.5945

>  <SCORE.INTRA.VDW>
9.10779

>  <SCORE.INTRA.VDW.0>
-5.13869

>  <SCORE.INTRA.norm>
0.302821

>  <SCORE.RESTR>
3.53365

>  <SCORE.RESTR.CAVITY>
3.53365

>  <SCORE.RESTR.norm>
0.113989

>  <SCORE.SYSTEM>
0

>  <SCORE.SYSTEM.CONST>
0

>  <SCORE.SYSTEM.DIHEDRAL>
0

>  <SCORE.SYSTEM.SOLV>
0

>  <SCORE.SYSTEM.norm>
0

>  <SCORE.heavy>
31

>  <SCORE.norm>
-0.92183

>  <RMSD>
8.206

$$$$
lig.pdb
 OpenBabel11021811453D
libRbt.so/2013.1/901 2013/11/27
 31 33  0  0  0  0  0  0  0  0999 V2000
    7.1638    5.0479   -2.4221 O   0  0  0  0  0  0  0  0  0  0  0  0
    6.7548    3.8535   -1.7846 C   0  0  0  0  0  0  0  0  0  0  0  0
    6.3427    4.1075   -0.3283 C   0  0  1  0  0  0  0  0  0  0  0  0
    4.9738    4.4651   -0.2222 O   0  0  0  0  0  0  0  0  0  0  0  0
    4.4851    4.1103    1.0678 C   0  0  1  0  0  0  0  0  0  0  0  0
    3.2467    3.4215    0.9423 O   0  0  0  0  0  0  0  0  0  0  0  0
    2.0620    4.1893    1.0826 C   0  0  2  0  0  0  0  0  0  0  0  0
    2.4674    5.6712    1.1256 C   0  0  1  0  0  0  0  0  0  0  0  0
    2.9391    6.0750   -0.1503 O   0  0  0  0  0  0  0  0  0  0  0  0
    1.3247    6.6223    1.5124 C   0  0  2  0  0  0  0  0  0  0  0  0
    1.8066    8.0074    1.6280 N   0  0  0  0  0  0  0  0  0  0  0  0
    0.7180    6.1838    2.8401 C   0  0  0  0  0  0  0  0  0  0  0  0
    0.2551    4.7355    2.7392 C   0  0  2  0  0  0  0  0  0  0  0  0
   -0.3726    4.3583    4.0102 N   0  0  0  0  0  0  0  0  0  0  0  0
    1.4442    3.8142    2.3914 C   0  0  1  0  0  0  0  0  0  0  0  0
    0.8987    2.4871    2.3394 O   0  0  0  0  0  0  0  0  0  0  0  0
    1.7283    1.4649    1.7976 C   0  0  1  0  0  0  0  0  0  0  0  0
    2.6242    0.9666    2.7874 O   0  0  0  0  0  0  0  0  0  0  0  0
    2.0369    0.2193    3.8504 C   0  0  2  0  0  0  0  0  0  0  0  0
    3.1448   -0.2337    4.8107 C   0  0  0  0  0  0  0  0  0  0  0  0
    4.2900   -0.7762    4.0939 N   0  0  0  0  0  0  0  0  0  0  0  0
    1.2837   -1.0087    3.3061 C   0  0  1  0  0  0  0  0  0  0  0  0
    0.6611   -1.7008    4.3738 O   0  0  0  0  0  0  0  0  0  0  0  0
    0.2243   -0.5332    2.3041 C   0  0  2  0  0  0  0  0  0  0  0  0
   -0.4269   -1.6456    1.7198 O   0  0  0  0  0  0  0  0  0  0  0  0
    0.8613    0.3422    1.2165 C   0  0  1  0  0  0  0  0  0  0  0  0
   -0.1801    0.8945    0.3385 N   0  0  0  0  0  0  0  0  0  0  0  0
    5.5298    3.1778    1.6981 C   0  0  2  0  0  0  0  0  0  0  0  0
    6.2001    3.8482    2.7491 O   0  0  0  0  0  0  0  0  0  0  0  0
    6.4420    2.8430    0.5190 C   0  0  2  0  0  0  0  0  0  0  0  0
    7.7639    2.5142    0.8982 O   0  0  0  0  0  0  0  0  0  0  0  0
  2  1  1  0  0  0  0
  3  2  1  6  0  0  0
  3 30  1  0  0  0  0
  4  5  1  0  0  0  0
  4  3  1  0  0  0  0
  5 28  1  0  0  0  0
  5  6  1  6  0  0  0
  7  6  1  1  0  0  0
  8  7  1  0  0  0  0
  8  9  1  6  0  0  0
 10 11  1  1  0  0  0
 10  8  1  0  0  0  0
 12 10  1  0  0  0  0
 13 12  1  0  0  0  0
 13 15  1  0  0  0  0
 13 14  1  1  0  0  0
 15  7  1  0  0  0  0
 15 16  1  6  0  0  0
 17 16  1  1  0  0  0
 18 17  1  0  0  0  0
 19 20  1  1  0  0  0
 19 18  1  0  0  0  0
 20 21  1  0  0  0  0
 22 24  1  0  0  0  0
 22 19  1  0  0  0  0
 22 23  1  1  0  0  0
 24 25  1  6  0  0  0
 24 26  1  0  0  0  0
 26 17  1  0  0  0  0
 26 27  1  1  0  0  0
 28 29  1  1  0  0  0
 28 30  1  0  0  0  0
 30 31  1  1  0  0  0
M  END
>  <CHROM.1>
68.22655150,87.60816351,-95.93244634,8.79304922,-167.84752322,-170.62978970
-38.08227061,47.95420611,82.97059647,-45.55933962,-158.67944483,-174.32342378
-57.54980459,-55.37647363,-166.07515194,-150.35313371,2.88309291,2.81045105
1.71269616,-0.88823327,-0.34739117,2.87261719

>  <Name>
lig.pdb

>  <RI>
0

>  <Rbt.Current_Directory>
/home/itssahil/PROJECTS/Mol_Feturizer/New_Systems/rnas/2n0j

>  <Rbt.Executable>
rbdock ($Id: //depot/dev/client3/rdock/2013.1/src/exe/rbdock.cxx#4 $)

>  <Rbt.Library>
libRbt.so (2013.1, Build901 2013/11/27)

>  <Rbt.Parameter_File>
/export/apps/rDock/src/rDock_2013.1_src/data/scripts/dock_solv.prm

>  <Rbt.Receptor>
prm/blind_docking_60.prm

>  <SCORE>
-43.4928

>  <SCORE.INTER>
-58.4488

>  <SCORE.INTER.CONST>
1

>  <SCORE.INTER.POLAR>
-8.50175

>  <SCORE.INTER.ROT>
6

>  <SCORE.INTER.SOLV>
23.806

>  <SCORE.INTER.VDW>
-26.1621

>  <SCORE.INTER.norm>
-1.88545

>  <SCORE.INTRA>
10.3145

>  <SCORE.INTRA.DIHEDRAL>
-2.23868

>  <SCORE.INTRA.DIHEDRAL.0>
28.0161

>  <SCORE.INTRA.POLAR>
0.968707

>  <SCORE.INTRA.POLAR.0>
-1.05798

>  <SCORE.INTRA.REPUL>
0

>  <SCORE.INTRA.REPUL.0>
0

>  <SCORE.INTRA.SOLV>
-0.321307

>  <SCORE.INTRA.SOLV.lig_0>
-42.5945

>  <SCORE.INTRA.VDW>
8.30084

>  <SCORE.INTRA.VDW.0>
-5.13869

>  <SCORE.INTRA.norm>
0.332724

>  <SCORE.RESTR>
4.64159

>  <SCORE.RESTR.CAVITY>
4.64159

>  <SCORE.RESTR.norm>
0.149729

>  <SCORE.SYSTEM>
0

>  <SCORE.SYSTEM.CONST>
0

>  <SCORE.SYSTEM.DIHEDRAL>
0

>  <SCORE.SYSTEM.SOLV>
0

>  <SCORE.SYSTEM.norm>
0

>  <SCORE.heavy>
31

>  <SCORE.norm>
-1.40299

>  <RMSD>
8.211

$$$$
lig.pdb
 OpenBabel11021811453D
libRbt.so/2013.1/901 2013/11/27
 31 33  0  0  0  0  0  0  0  0999 V2000
    8.1856    2.6058    0.3850 O   0  0  0  0  0  0  0  0  0  0  0  0
    6.9717    2.8670   -0.2919 C   0  0  0  0  0  0  0  0  0  0  0  0
    6.4457    4.2742    0.0220 C   0  0  1  0  0  0  0  0  0  0  0  0
    5.0924    4.4320   -0.3738 O   0  0  0  0  0  0  0  0  0  0  0  0
    4.4745    5.4373    0.4240 C   0  0  1  0  0  0  0  0  0  0  0  0
    3.2192    4.9696    0.9028 O   0  0  0  0  0  0  0  0  0  0  0  0
    2.1062    5.8370    0.7548 C   0  0  2  0  0  0  0  0  0  0  0  0
    2.6391    7.2779    0.7090 C   0  0  1  0  0  0  0  0  0  0  0  0
    3.3478    7.4872   -0.5024 O   0  0  0  0  0  0  0  0  0  0  0  0
    1.5450    8.3532    0.7901 C   0  0  2  0  0  0  0  0  0  0  0  0
    2.1320    9.7013    0.8388 N   0  0  0  0  0  0  0  0  0  0  0  0
    0.6921    8.1261    2.0327 C   0  0  0  0  0  0  0  0  0  0  0  0
    0.1153    6.7159    2.0083 C   0  0  2  0  0  0  0  0  0  0  0  0
   -0.7432    6.5443    3.1852 N   0  0  0  0  0  0  0  0  0  0  0  0
    1.2514    5.6712    1.9702 C   0  0  1  0  0  0  0  0  0  0  0  0
    0.5973    4.3931    1.9666 O   0  0  0  0  0  0  0  0  0  0  0  0
    1.0271    3.4410    2.9337 C   0  0  1  0  0  0  0  0  0  0  0  0
    0.0123    3.2219    3.9099 O   0  0  0  0  0  0  0  0  0  0  0  0
   -1.1612    2.5487    3.4591 C   0  0  2  0  0  0  0  0  0  0  0  0
   -2.1332    2.4014    4.6373 C   0  0  0  0  0  0  0  0  0  0  0  0
   -1.6441    3.0831    5.8272 N   0  0  0  0  0  0  0  0  0  0  0  0
   -0.8127    1.1594    2.8932 C   0  0  1  0  0  0  0  0  0  0  0  0
   -1.9846    0.5356    2.3993 O   0  0  0  0  0  0  0  0  0  0  0  0
    0.2054    1.3302    1.7589 C   0  0  2  0  0  0  0  0  0  0  0  0
    0.6126    0.0638    1.2757 O   0  0  0  0  0  0  0  0  0  0  0  0
    1.4221    2.1329    2.2389 C   0  0  1  0  0  0  0  0  0  0  0  0
    2.3282    2.3986    1.1125 N   0  0  0  0  0  0  0  0  0  0  0  0
    5.4115    5.7004    1.6119 C   0  0  2  0  0  0  0  0  0  0  0  0
    6.0190    6.9712    1.4720 O   0  0  0  0  0  0  0  0  0  0  0  0
    6.4064    4.5443    1.5228 C   0  0  2  0  0  0  0  0  0  0  0  0
    7.6714    4.8384    2.0816 O   0  0  0  0  0  0  0  0  0  0  0  0
  2  1  1  0  0  0  0
  3  2  1  1  0  0  0
  3 30  1  0  0  0  0
  4  5  1  0  0  0  0
  4  3  1  0  0  0  0
  5 28  1  0  0  0  0
  5  6  1  1  0  0  0
  7  6  1  1  0  0  0
  8  7  1  0  0  0  0
  8  9  1  6  0  0  0
 10 11  1  1  0  0  0
 10  8  1  0  0  0  0
 12 10  1  0  0  0  0
 13 12  1  0  0  0  0
 13 15  1  0  0  0  0
 13 14  1  1  0  0  0
 15  7  1  0  0  0  0
 15 16  1  6  0  0  0
 17 16  1  6  0  0  0
 18 17  1  0  0  0  0
 19 20  1  1  0  0  0
 19 18  1  0  0  0  0
 20 21  1  0  0  0  0
 22 24  1  0  0  0  0
 22 19  1  0  0  0  0
 22 23  1  6  0  0  0
 24 25  1  1  0  0  0
 24 26  1  0  0  0  0
 26 17  1  0  0  0  0
 26 27  1  6  0  0  0
 28 29  1  6  0  0  0
 28 30  1  0  0  0  0
 30 31  1  6  0  0  0
M  END
>  <CHROM.1>
67.97643452,-165.59392637,-131.85556884,-25.83965360,-174.75728115,63.48463779
-176.51879673,110.48722884,111.00928696,5.06983772,-117.03789594,66.44062622
-174.93796745,147.66386855,-51.69083297,-179.89096869,2.32823377,4.48138201
1.74662186,-0.41141171,-0.33680094,3.03902487

>  <Name>
lig.pdb

>  <RI>
0

>  <Rbt.Current_Directory>
/home/itssahil/PROJECTS/Mol_Feturizer/New_Systems/rnas/2n0j

>  <Rbt.Executable>
rbdock ($Id: //depot/dev/client3/rdock/2013.1/src/exe/rbdock.cxx#4 $)

>  <Rbt.Library>
libRbt.so (2013.1, Build901 2013/11/27)

>  <Rbt.Parameter_File>
/export/apps/rDock/src/rDock_2013.1_src/data/scripts/dock_solv.prm

>  <Rbt.Receptor>
prm/pocket_docking_8.prm

>  <SCORE>
-41.4176

>  <SCORE.INTER>
-52.6975

>  <SCORE.INTER.CONST>
1

>  <SCORE.INTER.POLAR>
-7.24938

>  <SCORE.INTER.ROT>
6

>  <SCORE.INTER.SOLV>
16.5515

>  <SCORE.INTER.VDW>
-24.0842

>  <SCORE.INTER.norm>
-1.69992

>  <SCORE.INTRA>
11.2799

>  <SCORE.INTRA.DIHEDRAL>
9.34841

>  <SCORE.INTRA.DIHEDRAL.0>
28.0161

>  <SCORE.INTRA.POLAR>
-0.308852

>  <SCORE.INTRA.POLAR.0>
-1.05798

>  <SCORE.INTRA.REPUL>
0

>  <SCORE.INTRA.REPUL.0>
0

>  <SCORE.INTRA.SOLV>
1.28518

>  <SCORE.INTRA.SOLV.lig_0>
-42.5945

>  <SCORE.INTRA.VDW>
7.0132

>  <SCORE.INTRA.VDW.0>
-5.13869

>  <SCORE.INTRA.norm>
0.363868

>  <SCORE.RESTR>
0

>  <SCORE.RESTR.CAVITY>
0

>  <SCORE.RESTR.norm>
0

>  <SCORE.SYSTEM>
0

>  <SCORE.SYSTEM.CONST>
0

>  <SCORE.SYSTEM.DIHEDRAL>
0

>  <SCORE.SYSTEM.SOLV>
0

>  <SCORE.SYSTEM.norm>
0

>  <SCORE.heavy>
31

>  <SCORE.norm>
-1.33605

>  <RMSD>
8.544

$$$$
lig.pdb
 OpenBabel11021811453D
libRbt.so/2013.1/901 2013/11/27
 31 33  0  0  0  0  0  0  0  0999 V2000
    7.1637    2.2915    0.6348 O   0  0  0  0  0  0  0  0  0  0  0  0
    7.5904    3.0989   -0.4450 C   0  0  0  0  0  0  0  0  0  0  0  0
    6.9663    4.4994   -0.3793 C   0  0  1  0  0  0  0  0  0  0  0  0
    5.5643    4.4628   -0.5937 O   0  0  0  0  0  0  0  0  0  0  0  0
    4.9536    5.5817    0.0417 C   0  0  1  0  0  0  0  0  0  0  0  0
    3.8257    5.1527    0.7951 O   0  0  0  0  0  0  0  0  0  0  0  0
    2.6270    5.8969    0.6464 C   0  0  2  0  0  0  0  0  0  0  0  0
    3.0072    7.3836    0.5600 C   0  0  1  0  0  0  0  0  0  0  0  0
    3.6732    7.6362   -0.6672 O   0  0  0  0  0  0  0  0  0  0  0  0
    1.8089    8.3420    0.6354 C   0  0  2  0  0  0  0  0  0  0  0  0
    2.2538    9.7442    0.6447 N   0  0  0  0  0  0  0  0  0  0  0  0
    1.0016    8.0575    1.8965 C   0  0  0  0  0  0  0  0  0  0  0  0
    0.5736    6.5952    1.9128 C   0  0  2  0  0  0  0  0  0  0  0  0
   -0.2459    6.3637    3.1072 N   0  0  0  0  0  0  0  0  0  0  0  0
    1.8111    5.6726    1.8790 C   0  0  1  0  0  0  0  0  0  0  0  0
    1.2928    4.3341    1.9144 O   0  0  0  0  0  0  0  0  0  0  0  0
    1.6203    3.5407    3.0501 C   0  0  1  0  0  0  0  0  0  0  0  0
    0.5106    3.4531    3.9398 O   0  0  0  0  0  0  0  0  0  0  0  0
   -0.6110    2.7042    3.4766 C   0  0  2  0  0  0  0  0  0  0  0  0
   -1.6989    2.7179    4.5587 C   0  0  0  0  0  0  0  0  0  0  0  0
   -1.7484    3.9950    5.2561 N   0  0  0  0  0  0  0  0  0  0  0  0
   -0.2076    1.2520    3.1605 C   0  0  1  0  0  0  0  0  0  0  0  0
   -1.3232    0.5456    2.6476 O   0  0  0  0  0  0  0  0  0  0  0  0
    0.9216    1.2686    2.1226 C   0  0  2  0  0  0  0  0  0  0  0  0
    1.3751   -0.0491    1.8756 O   0  0  0  0  0  0  0  0  0  0  0  0
    2.0833    2.1506    2.5999 C   0  0  1  0  0  0  0  0  0  0  0  0
    3.1004    2.2607    1.5444 N   0  0  0  0  0  0  0  0  0  0  0  0
    6.0034    6.1840    0.9868 C   0  0  2  0  0  0  0  0  0  0  0  0
    6.4529    7.4255    0.4766 O   0  0  0  0  0  0  0  0  0  0  0  0
    7.0930    5.1132    1.0114 C   0  0  2  0  0  0  0  0  0  0  0  0
    8.3822    5.6200    1.2946 O   0  0  0  0  0  0  0  0  0  0  0  0
  2  1  1  0  0  0  0
  3  2  1  1  0  0  0
  3 30  1  0  0  0  0
  4  5  1  0  0  0  0
  4  3  1  0  0  0  0
  5 28  1  0  0  0  0
  5  6  1  1  0  0  0
  7  6  1  1  0  0  0
  8  7  1  0  0  0  0
  8  9  1  6  0  0  0
 10 11  1  1  0  0  0
 10  8  1  0  0  0  0
 12 10  1  0  0  0  0
 13 12  1  0  0  0  0
 13 15  1  0  0  0  0
 13 14  1  1  0  0  0
 15  7  1  0  0  0  0
 15 16  1  6  0  0  0
 17 16  1  6  0  0  0
 18 17  1  0  0  0  0
 19 20  1  1  0  0  0
 19 18  1  0  0  0  0
 20 21  1  0  0  0  0
 22 24  1  0  0  0  0
 22 19  1  0  0  0  0
 22 23  1  6  0  0  0
 24 25  1  1  0  0  0
 24 26  1  0  0  0  0
 26 17  1  0  0  0  0
 26 27  1  6  0  0  0
 28 29  1  6  0  0  0
 28 30  1  0  0  0  0
 30 31  1  6  0  0  0
M  END
>  <CHROM.1>
-72.69848434,-67.29619253,-133.17534208,-39.25937067,-167.76853507,65.72907703
81.37194005,123.01659480,103.38771878,36.20983544,71.49790164,-65.47069868
68.58869658,102.37730192,66.53340445,63.76451510,2.77641628,4.62042190,1.63811858
-0.47092681,-0.37810690,2.99074121

>  <Name>
lig.pdb

>  <RI>
3.32461e+07

>  <Rbt.Current_Directory>
/home/itssahil/PROJECTS/Mol_Feturizer/New_Systems/rnas/2n0j

>  <Rbt.Executable>
rbdock ($Id: //depot/dev/client3/rdock/2013.1/src/exe/rbdock.cxx#4 $)

>  <Rbt.Library>
libRbt.so (2013.1, Build901 2013/11/27)

>  <Rbt.Parameter_File>
/export/apps/rDock/src/rDock_2013.1_src/data/scripts/dock_solv.prm

>  <Rbt.Receptor>
prm/pocket_docking_7.prm

>  <SCORE>
-38.8814

>  <SCORE.INTER>
-43.9868

>  <SCORE.INTER.CONST>
1

>  <SCORE.INTER.POLAR>
-5.07257

>  <SCORE.INTER.ROT>
6

>  <SCORE.INTER.SOLV>
16.4599

>  <SCORE.INTER.VDW>
-25.5026

>  <SCORE.INTER.norm>
-1.41893

>  <SCORE.INTRA>
5.10539

>  <SCORE.INTRA.DIHEDRAL>
2.12581

>  <SCORE.INTRA.DIHEDRAL.0>
28.0161

>  <SCORE.INTRA.POLAR>
-0.507113

>  <SCORE.INTRA.POLAR.0>
-1.05798

>  <SCORE.INTRA.REPUL>
0

>  <SCORE.INTRA.REPUL.0>
0

>  <SCORE.INTRA.SOLV>
1.76295

>  <SCORE.INTRA.SOLV.lig_0>
-42.5945

>  <SCORE.INTRA.VDW>
4.8852

>  <SCORE.INTRA.VDW.0>
-5.13869

>  <SCORE.INTRA.norm>
0.16469

>  <SCORE.RESTR>
0

>  <SCORE.RESTR.CAVITY>
0

>  <SCORE.RESTR.norm>
0

>  <SCORE.SYSTEM>
0

>  <SCORE.SYSTEM.CONST>
0

>  <SCORE.SYSTEM.DIHEDRAL>
0

>  <SCORE.SYSTEM.SOLV>
0

>  <SCORE.SYSTEM.norm>
0

>  <SCORE.heavy>
31

>  <SCORE.norm>
-1.25424

>  <RMSD>
8.822

$$$$
lig.pdb
 OpenBabel11021811453D
libRbt.so/2013.1/901 2013/11/27
 31 33  0  0  0  0  0  0  0  0999 V2000
    9.0737    2.0263    0.0537 O   0  0  0  0  0  0  0  0  0  0  0  0
    8.7261    2.5179   -1.2260 C   0  0  0  0  0  0  0  0  0  0  0  0
    7.4600    3.3835   -1.1696 C   0  0  1  0  0  0  0  0  0  0  0  0
    6.5367    2.9055   -0.2042 O   0  0  0  0  0  0  0  0  0  0  0  0
    5.7200    3.9803    0.2501 C   0  0  1  0  0  0  0  0  0  0  0  0
    5.6561    3.9707    1.6713 O   0  0  0  0  0  0  0  0  0  0  0  0
    4.3685    4.0489    2.2618 C   0  0  2  0  0  0  0  0  0  0  0  0
    3.4949    2.9563    1.6252 C   0  0  1  0  0  0  0  0  0  0  0  0
    3.9436    1.6785    2.0485 O   0  0  0  0  0  0  0  0  0  0  0  0
    2.0043    3.0588    1.9826 C   0  0  2  0  0  0  0  0  0  0  0  0
    1.2179    2.0444    1.2638 N   0  0  0  0  0  0  0  0  0  0  0  0
    1.4851    4.4475    1.6291 C   0  0  0  0  0  0  0  0  0  0  0  0
    2.3231    5.5044    2.3381 C   0  0  2  0  0  0  0  0  0  0  0  0
    1.7682    6.8254    2.0240 N   0  0  0  0  0  0  0  0  0  0  0  0
    3.8035    5.3891    1.9152 C   0  0  1  0  0  0  0  0  0  0  0  0
    4.4875    6.4331    2.6249 O   0  0  0  0  0  0  0  0  0  0  0  0
    5.7632    6.8265    2.1303 C   0  0  1  0  0  0  0  0  0  0  0  0
    5.6273    7.5672    0.9205 O   0  0  0  0  0  0  0  0  0  0  0  0
    5.0386    8.8608    1.0361 C   0  0  2  0  0  0  0  0  0  0  0  0
    4.9761    9.5046   -0.3555 C   0  0  0  0  0  0  0  0  0  0  0  0
    4.3816    8.6085   -1.3370 N   0  0  0  0  0  0  0  0  0  0  0  0
    5.8577    9.7527    1.9875 C   0  0  1  0  0  0  0  0  0  0  0  0
    5.2219   11.0103    2.1314 O   0  0  0  0  0  0  0  0  0  0  0  0
    5.9563    9.0585    3.3516 C   0  0  2  0  0  0  0  0  0  0  0  0
    6.7777    9.8126    4.2232 O   0  0  0  0  0  0  0  0  0  0  0  0
    6.5098    7.6356    3.1968 C   0  0  1  0  0  0  0  0  0  0  0  0
    6.4794    6.9384    4.4905 N   0  0  0  0  0  0  0  0  0  0  0  0
    6.3886    5.2785   -0.2250 C   0  0  2  0  0  0  0  0  0  0  0  0
    5.6185    5.8653   -1.2576 O   0  0  0  0  0  0  0  0  0  0  0  0
    7.7619    4.8014   -0.6950 C   0  0  2  0  0  0  0  0  0  0  0  0
    8.3399    5.6236   -1.6895 O   0  0  0  0  0  0  0  0  0  0  0  0
  2  1  1  0  0  0  0
  3  2  1  1  0  0  0
  3 30  1  0  0  0  0
  4  5  1  0  0  0  0
  4  3  1  0  0  0  0
  5 28  1  0  0  0  0
  5  6  1  1  0  0  0
  7  6  1  6  0  0  0
  8  7  1  0  0  0  0
  8  9  1  1  0  0  0
 10 11  1  6  0  0  0
 10  8  1  0  0  0  0
 12 10  1  0  0  0  0
 13 12  1  0  0  0  0
 13 15  1  0  0  0  0
 13 14  1  6  0  0  0
 15  7  1  0  0  0  0
 15 16  1  1  0  0  0
 17 16  1  1  0  0  0
 18 17  1  0  0  0  0
 19 20  1  6  0  0  0
 19 18  1  0  0  0  0
 20 21  1  0  0  0  0
 22 24  1  0  0  0  0
 22 19  1  0  0  0  0
 22 23  1  1  0  0  0
 24 25  1  1  0  0  0
 24 26  1  0  0  0  0
 26 17  1  0  0  0  0
 26 27  1  1  0  0  0
 28 29  1  6  0  0  0
 28 30  1  0  0  0  0
 30 31  1  6  0  0  0
M  END
>  <CHROM.1>
-172.12386061,-34.88271919,-130.17689570,51.97318680,-169.11145857,68.30918206
-178.68314362,77.97034230,72.65757333,50.07295685,-70.93407635,-179.10070656
-59.80222194,-163.57351094,51.40868992,66.66917658,5.25780758,5.75938555
1.18458297,-1.56956529,0.44926448,0.27431900

>  <Name>
lig.pdb

>  <RI>
0

>  <Rbt.Current_Directory>
/home/itssahil/PROJECTS/Mol_Feturizer/New_Systems/rnas/2n0j

>  <Rbt.Executable>
rbdock ($Id: //depot/dev/client3/rdock/2013.1/src/exe/rbdock.cxx#4 $)

>  <Rbt.Library>
libRbt.so (2013.1, Build901 2013/11/27)

>  <Rbt.Parameter_File>
/export/apps/rDock/src/rDock_2013.1_src/data/scripts/dock_solv.prm

>  <Rbt.Receptor>
prm/pocket_docking_8.prm

>  <SCORE>
-33.7102

>  <SCORE.INTER>
-30.4568

>  <SCORE.INTER.CONST>
1

>  <SCORE.INTER.POLAR>
-2.62641

>  <SCORE.INTER.ROT>
6

>  <SCORE.INTER.SOLV>
16.0585

>  <SCORE.INTER.VDW>
-24.5027

>  <SCORE.INTER.norm>
-0.982478

>  <SCORE.INTRA>
-3.25341

>  <SCORE.INTRA.DIHEDRAL>
-13.5626

>  <SCORE.INTRA.DIHEDRAL.0>
28.0161

>  <SCORE.INTRA.POLAR>
0.0318046

>  <SCORE.INTRA.POLAR.0>
-1.05798

>  <SCORE.INTRA.REPUL>
0

>  <SCORE.INTRA.REPUL.0>
0

>  <SCORE.INTRA.SOLV>
1.41298

>  <SCORE.INTRA.SOLV.lig_0>
-42.5945

>  <SCORE.INTRA.VDW>
2.71328

>  <SCORE.INTRA.VDW.0>
-5.13869

>  <SCORE.INTRA.norm>
-0.104949

>  <SCORE.RESTR>
0

>  <SCORE.RESTR.CAVITY>
0

>  <SCORE.RESTR.norm>
0

>  <SCORE.SYSTEM>
0

>  <SCORE.SYSTEM.CONST>
0

>  <SCORE.SYSTEM.DIHEDRAL>
0

>  <SCORE.SYSTEM.SOLV>
0

>  <SCORE.SYSTEM.norm>
0

>  <SCORE.heavy>
31

>  <SCORE.norm>
-1.08743

>  <RMSD>
8.971

$$$$
lig.pdb
 OpenBabel11021811453D
libRbt.so/2013.1/901 2013/11/27
 31 33  0  0  0  0  0  0  0  0999 V2000
    1.2382    2.4921    1.9479 O   0  0  0  0  0  0  0  0  0  0  0  0
    2.3576    3.3463    1.8166 C   0  0  0  0  0  0  0  0  0  0  0  0
    2.0537    4.7548    2.3448 C   0  0  1  0  0  0  0  0  0  0  0  0
    3.2363    5.4468    2.7130 O   0  0  0  0  0  0  0  0  0  0  0  0
    3.0205    6.8510    2.6117 C   0  0  1  0  0  0  0  0  0  0  0  0
    4.0994    7.4557    1.9089 O   0  0  0  0  0  0  0  0  0  0  0  0
    5.2326    7.8415    2.6704 C   0  0  2  0  0  0  0  0  0  0  0  0
    5.0202    9.2953    3.1212 C   0  0  1  0  0  0  0  0  0  0  0  0
    3.9780    9.3504    4.0825 O   0  0  0  0  0  0  0  0  0  0  0  0
    6.2612    9.9422    3.7550 C   0  0  2  0  0  0  0  0  0  0  0  0
    6.0152   11.3575    4.0722 N   0  0  0  0  0  0  0  0  0  0  0  0
    7.4424    9.8347    2.7980 C   0  0  0  0  0  0  0  0  0  0  0  0
    7.6755    8.3738    2.4326 C   0  0  2  0  0  0  0  0  0  0  0  0
    8.8492    8.2951    1.5564 N   0  0  0  0  0  0  0  0  0  0  0  0
    6.4181    7.7806    1.7613 C   0  0  1  0  0  0  0  0  0  0  0  0
    6.7555    6.4204    1.4491 O   0  0  0  0  0  0  0  0  0  0  0  0
    6.0399    5.8017    0.3852 C   0  0  1  0  0  0  0  0  0  0  0  0
    6.5488    6.2250   -0.8767 O   0  0  0  0  0  0  0  0  0  0  0  0
    7.8584    5.7716   -1.2126 C   0  0  2  0  0  0  0  0  0  0  0  0
    8.2350    6.3205   -2.5952 C   0  0  0  0  0  0  0  0  0  0  0  0
    7.1836    6.0821   -3.5737 N   0  0  0  0  0  0  0  0  0  0  0  0
    7.9185    4.2329   -1.2278 C   0  0  1  0  0  0  0  0  0  0  0  0
    9.2408    3.8077   -1.5058 O   0  0  0  0  0  0  0  0  0  0  0  0
    7.4795    3.7086    0.1451 C   0  0  2  0  0  0  0  0  0  0  0  0
    7.4398    2.2939    0.1360 O   0  0  0  0  0  0  0  0  0  0  0  0
    6.1065    4.2770    0.5286 C   0  0  1  0  0  0  0  0  0  0  0  0
    5.7558    3.8702    1.8968 N   0  0  0  0  0  0  0  0  0  0  0  0
    1.7190    7.0448    1.8200 C   0  0  2  0  0  0  0  0  0  0  0  0
    0.6981    7.5129    2.6814 O   0  0  0  0  0  0  0  0  0  0  0  0
    1.4461    5.6470    1.2669 C   0  0  2  0  0  0  0  0  0  0  0  0
    0.0778    5.3902    1.0200 O   0  0  0  0  0  0  0  0  0  0  0  0
  2  1  1  0  0  0  0
  3  2  1  6  0  0  0
  3 30  1  0  0  0  0
  4  5  1  0  0  0  0
  4  3  1  0  0  0  0
  5 28  1  0  0  0  0
  5  6  1  6  0  0  0
  7  6  1  6  0  0  0
  8  7  1  0  0  0  0
  8  9  1  1  0  0  0
 10 11  1  6  0  0  0
 10  8  1  0  0  0  0
 12 10  1  0  0  0  0
 13 12  1  0  0  0  0
 13 15  1  0  0  0  0
 13 14  1  6  0  0  0
 15  7  1  0  0  0  0
 15 16  1  1  0  0  0
 17 16  1  1  0  0  0
 18 17  1  0  0  0  0
 19 20  1  6  0  0  0
 19 18  1  0  0  0  0
 20 21  1  0  0  0  0
 22 24  1  0  0  0  0
 22 19  1  0  0  0  0
 22 23  1  1  0  0  0
 24 25  1  6  0  0  0
 24 26  1  0  0  0  0
 26 17  1  0  0  0  0
 26 27  1  1  0  0  0
 28 29  1  1  0  0  0
 28 30  1  0  0  0  0
 30 31  1  1  0  0  0
M  END
>  <CHROM.1>
57.01300261,156.82469354,-86.85135393,-90.91854382,-178.37890287,60.72651002
-162.85294550,83.82575526,78.50086899,-49.35054308,138.39309441,-64.18508973
57.51762832,65.03683643,77.32647504,-75.80398482,5.25384798,6.32909643,1.27525663
2.61143607,0.36744734,0.54741815

>  <Name>
lig.pdb

>  <RI>
0

>  <Rbt.Current_Directory>
/home/itssahil/PROJECTS/Mol_Feturizer/New_Systems/rnas/2n0j

>  <Rbt.Executable>
rbdock ($Id: //depot/dev/client3/rdock/2013.1/src/exe/rbdock.cxx#4 $)

>  <Rbt.Library>
libRbt.so (2013.1, Build901 2013/11/27)

>  <Rbt.Parameter_File>
/export/apps/rDock/src/rDock_2013.1_src/data/scripts/dock_solv.prm

>  <Rbt.Receptor>
prm/pocket_docking_8.prm

>  <SCORE>
-38.3935

>  <SCORE.INTER>
-34.959

>  <SCORE.INTER.CONST>
1

>  <SCORE.INTER.POLAR>
-4.2707

>  <SCORE.INTER.ROT>
6

>  <SCORE.INTER.SOLV>
18.9846

>  <SCORE.INTER.VDW>
-22.9985

>  <SCORE.INTER.norm>
-1.12771

>  <SCORE.INTRA>
-3.43454

>  <SCORE.INTRA.DIHEDRAL>
-8.56019

>  <SCORE.INTRA.DIHEDRAL.0>
28.0161

>  <SCORE.INTRA.POLAR>
-0.145041

>  <SCORE.INTRA.POLAR.0>
-1.05798

>  <SCORE.INTRA.REPUL>
0

>  <SCORE.INTRA.REPUL.0>
0

>  <SCORE.INTRA.SOLV>
0.254239

>  <SCORE.INTRA.SOLV.lig_0>
-42.5945

>  <SCORE.INTRA.VDW>
1.21158

>  <SCORE.INTRA.VDW.0>
-5.13869

>  <SCORE.INTRA.norm>
-0.110792

>  <SCORE.RESTR>
0

>  <SCORE.RESTR.CAVITY>
0

>  <SCORE.RESTR.norm>
0

>  <SCORE.SYSTEM>
0

>  <SCORE.SYSTEM.CONST>
0

>  <SCORE.SYSTEM.DIHEDRAL>
0

>  <SCORE.SYSTEM.SOLV>
0

>  <SCORE.SYSTEM.norm>
0

>  <SCORE.heavy>
31

>  <SCORE.norm>
-1.2385

>  <RMSD>
9.235

$$$$
