@<TRIPOS>MOLECULE
2n0j_rdock.pdb
 853 916 0 0 0
SMALL
GASTEIGER

@<TRIPOS>ATOM
      1  O5'      -15.0140   -9.0870   -3.0290 O.3     1  G1         -0.3924
      2  C5'      -14.4340   -8.2340   -2.0520 C.3     1  G1          0.0730
      3  C4'      -14.9120   -8.6070   -0.6460 C.3     1  G1          0.1133
      4  O4'      -14.9040  -10.0140   -0.4720 O.3     1  G1         -0.3456
      5  C3'      -13.9980   -8.0580    0.4400 C.3     1  G1          0.1241
      6  O3'      -14.3470   -6.7380    0.7940 O.3     1  G1         -0.3187
      7  C2'      -14.2320   -9.0540    1.5680 C.3     1  G1          0.1292
      8  O2'      -15.4610   -8.8270    2.2420 O.3     1  G1         -0.3846
      9  C1'      -14.3320  -10.3550    0.7780 C.3     1  G1          0.1667
     10   N9      -13.0150  -10.9750    0.5570 N.ar    1  G1         -0.2854
     11   C8      -12.3480  -11.1640   -0.6260 C.ar    1  G1          0.1005
     12   N7      -11.2710  -11.8860   -0.5190 N.ar    1  G1         -0.2286
     13   C5      -11.2030  -12.1810    0.8380 C.ar    1  G1          0.1721
     14   C6      -10.2800  -13.0130    1.5440 C.ar    1  G1          0.2803
     15   O6       -9.3470  -13.6820    1.0900 O.2     1  G1         -0.2654
     16   N.1     -10.5810  -13.1020    2.8940 N.ar    1  G1         -0.2934
     17   C.2     -11.6720  -12.5080    3.4880 C.ar    1  G1          0.1950
     18   N.2     -11.8450  -12.6740    4.7900 N.pl3   1  G1         -0.3289
     19   N.3     -12.6010  -11.7980    2.8280 N.ar    1  G1         -0.1963
     20   C4      -12.2900  -11.6540    1.5040 C.ar    1  G1          0.1712
     21  H5'      -14.6890   -7.1940   -2.2630 H       1  G1          0.0584
     22 H5''      -13.3480   -8.3370   -2.1020 H       1  G1          0.0584
     23  H4'      -15.9300   -8.2390   -0.4880 H       1  G1          0.0647
     24  H3'      -12.9580   -8.1150    0.1040 H       1  G1          0.0655
     25  H2'      -13.3970   -9.0630    2.2680 H       1  G1          0.0666
     26 HO2'      -15.5930   -9.5980    2.8250 H       1  G1          0.2101
     27  H1'      -14.9480  -11.0840    1.3000 H       1  G1          0.0866
     28   H8      -12.7170  -10.7840   -1.5680 H       1  G1          0.1030
     29   H1       -9.9230  -13.6400    3.4420 H       1  G1          0.1716
     30  H21      -11.1250  -13.1600    5.3270 H       1  G1          0.1451
     31  H22      -12.7010  -12.3730    5.2360 H       1  G1          0.1451
     32 HO5'      -15.2250   -9.9340   -2.6300 H       1  G1          0.2095
     33    P.3    -13.2250   -5.7330    1.2920 P.3     2  G2          0.2131
     34  OP1      -13.9570   -4.5020    1.6760 O.3     2  G2         -0.4373
     35  OP2      -12.2250   -5.6430    0.2320 O.2     2  G2         -0.5172
     36  O5'      -12.6100   -6.4000    2.6050 O.3     2  G2         -0.3248
     37  C5'      -13.3520   -6.4240    3.8080 C.3     2  G2          0.0837
     38  C4'      -12.6600   -7.2200    4.9120 C.3     2  G2          0.1139
     39  O4'      -12.4060   -8.5650    4.5330 O.3     2  G2         -0.3456
     40  C3'      -11.3370   -6.6730    5.4140 C.3     2  G2          0.1241
     41  O3'      -11.5900   -5.6980    6.4100 O.3     2  G2         -0.3187
     42  C2'      -10.7570   -7.9010    6.1120 C.3     2  G2          0.1292
     43  O2'      -11.3110   -7.9930    7.4120 O.3     2  G2         -0.3846
     44  C1'      -11.2680   -9.0460    5.2450 C.3     2  G2          0.1667
     45   N9      -10.2260   -9.4870    4.3120 N.ar    2  G2         -0.2854
     46   C8      -10.1670   -9.3140    2.9610 C.ar    2  G2          0.1005
     47   N7       -9.2080   -9.9970    2.3960 N.ar    2  G2         -0.2286
     48   C5       -8.5410  -10.6110    3.4580 C.ar    2  G2          0.1721
     49   C6       -7.4210  -11.5070    3.4960 C.ar    2  G2          0.2803
     50   O6       -6.7760  -12.0300    2.5890 O.2     2  G2         -0.2654
     51   N.1      -7.0530  -11.8200    4.7920 N.ar    2  G2         -0.2934
     52   C.2      -7.6980  -11.4000    5.9250 C.ar    2  G2          0.1950
     53   N.2      -7.2050  -11.7900    7.0950 N.pl3   2  G2         -0.3289
     54   N.3      -8.8030  -10.6490    5.9150 N.ar    2  G2         -0.1963
     55   C4       -9.1560  -10.2690    4.6460 C.ar    2  G2          0.1712
     56  H5'      -14.3320   -6.8620    3.6160 H       2  G2          0.0591
     57 H5''      -13.4950   -5.4000    4.1570 H       2  G2          0.0591
     58  H4'      -13.3210   -7.2300    5.7720 H       2  G2          0.0647
     59  H3'      -10.6990   -6.3260    4.5990 H       2  G2          0.0655
     60  H2'       -9.6660   -7.8620    6.1530 H       2  G2          0.0666
     61 HO2'      -11.5940   -7.0790    7.5830 H       2  G2          0.2101
     62  H1'      -11.5290   -9.9020    5.8650 H       2  G2          0.0866
     63   H8      -10.8960   -8.6980    2.4490 H       2  G2          0.1030
     64   H1       -6.1910  -12.3330    4.8670 H       2  G2          0.1716
     65  H21       -6.3130  -12.2730    7.1180 H       2  G2          0.1451
     66  H22       -7.6470  -11.4590    7.9360 H       2  G2          0.1451
     67    P.3    -10.9400   -4.2600    6.3560 P.3     3  C.3         0.2131
     68  OP1      -11.5180   -3.5660    7.5360 O.3     3  C.3        -0.4373
     69  OP2      -11.1660   -3.6680    5.0250 O.2     3  C.3        -0.5172
     70  O5'       -9.3940   -4.5750    6.6080 O.3     3  C.3        -0.3248
     71  C5'       -8.8100   -4.3710    7.8820 C.3     3  C.3         0.0837
     72  C4'       -7.6990   -5.3490    8.2520 C.3     3  C.3         0.1139
     73  O4'       -7.8720   -6.6250    7.6590 O.3     3  C.3        -0.3456
     74  C3'       -6.2690   -4.9320    7.9630 C.3     3  C.3         0.1241
     75  O3'       -5.8170   -4.0750    9.0150 O.3     3  C.3        -0.3187
     76  C2'       -5.5720   -6.2870    8.0780 C.3     3  C.3         0.1293
     77  O2'       -5.3850   -6.5000    9.4630 O.3     3  C.3        -0.3846
     78  C1'       -6.6020   -7.2700    7.5260 C.3     3  C.3         0.1680
     79   N.1      -6.3000   -7.6340    6.1140 N.ar    3  C.3        -0.2700
     80   C.2      -5.3590   -8.6460    5.8790 C.ar    3  C.3         0.3522
     81   O.2      -4.7300   -9.1830    6.8030 O.2     3  C.3        -0.2444
     82   N.3      -5.1330   -9.0680    4.6080 N.ar    3  C.3        -0.1783
     83   C4       -5.7770   -8.4980    3.5770 C.ar    3  C.3         0.1230
     84   N.4      -5.5510   -8.9870    2.3710 N.pl3   3  C.3        -0.3430
     85   C5       -6.7280   -7.4430    3.7860 C.ar    3  C.3        -0.0056
     86   C6       -6.9540   -7.0390    5.0600 C.ar    3  C.3         0.0152
     87  H5'       -9.5810   -4.5260    8.6310 H       3  C.3         0.0591
     88 H5''       -8.4510   -3.3440    7.9720 H       3  C.3         0.0591
     89  H4'       -7.7490   -5.4610    9.3390 H       3  C.3         0.0647
     90  H3'       -6.1810   -4.5070    6.9600 H       3  C.3         0.0655
     91  H2'       -4.6230   -6.3100    7.5410 H       3  C.3         0.0666
     92 HO2'       -5.3860   -5.5830    9.7930 H       3  C.3         0.2101
     93  H1'       -6.5700   -8.1890    8.1140 H       3  C.3         0.0867
     94  H41       -4.9310   -9.7830    2.2330 H       3  C.3         0.1437
     95  H42       -6.0030   -8.6030    1.5540 H       3  C.3         0.1437
     96   H5       -7.2630   -6.9570    2.9800 H       3  C.3         0.0666
     97   H6       -7.6710   -6.2460    5.2550 H       3  C.3         0.0812
     98    P.3     -4.5080   -3.1640    8.9130 P.3     4  U4          0.2131
     99  OP1       -4.3980   -2.4670   10.2160 O.3     4  U4         -0.4373
    100  OP2       -4.5650   -2.3950    7.6610 O.2     4  U4         -0.5172
    101  O5'       -3.3070   -4.2050    8.8010 O.3     4  U4         -0.3248
    102  C5'       -2.6690   -4.7580    9.9350 C.3     4  U4          0.0837
    103  C4'       -1.6230   -5.7870    9.5020 C.3     4  U4          0.1139
    104  O4'       -2.1460   -6.6680    8.5200 O.3     4  U4         -0.3456
    105  C3'       -0.3890   -5.1520    8.8800 C.3     4  U4          0.1241
    106  O3'        0.5170   -4.7260    9.8940 O.3     4  U4         -0.3187
    107  C2'        0.1500   -6.3160    8.0380 C.3     4  U4          0.1293
    108  O2'        0.8700   -7.2810    8.7970 O.3     4  U4         -0.3846
    109  C1'       -1.1320   -7.0060    7.5750 C.3     4  U4          0.1680
    110   N.1      -1.5020   -6.6700    6.1750 N.ar    4  U4         -0.2715
    111   C.2      -0.8970   -7.4160    5.1590 C.ar    4  U4          0.3314
    112   O.2       0.1210   -8.0900    5.3380 O.2     4  U4         -0.2464
    113   N.3      -1.5270   -7.4000    3.9280 N.ar    4  U4         -0.2749
    114   C4       -2.6650   -6.6840    3.6080 C.ar    4  U4          0.2539
    115   O4       -3.1980   -6.8360    2.5140 O.2     4  U4         -0.2677
    116   C5       -3.1340   -5.8190    4.6690 C.ar    4  U4          0.0192
    117   C6       -2.5440   -5.8220    5.8870 C.ar    4  U4          0.0171
    118  H5'       -3.4060   -5.2300   10.5810 H       4  U4          0.0591
    119 H5''       -2.1730   -3.9640   10.4890 H       4  U4          0.0591
    120  H4'       -1.3060   -6.3630   10.3690 H       4  U4          0.0647
    121  H3'       -0.7040   -4.3200    8.2490 H       4  U4          0.0655
    122  H2'        0.7510   -5.9570    7.2010 H       4  U4          0.0666
    123 HO2'        1.4410   -7.7470    8.1560 H       4  U4          0.2101
    124  H1'       -0.9770   -8.0860    7.5950 H       4  U4          0.0867
    125   H3       -1.1140   -7.9450    3.1830 H       4  U4          0.1734
    126   H5       -3.9480   -5.1350    4.4940 H       4  U4          0.0686
    127   H6       -2.9040   -5.1400    6.6400 H       4  U4          0.0813
    128    P.3      1.7240   -3.7170    9.6190 P.3     5  G5          0.2131
    129  OP1        2.4500   -3.6000   10.9110 O.3     5  G5         -0.4373
    130  OP2        1.1990   -2.4680    9.0440 O.2     5  G5         -0.5172
    131  O5'        2.6890   -4.3880    8.5430 O.3     5  G5         -0.3248
    132  C5'        3.5150   -5.4810    8.8870 C.3     5  G5          0.0837
    133  C4'        4.2830   -6.0490    7.6990 C.3     5  G5          0.1139
    134  O4'        3.4520   -6.2910    6.5780 O.3     5  G5         -0.3456
    135  C3'        5.3310   -5.0560    7.2360 C.3     5  G5          0.1241
    136  O3'        6.5220   -5.7550    6.8790 O.3     5  G5         -0.3187
    137  C2'        4.7020   -4.3860    6.0260 C.3     5  G5          0.1292
    138  O2'        5.7130   -3.8810    5.1840 O.3     5  G5         -0.3846
    139  C1'        3.9100   -5.5470    5.4490 C.3     5  G5          0.1667
    140   N9        2.7590   -5.1220    4.6260 N.ar    5  G5         -0.2854
    141   C8        1.7190   -4.3020    4.9690 C.ar    5  G5          0.1005
    142   N7        0.7270   -4.3240    4.1200 N.ar    5  G5         -0.2286
    143   C5        1.1980   -5.1060    3.0670 C.ar    5  G5          0.1721
    144   C6        0.5960   -5.4650    1.8110 C.ar    5  G5          0.2803
    145   O6       -0.5460   -5.2510    1.3870 O.2     5  G5         -0.2654
    146   N.1       1.4680   -6.1860    1.0040 N.ar    5  G5         -0.2934
    147   C.2       2.7230   -6.6000    1.3820 C.ar    5  G5          0.1950
    148   N.2       3.4450   -7.2990    0.5180 N.pl3   5  G5         -0.3289
    149   N.3       3.2710   -6.3460    2.5800 N.ar    5  G5         -0.1963
    150   C4        2.4650   -5.5690    3.3630 C.ar    5  G5          0.1712
    151  H5'        2.9270   -6.2650    9.3530 H       5  G5          0.0591
    152 H5''        4.2410   -5.1400    9.6180 H       5  G5          0.0591
    153  H4'        4.7660   -6.9750    8.0190 H       5  G5          0.0647
    154  H3'        5.5080   -4.3020    7.9960 H       5  G5          0.0655
    155  H2'        4.0260   -3.5900    6.3470 H       5  G5          0.0666
    156 HO2'        6.4400   -4.5210    5.1790 H       5  G5          0.2101
    157  H1'        4.5720   -6.1600    4.8350 H       5  G5          0.0866
    158   H8        1.7350   -3.7410    5.8900 H       5  G5          0.1030
    159   H1        1.1380   -6.3860    0.0700 H       5  G5          0.1716
    160  H21        3.0900   -7.4810   -0.4200 H       5  G5          0.1451
    161  H22        4.3180   -7.7230    0.8250 H       5  G5          0.1451
    162    P.3      7.6330   -6.1270    7.9720 P.3     6  C6          0.2131
    163  OP1        8.4420   -7.2220    7.4110 O.2     6  C6         -0.5172
    164  OP2        7.0090   -6.2880    9.3090 O.3     6  C6         -0.4373
    165  O5'        8.5750   -4.8440    8.0180 O.3     6  C6         -0.3248
    166  C5'        7.9970   -3.5630    7.9750 C.3     6  C6          0.0837
    167  C4'        9.0160   -2.4380    7.9870 C.3     6  C6          0.1139
    168  O4'        8.5460   -1.3890    7.1460 O.3     6  C6         -0.3456
    169  C3'        9.1680   -1.8130    9.3590 C.3     6  C6          0.1241
    170  O3'       10.2660   -2.3090   10.0990 O.3     6  C6         -0.3187
    171  C2'        9.2920   -0.3450    8.9750 C.3     6  C6          0.1293
    172  O2'       10.5480   -0.0530    8.3710 O.3     6  C6         -0.3846
    173  C1'        8.2420   -0.2050    7.8900 C.3     6  C6          0.1680
    174   N.1       6.8340   -0.1680    8.4100 N.ar    6  C6         -0.2700
    175   C.2       6.4250    0.7340    9.4080 C.ar    6  C6          0.3522
    176   O.2       7.1730    1.5990    9.8820 O.2     6  C6         -0.2444
    177   N.3       5.1730    0.6200    9.9480 N.ar    6  C6         -0.1783
    178   C4        4.3210   -0.3120    9.4870 C.ar    6  C6          0.1230
    179   N.4       3.1280   -0.4170   10.0520 N.pl3   6  C6         -0.3430
    180   C5        4.6820   -1.1700    8.4070 C.ar    6  C6         -0.0056
    181   C6        5.9210   -1.0360    7.8870 C.ar    6  C6          0.0152
    182  H5'        7.2900   -3.4460    8.7960 H       6  C6          0.0591
    183 H5''        7.4610   -3.4800    7.0330 H       6  C6          0.0591
    184  H4'        9.9790   -2.7960    7.6200 H       6  C6          0.0647
    185  H3'        8.2480   -1.9490    9.9230 H       6  C6          0.0655
    186  H2'        9.0370    0.2770    9.8110 H       6  C6          0.0666
    187 HO2'       10.4870   -0.3740    7.4520 H       6  C6          0.2101
    188  H1'        8.3990    0.6910    7.2820 H       6  C6          0.0867
    189  H41        2.8360    0.2070   10.7960 H       6  C6          0.1437
    190  H42        2.4680   -1.1050    9.6920 H       6  C6          0.1437
    191   H5        4.0180   -1.8930    7.9740 H       6  C6          0.0666
    192   H6        6.2340   -1.6270    7.0480 H       6  C6          0.0812
    193    P.3     10.3210   -2.1590   11.6860 P.3     7  U7          0.2131
    194  OP1       11.5460   -2.8400   12.1450 O.2     7  U7         -0.5172
    195  OP2        9.0220   -2.5610   12.2620 O.3     7  U7         -0.4373
    196  O5'       10.5060   -0.6130   11.9770 O.3     7  U7         -0.3248
    197  C5'       11.6620    0.0440   11.5220 C.3     7  U7          0.0837
    198  C4'       11.5870    1.5400   11.8170 C.3     7  U7          0.1139
    199  O4'       12.3110    1.7900   13.0080 O.3     7  U7         -0.3456
    200  C3'       12.2640    2.3530   10.7280 C.3     7  U7          0.1241
    201  O3'       11.3220    2.8020    9.7570 O.3     7  U7         -0.3187
    202  C2'       12.9080    3.5040   11.4940 C.3     7  U7          0.1293
    203  O2'       11.9930    4.5740   11.6260 O.3     7  U7         -0.3846
    204  C1'       13.2430    2.8450   12.8310 C.3     7  U7          0.1680
    205   N.1      14.6600    2.3720   12.9000 N.ar    7  U7         -0.2715
    206   C.2      15.5540    3.1230   13.6730 C.ar    7  U7          0.3314
    207   O.2      15.2270    4.1230   14.3250 O.2     7  U7         -0.2464
    208   N.3      16.8780    2.7210   13.6670 N.ar    7  U7         -0.2749
    209   C4       17.4100    1.6880   12.9220 C.ar    7  U7          0.2539
    210   O4       18.6270    1.4930   12.9320 O.2     7  U7         -0.2677
    211   C5       16.4290    0.9330   12.1730 C.ar    7  U7          0.0192
    212   C6       15.1160    1.2790   12.1840 C.ar    7  U7          0.0171
    213  H5'       11.7660   -0.1200   10.4540 H       7  U7          0.0591
    214 H5''       12.5330   -0.3900   12.0130 H       7  U7          0.0591
    215  H4'       10.5520    1.8730   11.9280 H       7  U7          0.0647
    216  H3'       13.0490    1.7630   10.2570 H       7  U7          0.0655
    217  H2'       13.8070    3.8500   10.9800 H       7  U7          0.0666
    218 HO2'       11.7580    4.8020   10.6980 H       7  U7          0.2101
    219  H1'       13.0790    3.5720   13.6250 H       7  U7          0.0867
    220   H3       17.5210    3.2340   14.2590 H       7  U7          0.1734
    221   H5       16.7550    0.0890   11.5790 H       7  U7          0.0686
    222   H6       14.4280    0.6810   11.6050 H       7  U7          0.0813
    223    P.3     11.8070    3.6480    8.5040 P.3     8  U8          0.2131
    224  OP1       13.0110    2.9650    7.9850 O.2     8  U8         -0.5172
    225  OP2       11.9130    5.0390    8.9900 O.3     8  U8         -0.4373
    226  O5'       10.6450    3.5860    7.4140 O.3     8  U8         -0.3248
    227  C5'       10.7860    2.7650    6.2660 C.3     8  U8          0.0837
    228  C4'        9.6570    3.0020    5.2520 C.3     8  U8          0.1139
    229  O4'        9.5670    4.3860    4.9420 O.3     8  U8         -0.3456
    230  C3'        9.9780    2.3200    3.9240 C.3     8  U8          0.1241
    231  O3'        8.8210    2.0830    3.1580 O.3     8  U8         -0.3187
    232  C2'       10.8100    3.3610    3.2080 C.3     8  U8          0.1293
    233  O2'       10.7080    3.1310    1.8190 O.3     8  U8         -0.3846
    234  C1'       10.1690    4.6650    3.6800 C.3     8  U8          0.1680
    235   N.1      11.2140    5.7160    3.7670 N.ar    8  U8         -0.2715
    236   C.2      11.5870    6.3730    2.5880 C.ar    8  U8          0.3314
    237   O.2      10.9420    6.3120    1.5390 O.2     8  U8         -0.2464
    238   N.3      12.7330    7.1490    2.6560 N.ar    8  U8         -0.2749
    239   C4       13.5000    7.3590    3.7870 C.ar    8  U8          0.2539
    240   O4       14.5140    8.0520    3.7430 O.2     8  U8         -0.2677
    241   C5       13.0200    6.6930    4.9760 C.ar    8  U8          0.0192
    242   C6       11.9120    5.9150    4.9390 C.ar    8  U8          0.0171
    243  H5'       10.7870    1.7220    6.5680 H       8  U8          0.0591
    244 H5''       11.7450    2.9820    5.7950 H       8  U8          0.0591
    245  H4'        8.7120    2.6310    5.6570 H       8  U8          0.0647
    246  H3'       10.5400    1.4000    4.0550 H       8  U8          0.0655
    247  H2'       11.8430    3.2980    3.5450 H       8  U8          0.0666
    248 HO2'        9.8850    2.6190    1.7150 H       8  U8          0.2101
    249  H1'        9.3900    4.9600    2.9720 H       8  U8          0.0867
    250   H3       13.0250    7.5890    1.7980 H       8  U8          0.1734
    251   H5       13.5460    6.8190    5.9110 H       8  U8          0.0686
    252   H6       11.5890    5.4240    5.8440 H       8  U8          0.0813
    253    P.3      7.9430    0.7820    3.3900 P.3     9  G9          0.2131
    254  OP1        6.5500    1.1980    3.1480 O.2     9  G9         -0.5172
    255  OP2        8.3740    0.1940    4.6810 O.3     9  G9         -0.4373
    256  O5'        8.4690   -0.0970    2.1620 O.3     9  G9         -0.3248
    257  C5'        9.5320   -1.0290    2.2800 C.3     9  G9          0.0837
    258  C4'        9.2800   -2.2810    1.4380 C.3     9  G9          0.1139
    259  O4'        8.1450   -3.0050    1.8770 O.3     9  G9         -0.3456
    260  C3'        9.0380   -1.9710   -0.0340 C.3     9  G9          0.1241
    261  O3'       10.2670   -1.9330   -0.7660 O.3     9  G9         -0.3187
    262  C2'        8.2870   -3.2260   -0.4660 C.3     9  G9          0.1292
    263  O2'        9.2630   -4.1970   -0.7930 O.3     9  G9         -0.3846
    264  C1'        7.4810   -3.6240    0.7750 C.3     9  G9          0.1667
    265   N9        6.0360   -3.2610    0.7940 N.ar    9  G9         -0.2854
    266   C8        5.3020   -2.8590    1.8860 C.ar    9  G9          0.1005
    267   N7        4.0190   -2.7960    1.6820 N.ar    9  G9         -0.2286
    268   C5        3.8740   -3.1430    0.3470 C.ar    9  G9          0.1721
    269   C6        2.6950   -3.2010   -0.4640 C.ar    9  G9          0.2803
    270   O6        1.5240   -3.0010   -0.1450 O.2     9  G9         -0.2654
    271   N.1       2.9710   -3.5440   -1.7780 N.ar    9  G9         -0.2934
    272   C.2       4.2060   -3.9500   -2.2260 C.ar    9  G9          0.1950
    273   N.2       4.3170   -4.3680   -3.4850 N.pl3   9  G9         -0.3289
    274   N.3       5.3120   -3.9660   -1.4670 N.ar    9  G9         -0.1963
    275   C4        5.0950   -3.5020   -0.1930 C.ar    9  G9          0.1712
    276  H5'        9.6140   -1.3590    3.3120 H       9  G9          0.0591
    277 H5''       10.4690   -0.5560    1.9950 H       9  G9          0.0591
    278  H4'       10.1620   -2.9250    1.5080 H       9  G9          0.0647
    279  H3'        8.4200   -1.0840   -0.1720 H       9  G9          0.0655
    280  H2'        7.6540   -3.0130   -1.3280 H       9  G9          0.0666
    281 HO2'        9.9680   -3.6460   -1.1760 H       9  G9          0.2101
    282  H1'        7.5250   -4.7120    0.8750 H       9  G9          0.0866
    283   H8        5.7420   -2.6420    2.8500 H       9  G9          0.1030
    284   H1        2.1670   -3.4630   -2.3930 H       9  G9          0.1716
    285  H21        3.4760   -4.4080   -4.0640 H       9  G9          0.1451
    286  H22        5.1950   -4.7610   -3.8080 H       9  G9          0.1451
    287    P.3     10.9710   -0.5930   -1.2590 P.3    10  U10         0.2131
    288  OP1       12.2050   -1.0350   -1.9490 O.2    10  U10        -0.5172
    289  OP2       11.1190    0.3600   -0.1410 O.3    10  U10        -0.4373
    290  O5'        9.9780    0.0210   -2.3470 O.3    10  U10        -0.3248
    291  C5'       10.2190   -0.1690   -3.7320 C.3    10  U10         0.0837
    292  C4'        9.0130    0.2050   -4.5940 C.3    10  U10         0.1139
    293  O4'        7.8640   -0.5250   -4.1810 O.3    10  U10        -0.3456
    294  C3'        8.5980    1.6700   -4.5720 C.3    10  U10         0.1241
    295  O3'        9.3970    2.4160   -5.4890 O.3    10  U10        -0.3187
    296  C2'        7.1480    1.5510   -5.0410 C.3    10  U10         0.1293
    297  O2'        7.0850    1.4460   -6.4530 O.3    10  U10        -0.3846
    298  C1'        6.6770    0.2250   -4.4440 C.3    10  U10         0.1680
    299   N.1       5.8040    0.3880   -3.2430 N.ar   10  U10        -0.2715
    300   C.2       4.4170    0.4860   -3.4500 C.ar   10  U10         0.3314
    301   O.2       3.9340    0.6450   -4.5790 O.2    10  U10        -0.2464
    302   N.3       3.6010    0.3830   -2.3250 N.ar   10  U10        -0.2749
    303   C4        4.0660    0.2300   -1.0220 C.ar   10  U10         0.2539
    304   O4        3.2950    0.0680   -0.0920 O.2    10  U10        -0.2677
    305   C5        5.5100    0.2550   -0.8870 C.ar   10  U10         0.0192
    306   C6        6.3230    0.3300   -1.9680 C.ar   10  U10         0.0171
    307  H5'       10.4480   -1.2200   -3.9100 H      10  U10         0.0591
    308 H5''       11.0810    0.4270   -4.0350 H      10  U10         0.0591
    309  H4'        9.2470   -0.0500   -5.6330 H      10  U10         0.0647
    310  H3'        8.6530    2.0710   -3.5580 H      10  U10         0.0655
    311  H2'        6.5500    2.3900   -4.6870 H      10  U10         0.0666
    312 HO2'        6.6970    2.2870   -6.7610 H      10  U10         0.2101
    313  H1'        6.0750   -0.3010   -5.1890 H      10  U10         0.0867
    314   H3        2.5880    0.4080   -2.4410 H      10  U10         0.1734
    315   H5        5.9230    0.2060    0.1140 H      10  U10         0.0686
    316   H6        7.3950    0.3210   -1.8250 H      10  U10         0.0813
    317    P.3      9.4680    4.0130   -5.4980 P.3    11  C11         0.2131
    318  OP1       10.5070    4.3740   -6.4910 O.2    11  C11        -0.5172
    319  OP2        9.6590    4.5210   -4.1270 O.3    11  C11        -0.4373
    320  O5'        8.0510    4.5030   -6.0510 O.3    11  C11        -0.3248
    321  C5'        7.8560    4.7110   -7.4410 C.3    11  C11         0.0837
    322  C4'        6.3870    4.6160   -7.8600 C.3    11  C11         0.1139
    323  O4'        5.6970    3.6300   -7.1060 O.3    11  C11        -0.3456
    324  C3'        5.5430    5.8730   -7.7480 C.3    11  C11         0.1241
    325  O3'        5.7230    6.7030   -8.8800 O.3    11  C11        -0.3187
    326  C2'        4.1300    5.3010   -7.7340 C.3    11  C11         0.1293
    327  O2'        3.6270    5.0530   -9.0430 O.3    11  C11        -0.3846
    328  C1'        4.3180    3.9630   -7.0140 C.3    11  C11         0.1680
    329   N.1       3.8460    4.0180   -5.6020 N.ar   11  C11        -0.2700
    330   C.2       2.5030    3.7440   -5.3480 C.ar   11  C11         0.3522
    331   O.2       1.7170    3.5120   -6.2790 O.2    11  C11        -0.2444
    332   N.3       2.0450    3.6910   -4.0690 N.ar   11  C11        -0.1783
    333   C4        2.8830    3.8920   -3.0410 C.ar   11  C11         0.1230
    334   N.4       2.4140    3.8220   -1.8020 N.pl3  11  C11        -0.3430
    335   C5        4.2660    4.1970   -3.2740 C.ar   11  C11        -0.0056
    336   C6        4.6960    4.2700   -4.5560 C.ar   11  C11         0.0152
    337  H5'        8.4050    3.9480   -7.9920 H      11  C11         0.0591
    338 H5''        8.2610    5.6820   -7.7230 H      11  C11         0.0591
    339  H4'        6.3640    4.3330   -8.9110 H      11  C11         0.0647
    340  H3'        5.7530    6.3900   -6.8140 H      11  C11         0.0655
    341  H2'        3.4550    5.9660   -7.1930 H      11  C11         0.0666
    342 HO2'        2.6700    5.2470   -8.9950 H      11  C11         0.2101
    343  H1'        3.7370    3.2000   -7.5350 H      11  C11         0.0867
    344  H41        1.4240    3.6740   -1.5830 H      11  C11         0.1437
    345  H42        3.0180    3.9530   -1.0070 H      11  C11         0.1437
    346   H5        4.9860    4.4070   -2.4990 H      11  C11         0.0666
    347   H6        5.7240    4.5380   -4.7540 H      11  C11         0.0812
    348    P.3      6.1400    8.2290   -8.7590 P.3    12  C12         0.2131
    349  OP1        6.7100    8.5610  -10.0910 O.2    12  C12        -0.5172
    350  OP2        6.9820    8.4150   -7.5690 O.3    12  C12        -0.4373
    351  O5'        4.7190    8.9370   -8.5710 O.3    12  C12        -0.3248
    352  C5'        3.8470    9.0560   -9.6800 C.3    12  C12         0.0837
    353  C4'        2.3580    8.9740   -9.3270 C.3    12  C12         0.1139
    354  O4'        2.1120    7.8880   -8.4410 O.3    12  C12        -0.3456
    355  C3'        1.7170   10.1840   -8.6480 C.3    12  C12         0.1241
    356  O3'        1.3670   11.2200   -9.5570 O.3    12  C12        -0.3187
    357  C2'        0.4400    9.5250   -8.1220 C.3    12  C12         0.1293
    358  O2'       -0.5340    9.3990   -9.1540 O.3    12  C12        -0.3846
    359  C1'        0.8910    8.1130   -7.7420 C.3    12  C12         0.1680
    360   N.1       1.0030    7.9390   -6.2660 N.ar   12  C12        -0.2700
    361   C.2      -0.1830    7.7990   -5.5360 C.ar   12  C12         0.3522
    362   O.2      -1.2890    7.9340   -6.0700 O.2    12  C12        -0.2444
    363   N.3      -0.1290    7.5310   -4.2030 N.ar   12  C12        -0.1783
    364   C4        1.0510    7.3800   -3.5880 C.ar   12  C12         0.1230
    365   N.4       1.0680    7.1130   -2.2900 N.pl3  12  C12        -0.3430
    366   C5        2.2780    7.5280   -4.3080 C.ar   12  C12        -0.0056
    367   C6        2.2160    7.8310   -5.6290 C.ar   12  C12         0.0152
    368  H5'        4.0520    8.2360  -10.3690 H      12  C12         0.0591
    369 H5''        4.0640    9.9920  -10.1920 H      12  C12         0.0591
    370  H4'        1.8050    8.8060  -10.2550 H      12  C12         0.0647
    371  H3'        2.3490   10.5380   -7.8310 H      12  C12         0.0655
    372  H2'        0.0350   10.0730   -7.2720 H      12  C12         0.0666
    373 HO2'       -1.4100    9.2800   -8.7450 H      12  C12         0.2101
    374  H1'        0.1450    7.3930   -8.0850 H      12  C12         0.0867
    375  H41        0.2140    7.0370   -1.7310 H      12  C12         0.1437
    376  H42        1.9370    7.0430   -1.7880 H      12  C12         0.1437
    377   H5        3.2430    7.4330   -3.8370 H      12  C12         0.0666
    378   H6        3.1360    7.9790   -6.1780 H      12  C12         0.0812
    379    P.3      1.2350   12.7450   -9.1100 P.3    13  U13         0.2131
    380  OP1        0.6830   13.4370  -10.2980 O.2    13  U13        -0.5172
    381  OP2        2.5580   13.1610   -8.6210 O.3    13  U13        -0.4373
    382  O5'        0.1610   12.8720   -7.9240 O.3    13  U13        -0.3248
    383  C5'       -1.2120   12.6640   -8.2010 C.3    13  U13         0.0837
    384  C4'       -2.1420   12.5840   -6.9830 C.3    13  U13         0.1139
    385  O4'       -1.9080   11.3490   -6.3130 O.3    13  U13        -0.3456
    386  C3'       -2.0060   13.6470   -5.8950 C.3    13  U13         0.1241
    387  O3'       -2.8010   14.7670   -6.2560 O.3    13  U13        -0.3187
    388  C2'       -2.5970   12.9180   -4.6890 C.3    13  U13         0.1293
    389  O2'       -4.0180   12.8590   -4.7220 O.3    13  U13        -0.3846
    390  C1'       -2.0350   11.5130   -4.9030 C.3    13  U13         0.1680
    391   N.1      -0.7490   11.3260   -4.1760 N.ar   13  U13        -0.2715
    392   C.2      -0.8410   10.9850   -2.8260 C.ar   13  U13         0.3314
    393   O.2      -1.9230   10.9100   -2.2380 O.2    13  U13        -0.2464
    394   N.3       0.3530   10.7420   -2.1670 N.ar   13  U13        -0.2749
    395   C4        1.6180   10.7910   -2.7230 C.ar   13  U13         0.2539
    396   O4        2.6120   10.5090   -2.0560 O.2    13  U13        -0.2677
    397   C5        1.6320   11.1860   -4.1170 C.ar   13  U13         0.0192
    398   C6        0.4820   11.4440   -4.7900 C.ar   13  U13         0.0171
    399  H5'       -1.3340   11.7610   -8.7950 H      13  U13         0.0591
    400 H5''       -1.5450   13.5040   -8.8110 H      13  U13         0.0591
    401  H4'       -3.1750   12.5950   -7.3430 H      13  U13         0.0647
    402  H3'       -0.9600   13.8990   -5.7040 H      13  U13         0.0655
    403  H2'       -2.2560   13.3640   -3.7520 H      13  U13         0.0666
    404 HO2'       -4.3230   12.8110   -3.8050 H      13  U13         0.2101
    405  H1'       -2.7430   10.7830   -4.5020 H      13  U13         0.0867
    406   H3        0.2840   10.5580   -1.1780 H      13  U13         0.1734
    407   H5        2.5870   11.2870   -4.6150 H      13  U13         0.0686
    408   H6        0.5420   11.7560   -5.8180 H      13  U13         0.0813
    409    P.3     -2.6030   16.2060   -5.6170 P.3    14  U14         0.2131
    410  OP1       -3.7500   17.0200   -6.0880 O.2    14  U14        -0.5172
    411  OP2       -1.2320   16.6550   -5.9330 O.3    14  U14        -0.4373
    412  O5'       -2.7390   16.0040   -4.0340 O.3    14  U14        -0.3248
    413  C5'       -4.0220   16.0080   -3.4440 C.3    14  U14         0.0837
    414  C4'       -4.0480   15.7500   -1.9440 C.3    14  U14         0.1139
    415  O4'       -3.3210   14.5820   -1.5940 O.3    14  U14        -0.3456
    416  C3'       -3.4380   16.8740   -1.1230 C.3    14  U14         0.1241
    417  O3'       -4.3520   17.9550   -0.9520 O.3    14  U14        -0.3187
    418  C2'       -3.2000   16.1350    0.1910 C.3    14  U14         0.1293
    419  O2'       -4.3990   16.0340    0.9400 O.3    14  U14        -0.3846
    420  C1'       -2.8050   14.7260   -0.2690 C.3    14  U14         0.1680
    421   N.1      -1.3370   14.5050   -0.2140 N.ar   14  U14        -0.2715
    422   C.2      -0.8010   14.0530    0.9980 C.ar   14  U14         0.3314
    423   O.2      -1.4970   13.8380    1.9870 O.2    14  U14        -0.2464
    424   N.3       0.5630   13.8080    1.0280 N.ar   14  U14        -0.2749
    425   C4        1.4140   13.9360   -0.0550 C.ar   14  U14         0.2539
    426   O4        2.6130   13.6850    0.0600 O.2    14  U14        -0.2677
    427   C5        0.7810   14.3920   -1.2780 C.ar   14  U14         0.0192
    428   C6       -0.5440   14.6730   -1.3230 C.ar   14  U14         0.0171
    429  H5'       -4.6470   15.2670   -3.9410 H      14  U14         0.0591
    430 H5''       -4.4570   16.9960   -3.6010 H      14  U14         0.0591
    431  H4'       -5.0830   15.6300   -1.6330 H      14  U14         0.0647
    432  H3'       -2.4930   17.1930   -1.5660 H      14  U14         0.0655
    433  H2'       -2.4260   16.6090    0.7930 H      14  U14         0.0666
    434 HO2'       -4.1110   15.9680    1.8750 H      14  U14         0.2101
    435  H1'       -3.2630   13.9890    0.3900 H      14  U14         0.0867
    436   H3        0.9510   13.5070    1.9170 H      14  U14         0.1734
    437   H5        1.3670   14.5490   -2.1690 H      14  U14         0.0686
    438   H6       -0.9810   15.0430   -2.2400 H      14  U14         0.0813
    439    P.3     -3.8420   19.4080   -0.5510 P.3    15  U15         0.2131
    440  OP1       -4.9880   20.3340   -0.6870 O.3    15  U15        -0.4373
    441  OP2       -2.6110   19.7000   -1.3160 O.2    15  U15        -0.5172
    442  O5'       -3.4870   19.3920    0.9940 O.3    15  U15        -0.3248
    443  C5'       -2.6590   20.4070    1.5210 C.3    15  U15         0.0837
    444  C4'       -2.3390   20.2040    2.9870 C.3    15  U15         0.1139
    445  O4'       -3.4810   20.2380    3.8290 O.3    15  U15        -0.3456
    446  C3'       -1.6550   18.8850    3.2980 C.3    15  U15         0.1241
    447  O3'       -0.2660   18.9420    3.0170 O.3    15  U15        -0.3187
    448  C2'       -1.8280   18.8660    4.8130 C.3    15  U15         0.1293
    449  O2'       -0.7820   19.6530    5.3640 O.3    15  U15        -0.3846
    450  C1'       -3.1880   19.5230    5.0370 C.3    15  U15         0.1680
    451   N.1      -4.2520   18.5510    5.3890 N.ar   15  U15        -0.2715
    452   C.2      -4.2690   18.0440    6.6970 C.ar   15  U15         0.3314
    453   O.2      -3.2850   18.0580    7.4430 O.2    15  U15        -0.2464
    454   N.3      -5.4770   17.5100    7.1290 N.ar   15  U15        -0.2749
    455   C4       -6.6390   17.4300    6.3760 C.ar   15  U15         0.2539
    456   O4       -7.6960   17.0420    6.8730 O.2    15  U15        -0.2677
    457   C5       -6.4720   17.8160    4.9930 C.ar   15  U15         0.0192
    458   C6       -5.3120   18.3340    4.5400 C.ar   15  U15         0.0171
    459  H5'       -3.0820   21.3980    1.3530 H      15  U15         0.0591
    460 H5''       -1.7110   20.3840    0.9930 H      15  U15         0.0591
    461  H4'       -1.6640   20.9940    3.2770 H      15  U15         0.0647
    462  H3'       -2.1640   18.0480    2.8170 H      15  U15         0.0655
    463  H2'       -1.8020   17.8510    5.1920 H      15  U15         0.0666
    464 HO2'       -0.0940   19.5750    4.6750 H      15  U15         0.2101
    465  H1'       -3.1070   20.2180    5.8760 H      15  U15         0.0867
    466   H3       -5.4900   17.1260    8.0610 H      15  U15         0.1734
    467   H5       -7.2690   17.7260    4.2790 H      15  U15         0.0686
    468   H6       -5.2610   18.6070    3.4950 H      15  U15         0.0813
    469    P.3      0.5260   17.6280    2.6180 P.3    16  A16         0.2131
    470  OP1        1.9530   18.0120    2.5670 O.3    16  A16        -0.4373
    471  OP2       -0.0950   17.0610    1.4140 O.2    16  A16        -0.5172
    472  O5'        0.2560   16.6670    3.8500 O.3    16  A16        -0.3248
    473  C5'        1.0050   16.7170    5.0470 C.3    16  A16         0.0837
    474  C4'        0.4140   15.7470    6.0700 C.3    16  A16         0.1139
    475  O4'       -0.9060   16.1010    6.4490 O.3    16  A16        -0.3456
    476  C3'        0.3280   14.3290    5.5330 C.3    16  A16         0.1241
    477  O3'        1.5560   13.6800    5.7690 O.3    16  A16        -0.3187
    478  C2'       -0.8270   13.7380    6.3350 C.3    16  A16         0.1292
    479  O2'       -0.3920   13.3400    7.6270 O.3    16  A16        -0.3846
    480  C1'       -1.7470   14.9490    6.4860 C.3    16  A16         0.1667
    481   N9       -2.8060   15.0300    5.4560 N.ar   16  A16        -0.2855
    482   C8       -2.7030   15.3620    4.1310 C.ar   16  A16         0.1004
    483   N7       -3.8360   15.3600    3.4860 N.ar   16  A16        -0.2306
    484   C5       -4.7480   14.9330    4.4320 C.ar   16  A16         0.1473
    485   C6       -6.1180   14.6120    4.3500 C.ar   16  A16         0.1472
    486   N6       -6.7830   14.6760    3.1980 N.pl3  16  A16        -0.3413
    487   N.1      -6.7700   14.2170    5.4620 N.ar   16  A16        -0.2188
    488   C.2      -6.0610   14.1430    6.5960 C.ar   16  A16         0.1205
    489   N.3      -4.7680   14.3910    6.8040 N.ar   16  A16        -0.2159
    490   C4       -4.1450   14.7650    5.6490 C.ar   16  A16         0.1674
    491  H5'        1.0070   17.7260    5.4510 H      16  A16         0.0591
    492 H5''        2.0350   16.4260    4.8290 H      16  A16         0.0591
    493  H4'        1.0500   15.7330    6.9590 H      16  A16         0.0647
    494  H3'        0.0740   14.3260    4.4720 H      16  A16         0.0655
    495  H2'       -1.3060   12.9090    5.8090 H      16  A16         0.0666
    496 HO2'       -0.8550   12.5050    7.8330 H      16  A16         0.2101
    497  H1'       -2.2710   14.8850    7.4360 H      16  A16         0.0866
    498   H8       -1.7700   15.6190    3.6570 H      16  A16         0.1030
    499  H61       -7.7090   14.2820    3.0560 H      16  A16         0.1438
    500  H62       -6.2680   14.9980    2.3820 H      16  A16         0.1438
    501   H2       -6.6150   13.8170    7.4600 H      16  A16         0.1048
    502    P.3      1.9970   12.4440    4.8940 P.3    17  A17         0.2131
    503  OP1        3.3300   12.1010    5.4230 O.3    17  A17        -0.4373
    504  OP2        1.8510   12.8120    3.4660 O.2    17  A17        -0.5172
    505  O5'        0.9380   11.3290    5.2990 O.3    17  A17        -0.3248
    506  C5'        1.2020    9.9560    5.1020 C.3    17  A17         0.0837
    507  C4'       -0.0050    9.1330    5.5850 C.3    17  A17         0.1139
    508  O4'        0.2290    7.7700    5.3120 O.3    17  A17        -0.3456
    509  C3'       -0.1680    9.2290    7.0960 C.3    17  A17         0.1241
    510  O3'       -1.4920    8.9190    7.5210 O.3    17  A17        -0.3187
    511  C2'        0.7800    8.1260    7.5790 C.3    17  A17         0.1292
    512  O2'        0.4190    7.6970    8.8870 O.3    17  A17        -0.3846
    513  C1'        0.6250    7.0670    6.4770 C.3    17  A17         0.1667
    514   N9        1.8670    6.3140    6.1630 N.ar   17  A17        -0.2855
    515   C8        3.0450    6.7710    5.6220 C.ar   17  A17         0.1004
    516   N7        3.8960    5.8390    5.2930 N.ar   17  A17        -0.2306
    517   C5        3.2260    4.6640    5.6310 C.ar   17  A17         0.1473
    518   C6        3.5460    3.2910    5.4970 C.ar   17  A17         0.1472
    519   N6        4.6970    2.8830    4.9660 N.pl3  17  A17        -0.3413
    520   N.1       2.6630    2.3670    5.9130 N.ar   17  A17        -0.2188
    521   C.2       1.5130    2.7890    6.4510 C.ar   17  A17         0.1205
    522   N.3       1.0890    4.0410    6.6360 N.ar   17  A17        -0.2159
    523   C4        2.0000    4.9440    6.1850 C.ar   17  A17         0.1674
    524  H5'        2.0990    9.6870    5.6570 H      17  A17         0.0591
    525 H5''        1.3820    9.7490    4.0460 H      17  A17         0.0591
    526  H4'       -0.9150    9.4660    5.0820 H      17  A17         0.0647
    527  H3'        0.1560   10.2040    7.4590 H      17  A17         0.0655
    528  H2'        1.8040    8.5040    7.5760 H      17  A17         0.0666
    529 HO2'        0.8570    6.8500    9.0760 H      17  A17         0.2101
    530  H1'       -0.1670    6.3580    6.7250 H      17  A17         0.0866
    531   H8        3.2470    7.8200    5.4610 H      17  A17         0.1030
    532  H61        4.8750    1.9240    4.6980 H      17  A17         0.1438
    533  H62        5.3130    3.6030    4.5940 H      17  A17         0.1438
    534   H2        0.8350    2.0150    6.7840 H      17  A17         0.1048
    535    P.3     -2.5470   10.0170    7.9790 P.3    18  U18         0.2131
    536  OP1       -1.8190   11.2100    8.4650 O.2    18  U18        -0.5172
    537  OP2       -3.4100    9.3300    8.9670 O.3    18  U18        -0.4373
    538  O5'       -3.4250   10.3900    6.7010 O.3    18  U18        -0.3248
    539  C5'       -4.7740   10.8090    6.8480 C.3    18  U18         0.0837
    540  C4'       -5.4970   11.0260    5.5100 C.3    18  U18         0.1139
    541  O4'       -4.7450   11.8820    4.6650 O.3    18  U18        -0.3456
    542  C3'       -5.7480    9.7690    4.6880 C.3    18  U18         0.1241
    543  O3'       -6.9280    9.0830    5.1090 O.3    18  U18        -0.3187
    544  C2'       -5.9190   10.3570    3.2850 C.3    18  U18         0.1293
    545  O2'       -7.2580   10.7950    3.1240 O.3    18  U18        -0.3846
    546  C1'       -4.9570   11.5460    3.2930 C.3    18  U18         0.1680
    547   N.1      -3.6800   11.2460    2.5900 N.ar   18  U18        -0.2715
    548   C.2      -3.6620   11.3470    1.1930 C.ar   18  U18         0.3314
    549   O.2      -4.6350   11.7400    0.5440 O.2    18  U18        -0.2464
    550   N.3      -2.4640   11.0370    0.5610 N.ar   18  U18        -0.2749
    551   C4       -1.2630   10.7970    1.2060 C.ar   18  U18         0.2539
    552   O4       -0.2150   10.6410    0.5800 O.2    18  U18        -0.2677
    553   C5       -1.3470   10.8100    2.6430 C.ar   18  U18         0.0192
    554   C6       -2.5200   11.0100    3.2890 C.ar   18  U18         0.0171
    555  H5'       -4.7810   11.7410    7.4110 H      18  U18         0.0591
    556 H5''       -5.3270   10.0600    7.4140 H      18  U18         0.0591
    557  H4'       -6.4710   11.4830    5.7040 H      18  U18         0.0647
    558  H3'       -4.8680    9.1360    4.7430 H      18  U18         0.0655
    559  H2'       -5.6650    9.6310    2.5080 H      18  U18         0.0666
    560 HO2'       -7.7740    9.9760    3.1280 H      18  U18         0.2101
    561  H1'       -5.4240   12.3810    2.7710 H      18  U18         0.0867
    562   H3       -2.4390   11.0430   -0.4530 H      18  U18         0.1734
    563   H5       -0.4390   10.7030    3.1990 H      18  U18         0.0686
    564   H6       -2.5350   11.0300    4.3660 H      18  U18         0.0813
    565    P.3     -7.2240    7.5820    4.6450 P.3    19  G19         0.2131
    566  OP1       -8.4400    7.1190    5.3660 O.3    19  G19        -0.4373
    567  OP2       -5.9820    6.8050    4.7380 O.2    19  G19        -0.5172
    568  O5'       -7.5800    7.7440    3.1030 O.3    19  G19        -0.3248
    569  C5'       -8.9020    7.8580    2.6140 C.3    19  G19         0.0837
    570  C4'       -8.8920    7.7680    1.0880 C.3    19  G19         0.1139
    571  O4'       -7.8810    8.6080    0.5490 O.3    19  G19        -0.3456
    572  C3'       -8.5670    6.3640    0.5940 C.3    19  G19         0.1241
    573  O3'       -9.6850    5.4770    0.5540 O.3    19  G19        -0.3187
    574  C2'       -8.0070    6.6740   -0.7890 C.3    19  G19         0.1292
    575  O2'       -9.0180    6.9290   -1.7510 O.3    19  G19        -0.3846
    576  C1'       -7.2210    7.9520   -0.5330 C.3    19  G19         0.1667
    577   N9       -5.8040    7.6330   -0.2400 N.ar   19  G19        -0.2854
    578   C8       -5.2240    7.2650    0.9450 C.ar   19  G19         0.1005
    579   N7       -3.9290    7.1430    0.9010 N.ar   19  G19        -0.2286
    580   C5       -3.6240    7.3790   -0.4380 C.ar   19  G19         0.1721
    581   C6       -2.3640    7.3500   -1.1230 C.ar   19  G19         0.2803
    582   O6       -1.2370    7.1570   -0.6700 O.2    19  G19        -0.2654
    583   N.1      -2.4980    7.5580   -2.4880 N.ar   19  G19        -0.2934
    584   C.2      -3.6920    7.7960   -3.1290 C.ar   19  G19         0.1950
    585   N.2      -3.6570    7.9750   -4.4450 N.pl3  19  G19        -0.3289
    586   N.3      -4.8850    7.8320   -2.5070 N.ar   19  G19        -0.1963
    587   C4       -4.7780    7.6230   -1.1560 C.ar   19  G19         0.1712
    588  H5'       -9.3380    8.8020    2.9360 H      19  G19         0.0591
    589 H5''       -9.4950    7.0320    2.9940 H      19  G19         0.0591
    590  H4'       -9.8660    8.0600    0.6870 H      19  G19         0.0647
    591  H3'       -7.7780    5.9400    1.2150 H      19  G19         0.0655
    592  H2'       -7.3500    5.8810   -1.1180 H      19  G19         0.0666
    593 HO2'       -8.5710    7.1170   -2.5960 H      19  G19         0.2101
    594  H1'       -7.2210    8.5920   -1.4160 H      19  G19         0.0866
    595   H8       -5.7900    7.0960    1.8400 H      19  G19         0.1030
    596   H1       -1.6300    7.5570   -3.0100 H      19  G19         0.1716
    597  H21       -2.7720    7.8870   -4.9430 H      19  G19         0.1451
    598  H22       -4.4880    8.2200   -4.9820 H      19  G19         0.1451
    599    P.3     -9.4650    3.8880    0.5370 P.3    20  G20         0.2131
    600  OP1      -10.8090    3.2820    0.3690 O.2    20  G20        -0.5172
    601  OP2       -8.6870    3.5110    1.7270 O.3    20  G20        -0.4373
    602  O5'       -8.5540    3.5590   -0.7300 O.3    20  G20        -0.3248
    603  C5'       -9.0890    3.5590   -2.0330 C.3    20  G20         0.0837
    604  C4'       -8.0160    3.5230   -3.1210 C.3    20  G20         0.1139
    605  O4'       -7.0060    4.4990   -2.9100 O.3    20  G20        -0.3456
    606  C3'       -7.2720    2.2130   -3.3360 C.3    20  G20         0.1241
    607  O3'       -8.0610    1.3360   -4.1250 O.3    20  G20        -0.3187
    608  C2'       -6.0630    2.7100   -4.1360 C.3    20  G20         0.1292
    609  O2'       -6.4070    2.8430   -5.5050 O.3    20  G20        -0.3846
    610  C1'       -5.7980    4.0850   -3.5310 C.3    20  G20         0.1667
    611   N9       -4.6870    4.0020   -2.5780 N.ar   20  G20        -0.2854
    612   C8       -4.7230    3.8430   -1.2260 C.ar   20  G20         0.1005
    613   N7       -3.5360    3.8420   -0.6690 N.ar   20  G20        -0.2286
    614   C5       -2.6510    3.9250   -1.7540 C.ar   20  G20         0.1721
    615   C6       -1.2130    3.9020   -1.8410 C.ar   20  G20         0.2803
    616   O6       -0.3640    3.8430   -0.9550 O.2    20  G20        -0.2654
    617   N.1      -0.7470    3.9410   -3.1460 N.ar   20  G20        -0.2934
    618   C.2      -1.5530    4.0150   -4.2560 C.ar   20  G20         0.1950
    619   N.2      -0.9820    3.9640   -5.4510 N.pl3  20  G20        -0.3289
    620   N.3      -2.8840    4.1010   -4.2050 N.ar   20  G20        -0.1963
    621   C4       -3.3670    4.0280   -2.9300 C.ar   20  G20         0.1712
    622  H5'       -9.6830    4.4610   -2.1650 H      20  G20         0.0591
    623 H5''       -9.7460    2.6990   -2.1460 H      20  G20         0.0591
    624  H4'       -8.5160    3.7440   -4.0600 H      20  G20         0.0647
    625  H3'       -6.9710    1.7770   -2.3800 H      20  G20         0.0655
    626  H2'       -5.2080    2.0390   -4.0250 H      20  G20         0.0666
    627 HO2'       -6.5490    1.9260   -5.7790 H      20  G20         0.2101
    628  H1'       -5.4830    4.7960   -4.2910 H      20  G20         0.0866
    629   H8       -5.6820    3.7320   -0.7330 H      20  G20         0.1030
    630   H1        0.2560    3.8650   -3.2520 H      20  G20         0.1716
    631  H21        0.0190    3.8300   -5.5490 H      20  G20         0.1451
    632  H22       -1.5930    3.9550   -6.2620 H      20  G20         0.1451
    633    P.3     -7.7380   -0.2080   -4.2620 P.3    21  U21         0.2131
    634  OP1       -8.9260   -0.7890   -4.9300 O.2    21  U21        -0.5172
    635  OP2       -7.3330   -0.7450   -2.9530 O.3    21  U21        -0.4373
    636  O5'       -6.4800   -0.2380   -5.2570 O.3    21  U21        -0.3248
    637  C5'       -6.6510   -0.1810   -6.6570 C.3    21  U21         0.0837
    638  C4'       -5.3380   -0.0870   -7.4280 C.3    21  U21         0.1139
    639  O4'       -4.4340    0.8390   -6.8480 O.3    21  U21        -0.3456
    640  C3'       -4.5660   -1.3830   -7.5600 C.3    21  U21         0.1241
    641  O3'       -5.1220   -2.1720   -8.6000 O.3    21  U21        -0.3187
    642  C2'       -3.2040   -0.8380   -7.9980 C.3    21  U21         0.1293
    643  O2'       -3.1260   -0.5680   -9.3980 O.3    21  U21        -0.3846
    644  C1'       -3.1060    0.4920   -7.2470 C.3    21  U21         0.1680
    645   N.1      -2.1380    0.4110   -6.1320 N.ar   21  U21        -0.2715
    646   C.2      -0.7820    0.5180   -6.4490 C.ar   21  U21         0.3314
    647   O.2      -0.3810    0.7000   -7.6040 O.2    21  U21        -0.2464
    648   N.3       0.1120    0.4070   -5.3960 N.ar   21  U21        -0.2749
    649   C4       -0.2110    0.2640   -4.0600 C.ar   21  U21         0.2539
    650   O4        0.6950    0.2360   -3.2270 O.2    21  U21        -0.2677
    651   C5       -1.6460    0.1680   -3.8320 C.ar   21  U21         0.0192
    652   C6       -2.5460    0.2360   -4.8380 C.ar   21  U21         0.0171
    653  H5'       -7.2730    0.6790   -6.9050 H      21  U21         0.0591
    654 H5''       -7.1650   -1.0830   -6.9800 H      21  U21         0.0591
    655  H4'       -5.5550    0.2240   -8.4420 H      21  U21         0.0647
    656  H3'       -4.5080   -1.9020   -6.5990 H      21  U21         0.0655
    657  H2'       -2.4120   -1.5210   -7.7030 H      21  U21         0.0666
    658 HO2'       -2.3230   -0.9990   -9.7340 H      21  U21         0.2101
    659  H1'       -2.7360    1.2480   -7.9340 H      21  U21         0.0867
    660   H3        1.0960    0.4470   -5.6090 H      21  U21         0.1734
    661   H5       -2.0790    0.0390   -2.8610 H      21  U21         0.0686
    662   H6       -3.6020    0.1550   -4.6020 H      21  U21         0.0813
    663    P.3     -5.1920   -3.7430   -8.4970 P.3    22  C22         0.2131
    664  OP1       -5.6620   -4.2420   -9.8120 O.2    22  C22        -0.5172
    665  OP2       -6.0250   -4.0720   -7.3240 O.3    22  C22        -0.4373
    666  O5'       -3.6910   -4.2260   -8.2770 O.3    22  C22        -0.3248
    667  C5'       -2.7810   -4.1940   -9.3580 C.3    22  C22         0.0837
    668  C4'       -1.3280   -4.4050   -8.9360 C.3    22  C22         0.1139
    669  O4'       -0.9270   -3.4490   -7.9700 O.3    22  C22        -0.3456
    670  C3'       -1.0100   -5.7620   -8.3310 C.3    22  C22         0.1241
    671  O3'       -0.8350   -6.7130   -9.3730 O.3    22  C22        -0.3187
    672  C2'        0.3240   -5.4340   -7.6460 C.3    22  C22         0.1293
    673  O2'        1.3910   -5.4720   -8.5890 O.3    22  C22        -0.3846
    674  C1'        0.1320   -3.9820   -7.1840 C.3    22  C22         0.1680
    675   N.1      -0.1790   -3.8680   -5.7350 N.ar   22  C22        -0.2700
    676   C.2       0.8930   -3.7610   -4.8430 C.ar   22  C22         0.3522
    677   O.2       2.0680   -3.8500   -5.2210 O.2    22  C22        -0.2444
    678   N.3       0.6490   -3.5390   -3.5270 N.ar   22  C22        -0.1783
    679   C4       -0.6090   -3.4050   -3.0730 C.ar   22  C22         0.1230
    680   N.4      -0.7970   -3.1690   -1.7850 N.pl3  22  C22        -0.3430
    681   C5       -1.7220   -3.5170   -3.9690 C.ar   22  C22        -0.0056
    682   C6       -1.4710   -3.7490   -5.2780 C.ar   22  C22         0.0152
    683  H5'       -2.8590   -3.2280   -9.8550 H      22  C22         0.0591
    684 H5''       -3.0500   -4.9660  -10.0760 H      22  C22         0.0591
    685  H4'       -0.6970   -4.2990   -9.8160 H      22  C22         0.0647
    686  H3'       -1.7720   -6.0560   -7.6060 H      22  C22         0.0655
    687  H2'        0.5210   -6.1060   -6.8100 H      22  C22         0.0666
    688 HO2'        2.2230   -5.2130   -8.1450 H      22  C22         0.2101
    689  H1'        1.0450   -3.4110   -7.3660 H      22  C22         0.0867
    690  H41       -0.0040   -3.0700   -1.1430 H      22  C22         0.1437
    691  H42       -1.7240   -3.0770   -1.3990 H      22  C22         0.1437
    692   H5       -2.7510   -3.4160   -3.6560 H      22  C22         0.0666
    693   H6       -2.3100   -3.8190   -5.9590 H      22  C22         0.0812
    694    P.3     -1.0160   -8.2730   -9.1410 P.3    23  C23         0.2131
    695  OP1       -0.4760   -8.8900  -10.3720 O.2    23  C23        -0.5172
    696  OP2       -2.4310   -8.5320   -8.8130 O.3    23  C23        -0.4373
    697  O5'       -0.0600   -8.6970   -7.9320 O.3    23  C23        -0.3248
    698  C5'        1.2960   -9.0020   -8.2090 C.3    23  C23         0.0837
    699  C4'        2.2000   -9.1150   -6.9840 C.3    23  C23         0.1139
    700  O4'        2.2010   -7.9160   -6.2240 O.3    23  C23        -0.3456
    701  C3'        1.8960  -10.2300   -6.0020 C.3    23  C23         0.1241
    702  O3'        2.4730  -11.4450   -6.4630 O.3    23  C23        -0.3187
    703  C2'        2.6310   -9.7300   -4.7590 C.3    23  C23         0.1293
    704  O2'        3.9960  -10.0860   -4.8540 O.3    23  C23        -0.3846
    705  C1'        2.5070   -8.2110   -4.8620 C.3    23  C23         0.1680
    706   N.1       1.4640   -7.7020   -3.9390 N.ar   23  C23        -0.2700
    707   C.2       1.8660   -7.3150   -2.6580 C.ar   23  C23         0.3522
    708   O.2       3.0520   -7.3620   -2.3100 O.2    23  C23        -0.2444
    709   N.3       0.9360   -6.8790   -1.7720 N.ar   23  C23        -0.1783
    710   C4       -0.3550   -6.8020   -2.1230 C.ar   23  C23         0.1230
    711   N.4      -1.2110   -6.3600   -1.2180 N.pl3  23  C23        -0.3430
    712   C5       -0.7960   -7.1910   -3.4300 C.ar   23  C23        -0.0056
    713   C6        0.1390   -7.6420   -4.2980 C.ar   23  C23         0.0152
    714  H5'        1.7040   -8.2210   -8.8540 H      23  C23         0.0591
    715 H5''        1.3310   -9.9470   -8.7530 H      23  C23         0.0591
    716  H4'        3.2090   -9.2990   -7.3500 H      23  C23         0.0647
    717  H3'        0.8200  -10.3050   -5.8270 H      23  C23         0.0655
    718  H2'        2.1890  -10.1300   -3.8440 H      23  C23         0.0666
    719 HO2'        3.9870  -10.9340   -5.3160 H      23  C23         0.2101
    720  H1'        3.4590   -7.7550   -4.5760 H      23  C23         0.0867
    721  H41       -0.9020   -6.0390   -0.3050 H      23  C23         0.1437
    722  H42       -2.2000   -6.2770   -1.4060 H      23  C23         0.1437
    723   H5       -1.8300   -7.1590   -3.7460 H      23  C23         0.0666
    724   H6       -0.1700   -7.9550   -5.2850 H      23  C23         0.0812
    725    P.3      1.8230  -12.8480   -6.1080 P.3    24  A24         0.2131
    726  OP1        2.6090  -13.8520   -6.8680 O.2    24  A24        -0.5172
    727  OP2        0.3720  -12.7690   -6.3530 O.3    24  A24        -0.4373
    728  O5'        2.1010  -13.0350   -4.5490 O.3    24  A24        -0.3248
    729  C5'        3.3530  -13.5170   -4.0920 C.3    24  A24         0.0837
    730  C4'        3.6550  -13.2170   -2.6250 C.3    24  A24         0.1139
    731  O4'        3.3520  -11.8710   -2.3150 O.3    24  A24        -0.3456
    732  C3'        2.9610  -14.0670   -1.5740 C.3    24  A24         0.1241
    733  O3'        3.6960  -15.2710   -1.3650 O.3    24  A24        -0.3187
    734  C2'        3.0630  -13.1470   -0.3550 C.3    24  A24         0.1292
    735  O2'        4.3430  -13.2650    0.2500 O.3    24  A24        -0.3846
    736  C1'        2.9280  -11.7500   -0.9660 C.3    24  A24         0.1667
    737   N9        1.5510  -11.2230   -0.8900 N.ar   24  A24        -0.2855
    738   C8        0.5520  -11.2160   -1.8290 C.ar   24  A24         0.1004
    739   N7       -0.5230  -10.5590   -1.4710 N.ar   24  A24        -0.2306
    740   C5       -0.2060  -10.1010   -0.1890 C.ar   24  A24         0.1473
    741   C6       -0.8830   -9.3230    0.7810 C.ar   24  A24         0.1472
    742   N6       -2.1100   -8.8350    0.6160 N.pl3  24  A24        -0.3413
    743   N.1      -0.2690   -9.0540    1.9450 N.ar   24  A24        -0.2188
    744   C.2       0.9590   -9.5250    2.1580 C.ar   24  A24         0.1205
    745   N.3       1.7010  -10.2670    1.3410 N.ar   24  A24        -0.2159
    746   C4        1.0510  -10.5190    0.1730 C.ar   24  A24         0.1674
    747  H5'        4.1350  -13.0340   -4.6790 H      24  A24         0.0591
    748 H5''        3.4040  -14.5930   -4.2520 H      24  A24         0.0591
    749  H4'        4.7250  -13.3820   -2.4870 H      24  A24         0.0647
    750  H3'        1.9220  -14.2530   -1.8450 H      24  A24         0.0655
    751  H2'        2.2760  -13.3470    0.3720 H      24  A24         0.0666
    752 HO2'        5.0180  -12.9250   -0.3540 H      24  A24         0.2101
    753  H1'        3.5520  -11.0370   -0.4200 H      24  A24         0.0866
    754   H8        0.6640  -11.7130   -2.7810 H      24  A24         0.1030
    755  H61       -2.5280   -8.2040    1.2930 H      24  A24         0.1438
    756  H62       -2.6450   -9.1020   -0.2050 H      24  A24         0.1438
    757   H2        1.4120   -9.2690    3.1060 H      24  A24         0.1048
    758    P.3      3.0630  -16.5440   -0.6360 P.3    25  G25         0.2131
    759  OP1        4.1840  -17.4950   -0.4470 O.3    25  G25        -0.4373
    760  OP2        1.9470  -17.0150   -1.4790 O.2    25  G25        -0.5172
    761  O5'        2.5400  -16.0970    0.8080 O.3    25  G25        -0.3248
    762  C5'        3.4680  -15.9850    1.8780 C.3    25  G25         0.0837
    763  C4'        2.9370  -15.2800    3.1300 C.3    25  G25         0.1139
    764  O4'        2.4950  -13.9680    2.8080 O.3    25  G25        -0.3456
    765  C3'        1.7450  -15.9340    3.8200 C.3    25  G25         0.1241
    766  O3'        2.1000  -17.0340    4.6540 O.3    25  G25        -0.3187
    767  C2'        1.2750  -14.7420    4.6650 C.3    25  G25         0.1292
    768  O2'        2.0730  -14.6000    5.8400 O.3    25  G25        -0.3846
    769  C1'        1.5050  -13.5440    3.7380 C.3    25  G25         0.1667
    770   N9        0.2560  -13.1730    3.0290 N.ar   25  G25        -0.2854
    771   C8       -0.1540  -13.5610    1.7800 C.ar   25  G25         0.1005
    772   N7       -1.3000  -13.0510    1.4080 N.ar   25  G25        -0.2286
    773   C5       -1.6710  -12.2470    2.4850 C.ar   25  G25         0.1721
    774   C6       -2.8370  -11.4300    2.6730 C.ar   25  G25         0.2803
    775   O6       -3.7690  -11.2350    1.8930 O.2    25  G25        -0.2654
    776   N.1      -2.8870  -10.8450    3.9280 N.ar   25  G25        -0.2934
    777   C.2      -1.9150  -10.9970    4.8900 C.ar   25  G25         0.1950
    778   N.2      -2.1370  -10.4380    6.0710 N.pl3  25  G25        -0.3289
    779   N.3      -0.8300  -11.7780    4.7400 N.ar   25  G25        -0.1963
    780   C4       -0.7500  -12.3600    3.5050 C.ar   25  G25         0.1712
    781  H5'        4.3400  -15.4330    1.5330 H      25  G25         0.0591
    782 H5''        3.8040  -16.9830    2.1550 H      25  G25         0.0591
    783  H4'        3.7480  -15.2110    3.8560 H      25  G25         0.0647
    784  H3'        0.9930  -16.2140    3.0790 H      25  G25         0.0655
    785  H2'        0.2240  -14.8370    4.9190 H      25  G25         0.0666
    786 HO2'        1.7000  -13.9000    6.4000 H      25  G25         0.2101
    787  H1'        1.8550  -12.6700    4.2940 H      25  G25         0.0866
    788   H8        0.4440  -14.2400    1.1840 H      25  G25         0.1030
    789   H1       -3.6770  -10.2300    4.1010 H      25  G25         0.1716
    790  H21       -2.9840   -9.9060    6.2600 H      25  G25         0.1451
    791  H22       -1.3950  -10.4930    6.7670 H      25  G25         0.1451
    792    P.3      1.0430  -18.1500    5.0670 P.3    26  U26         0.2131
    793  OP1        1.6980  -19.0070    6.0880 O.3    26  U26        -0.4373
    794  OP2        0.5630  -18.8010    3.8360 O.2    26  U26        -0.5172
    795  O5'       -0.1590  -17.3870    5.7700 O.3    26  U26        -0.3248
    796  C5'       -0.0130  -16.9140    7.0930 C.3    26  U26         0.0837
    797  C4'       -1.1620  -16.0310    7.5540 C.3    26  U26         0.1139
    798  O4'       -1.3080  -14.8900    6.7270 O.3    26  U26        -0.3456
    799  C3'       -2.4990  -16.7390    7.5220 C.3    26  U26         0.1241
    800  O3'       -2.6680  -17.5570    8.6690 O.3    26  U26        -0.3187
    801  C2'       -3.4580  -15.5560    7.4560 C.3    26  U26         0.1293
    802  O2'       -3.6680  -15.0480    8.7620 O.3    26  U26        -0.3846
    803  C1'       -2.6860  -14.5700    6.5690 C.3    26  U26         0.1680
    804   N.1      -3.1190  -14.6700    5.1430 N.ar   26  U26        -0.2715
    805   C.2      -4.2110  -13.8910    4.7590 C.ar   26  U26         0.3314
    806   O.2      -4.8240  -13.1940    5.5710 O.2    26  U26        -0.2464
    807   N.3      -4.6010  -13.9620    3.4230 N.ar   26  U26        -0.2749
    808   C4       -4.0610  -14.8280    2.4830 C.ar   26  U26         0.2539
    809   O4       -4.5530  -14.9400    1.3610 O.2    26  U26        -0.2677
    810   C5       -2.9360  -15.6010    2.9590 C.ar   26  U26         0.0192
    811   C6       -2.4980  -15.5000    4.2380 C.ar   26  U26         0.0171
    812  H5'        0.9260  -16.3710    7.1980 H      26  U26         0.0591
    813 H5''        0.0070  -17.7750    7.7470 H      26  U26         0.0591
    814  H4'       -0.9800  -15.7120    8.5850 H      26  U26         0.0647
    815  H3'       -2.5740  -17.3240    6.6050 H      26  U26         0.0655
    816  H2'       -4.4060  -15.8420    7.0080 H      26  U26         0.0666
    817 HO2'       -4.0680  -15.7790    9.2620 H      26  U26         0.2101
    818  H1'       -2.8720  -13.5420    6.8950 H      26  U26         0.0867
    819   H3       -5.3260  -13.3360    3.0750 H      26  U26         0.1734
    820   H5       -2.4250  -16.2640    2.2730 H      26  U26         0.0686
    821   H6       -1.6470  -16.0860    4.5370 H      26  U26         0.0813
    822    P.3     -3.8260  -18.6400    8.7150 P.3    27  C27         0.2131
    823  OP1       -3.6010  -19.5780    9.8320 O.3    27  C27        -0.4373
    824  OP2       -4.0830  -19.1590    7.3520 O.2    27  C27        -0.5172
    825  O5'       -5.0160  -17.6910    9.1450 O.3    27  C27        -0.3248
    826  C5'       -6.3450  -18.0880    8.9280 C.3    27  C27         0.0836
    827  C4'       -7.3180  -16.9990    9.3630 C.3    27  C27         0.1133
    828  O4'       -7.0310  -15.7640    8.7270 O.3    27  C27        -0.3456
    829  C3'       -8.7210  -17.3800    8.9100 C.3    27  C27         0.1135
    830  O3'       -9.4290  -18.1930    9.8490 O.3    27  C27        -0.3864
    831  C2'       -9.3640  -16.0320    8.6380 C.3    27  C27         0.1286
    832  O2'       -9.7770  -15.4160    9.8470 O.3    27  C27        -0.3847
    833  C1'       -8.1720  -15.2780    8.0290 C.3    27  C27         0.1680
    834   N.1      -8.0410  -15.4610    6.5530 N.ar   27  C27        -0.2700
    835   C.2      -8.9470  -14.7780    5.7390 C.ar   27  C27         0.3522
    836   O.2      -9.9490  -14.2220    6.2080 O.2    27  C27        -0.2444
    837   N.3      -8.7210  -14.7110    4.3990 N.ar   27  C27        -0.1783
    838   C4       -7.6630  -15.3170    3.8510 C.ar   27  C27         0.1230
    839   N.4      -7.4500  -15.1520    2.5540 N.pl3  27  C27        -0.3430
    840   C5       -6.7600  -16.0960    4.6400 C.ar   27  C27        -0.0056
    841   C6       -6.9820  -16.1300    5.9780 C.ar   27  C27         0.0152
    842  H5'       -6.5460  -19.0010    9.4730 H      27  C27         0.0591
    843 H5''       -6.4860  -18.2890    7.8680 H      27  C27         0.0591
    844  H4'       -7.2950  -16.8700   10.4480 H      27  C27         0.0647
    845  H3'       -8.6520  -17.9060    7.9550 H      27  C27         0.0647
    846 HO3'       -9.5210  -17.7180   10.6780 H      27  C27         0.2100
    847  H2'      -10.1950  -16.1210    7.9390 H      27  C27         0.0665
    848 HO2'       -9.6260  -14.4600    9.7570 H      27  C27         0.2101
    849  H1'       -8.2820  -14.2030    8.1840 H      27  C27         0.0867
    850  H41       -7.9930  -14.4560    2.0400 H      27  C27         0.1437
    851  H42       -6.6300  -15.5260    2.0890 H      27  C27         0.1437
    852   H5       -5.9190  -16.6310    4.2250 H      27  C27         0.0666
    853   H6       -6.2890  -16.6730    6.5940 H      27  C27         0.0812
@<TRIPOS>BOND
     1   695   694    2
     2   368   352    1
     3   380   379    2
     4   370   353    1
     5   369   352    1
     6   349   348    2
     7   684   667    1
     8   683   667    1
     9   685   668    1
    10   664   663    2
    11   658   643    1
    12   352   353    1
    13   352   351    1
    14   356   379    1
    15   356   355    1
    16   643   642    1
    17   671   694    1
    18   671   670    1
    19   667   668    1
    20   667   666    1
    21   353   355    1
    22   353   354    1
    23   358   373    1
    24   358   357    1
    25   694   696    1
    26   694   697    1
    27   379   381    1
    28   379   382    1
    29   327   342    1
    30   327   326    1
    31   668   670    1
    32   668   669    1
    33   339   322    1
    34   325   348    1
    35   325   324    1
    36   714   698    1
    37   400   383    1
    38   399   383    1
    39   348   351    1
    40   348   350    1
    41   715   698    1
    42   355   357    1
    43   355   371    1
    44   641   663    1
    45   641   640    1
    46   673   688    1
    47   673   672    1
    48   663   666    1
    49   663   665    1
    50   655   638    1
    51   354   359    1
    52   670   672    1
    53   670   686    1
    54   698   697    1
    55   698   699    1
    56   383   382    1
    57   383   384    1
    58   357   359    1
    59   357   372    1
    60   374   359    1
    61   642   657    1
    62   642   640    1
    63   642   644    1
    64   337   321    1
    65   669   674    1
    66   659   644    1
    67   322   324    1
    68   322   321    1
    69   322   323    1
    70   324   326    1
    71   324   340    1
    72   359   360    1
    73   326   341    1
    74   326   328    1
    75   338   321    1
    76   672   674    1
    77   672   687    1
    78   647   646    2
    79   640   638    1
    80   640   656    1
    81   343   328    1
    82   321   320    1
    83   638   639    1
    84   638   637    1
    85   689   674    1
    86   716   699    1
    87   401   384    1
    88   644   639    1
    89   644   645    1
    90   674   675    1
    91   323   328    1
    92   328   329    1
    93   699   700    1
    94   699   701    1
    95   384   385    1
    96   384   386    1
    97   654   637    1
    98   653   637    1
    99   726   725    2
   100   312   297    1
   101   637   636    1
   102   318   317    2
   103   702   725    1
   104   702   701    1
   105   297   296    1
   106   646   645   ar
   107   646   648   ar
   108   727   725    1
   109   385   390    1
   110   331   330    2
   111   360   367   ar
   112   360   361   ar
   113   632   619    1
   114   387   386    1
   115   387   409    1
   116   700   705    1
   117   378   367    1
   118   645   652   ar
   119   725   728    1
   120   410   409    2
   121   362   361    2
   122   320   317    1
   123   701   717    1
   124   701   703    1
   125   693   682    1
   126   411   409    1
   127   386   402    1
   128   386   388    1
   129   408   398    1
   130   627   609    1
   131   675   682   ar
   132   675   676   ar
   133   309   292    1
   134   367   366   ar
   135   409   412    1
   136   660   648    1
   137   329   330   ar
   138   329   336   ar
   139   631   619    1
   140   361   363   ar
   141   609   608    1
   142   317   295    1
   143   317   319    1
   144   295   294    1
   145   619   618    1
   146   648   649   ar
   147   330   332   ar
   148   719   704    1
   149   724   713    1
   150   682   681   ar
   151   636   633    1
   152   677   676    2
   153   313   298    1
   154   296   311    1
   155   296   294    1
   156   296   298    1
   157   598   585    1
   158   597   585    1
   159   634   633    2
   160   390   388    1
   161   390   405    1
   162   390   391    1
   163   705   703    1
   164   705   720    1
   165   705   706    1
   166   704   703    1
   167   676   678   ar
   168   652   662    1
   169   652   651   ar
   170   398   391   ar
   171   398   397   ar
   172   703   718    1
   173   347   336    1
   174   389   388    1
   175   389   404    1
   176   388   403    1
   177   747   729    1
   178   407   397    1
   179   292   294    1
   180   292   293    1
   181   292   291    1
   182   301   300    2
   183   294   310    1
   184   336   335   ar
   185   728   729    1
   186   585   584    1
   187   298   293    1
   188   298   299    1
   189   366   377    1
   190   366   364   ar
   191   713   706   ar
   192   713   712   ar
   193   628   610    1
   194   633   607    1
   195   633   635    1
   196   618   620   ar
   197   618   617   ar
   198   748   729    1
   199   620   621   ar
   200   363   364   ar
   201   391   392   ar
   202   608   626    1
   203   608   610    1
   204   608   606    1
   205   607   606    1
   206   397   395   ar
   207   729   730    1
   208   332   333   ar
   209   285   273    1
   210   624   604    1
   211   649   651   ar
   212   649   650    2
   213   308   291    1
   214   412   413    1
   215   681   692    1
   216   681   679   ar
   217   429   413    1
   218   706   707   ar
   219   307   291    1
   220   651   661    1
   221   286   273    1
   222   723   712    1
   223   291   290    1
   224   430   413    1
   225   364   365    1
   226   610   605    1
   227   610   611    1
   228   678   679   ar
   229   273   272    1
   230   300   299   ar
   231   300   302   ar
   232   413   414    1
   233   712   710   ar
   234   606   604    1
   235   606   625    1
   236   335   333   ar
   237   335   346    1
   238   630   617    1
   239   299   306   ar
   240   617   615   ar
   241   584   586   ar
   242   584   583   ar
   243   604   605    1
   244   604   603    1
   245   679   680    1
   246   333   334    1
   247     1    32    1
   248     1     2    1
   249   596   583    1
   250   621   611   ar
   251   621   614   ar
   252   392   393    2
   253   392   394   ar
   254   754   738    1
   255   395   394   ar
   256   395   396    2
   257   707   708    2
   258   707   709   ar
   259   730   749    1
   260   730   731    1
   261   730   732    1
   262   593   575    1
   263   611   612   ar
   264   586   587   ar
   265   583   581   ar
   266   314   302    1
   267   284   271    1
   268   290   287    1
   269   302   303   ar
   270   731   736    1
   271   365   376    1
   272   365   375    1
   273    21     2    1
   274   438   428    1
   275   272   271   ar
   276   272   274   ar
   277   437   427    1
   278   394   406    1
   279   622   603    1
   280   623   603    1
   281   710   709   ar
   282   710   711    1
   283    22     2    1
   284     2     3    1
   285   603   602    1
   286   306   316    1
   287   306   305   ar
   288   288   287    2
   289   414   431    1
   290   414   415    1
   291   414   416    1
   292   750   732    1
   293   615   614   ar
   294   615   616    2
   295   738   739   ar
   296   738   737   ar
   297   334   344    1
   298   334   345    1
   299   680   691    1
   300   680   690    1
   301   271   269   ar
   302   614   613   ar
   303   575   574    1
   304   415   420    1
   305   732   733    1
   306   732   734    1
   307    28    11    1
   308   432   416    1
   309   760   758    2
   310   739   740   ar
   311   274   275   ar
   312   594   576    1
   313   722   711    1
   314   733   758    1
   315   280   262    1
   316   428   427   ar
   317   428   421   ar
   318   441   439    2
   319   427   425   ar
   320   287   261    1
   321   287   289    1
   322   612   629    1
   323   612   613   ar
   324   711   721    1
   325   281   263    1
   326   587   580   ar
   327   587   577   ar
   328   416   417    1
   329   416   418    1
   330   581   582    2
   331   581   580   ar
   332   592   574    1
   333   303   305   ar
   334   303   304    2
   335   736   737    1
   336   736   753    1
   337   736   734    1
   338   417   439    1
   339   737   746   ar
   340   305   315    1
   341   263   262    1
   342   574   576    1
   343   574   572    1
   344   261   260    1
   345   602   599    1
   346   440   439    1
   347     3    23    1
   348     3     4    1
   349     3     5    1
   350   758   759    1
   351   758   761    1
   352    11    12   ar
   353    11    10   ar
   354   439   442    1
   355   576   577    1
   356   576   571    1
   357    12    13   ar
   358     4     9    1
   359   262   260    1
   360   262   264    1
   361   269   270    2
   362   269   268   ar
   363   562   550    1
   364   580   579   ar
   365   160   148    1
   366   734   735    1
   367   734   751    1
   368   752   735    1
   369   420   421    1
   370   420   418    1
   371   420   435    1
   372   577   578   ar
   373   421   422   ar
   374   756   742    1
   375   275   268   ar
   376   275   265   ar
   377   740   746   ar
   378   740   741   ar
   379   279   260    1
   380   425   426    2
   381   425   424   ar
   382   260   258    1
   383   159   146    1
   384    24     5    1
   385   746   745   ar
   386   418   433    1
   387   418   419    1
   388    35    33    2
   389   268   267   ar
   390   600   599    2
   391     5     6    1
   392     5     7    1
   393   148   161    1
   394   148   147    1
   395   599   573    1
   396   599   601    1
   397   549   548    2
   398   571   570    1
   399   573   572    1
   400    10     9    1
   401    10    20   ar
   402   550   548   ar
   403   550   551   ar
   404   552   551    2
   405   572   570    1
   406   572   591    1
   407   742   741    1
   408   742   755    1
   409   590   570    1
   410   264   265    1
   411   264   282    1
   412   264   259    1
   413     9    27    1
   414     9     7    1
   415   741   743   ar
   416     6    33    1
   417   265   266   ar
   418   761   762    1
   419    13    20   ar
   420    13    14   ar
   421   579   578   ar
   422   419   434    1
   423   578   595    1
   424   460   443    1
   425   442   443    1
   426   422   424   ar
   427   422   423    2
   428   146   147   ar
   429   146   144   ar
   430   424   436    1
   431   570   569    1
   432    15    14    2
   433   788   771    1
   434   548   547   ar
   435   551   553   ar
   436    33    34    1
   437    33    36    1
   438   745   744   ar
   439   459   443    1
   440   809   808    2
   441   147   149   ar
   442   145   144    2
   443   772   771   ar
   444   772   773   ar
   445   471   469    2
   446   258   278    1
   447   258   259    1
   448   258   257    1
   449    20    19   ar
   450   443   444    1
   451   781   762    1
   452   237   236    2
   453    14    16   ar
   454    95    84    1
   455     7     8    1
   456     7    25    1
   457   267   266   ar
   458   248   233    1
   459   771   770   ar
   460   250   238    1
   461   144   143   ar
   462   233   232    1
   463   762   782    1
   464   762   763    1
   465   266   283    1
   466   775   774    2
   467   743   744   ar
   468   277   257    1
   469   850   839    1
   470   851   839    1
   471   744   757    1
   472   256   257    1
   473   256   253    1
   474    94    84    1
   475     8    26    1
   476   820   810    1
   477   257   276    1
   478    84    83    1
   479   500   486    1
   480    47    46   ar
   481    47    48   ar
   482    63    46    1
   483   808   810   ar
   484   808   807   ar
   485   773   774   ar
   486   773   780   ar
   487   559   544    1
   488   115   114    2
   489   839   838    1
   490   470   469    1
   491   149   150   ar
   492   236   238   ar
   493   236   235   ar
   494    50    49    2
   495   547   554   ar
   496   547   546    1
   497    36    37    1
   498   569   588    1
   499   569   589    1
   500   569   568    1
   501   469   447    1
   502   469   472    1
   503   553   563    1
   504   553   554   ar
   505   238   239   ar
   506   774   776   ar
   507   561   546    1
   508   764   763    1
   509   764   769    1
   510   462   446    1
   511    19    17   ar
   512    16    29    1
   513    16    17   ar
   514   810   811   ar
   515    46    45   ar
   516   249   234    1
   517    96    85    1
   518   444   461    1
   519   444   446    1
   520   444   445    1
   521   447   446    1
   522   770   780   ar
   523   770   769    1
   524   499   486    1
   525   143   150   ar
   526   143   142   ar
   527   819   807    1
   528   784   765    1
   529   568   565    1
   530   545   560    1
   531   545   544    1
   532   763   765    1
   533   763   783    1
   534   254   253    2
   535   231   253    1
   536   231   230    1
   537   125   113    1
   538   486   485    1
   539   232   247    1
   540   232   234    1
   541   232   230    1
   542   544   546    1
   543   544   542    1
   544   554   564    1
   545   546   541    1
   546   446   448    1
   547   150   140   ar
   548   253   255    1
   549   807   805   ar
   550    48    49   ar
   551    48    55   ar
   552   504   502    2
   553   483   482   ar
   554   483   484   ar
   555    17    18    1
   556   468   458    1
   557    49    51   ar
   558   780   779   ar
   559    83    85   ar
   560    83    82   ar
   561   114   113   ar
   562   114   116   ar
   563    56    37    1
   564   498   482    1
   565   234   235    1
   566   234   229    1
   567   769   787    1
   568   769   767    1
   569   240   239    2
   570   235   242   ar
   571    85    86   ar
   572   239   241   ar
   573    37    57    1
   574    37    38    1
   575   765   766    1
   576   765   767    1
   577   445   450    1
   578   794   792    2
   579   472   473    1
   580   838   837   ar
   581   838   840   ar
   582   230   246    1
   583   230   228    1
   584   776   789    1
   585   776   777   ar
   586   113   111   ar
   587   525   506    1
   588   142   141   ar
   589   482   481   ar
   590   852   840    1
   591   811   821    1
   592   811   804   ar
   593   467   457    1
   594    45    55   ar
   595    45    44    1
   596   485   484   ar
   597   485   487   ar
   598   837   835   ar
   599   484   490   ar
   600   494   476    1
   601   126   116    1
   602    39    38    1
   603    39    44    1
   604   458   457   ar
   605   458   451   ar
   606   533   519    1
   607    59    40    1
   608    82    80   ar
   609   140   141   ar
   610   140   139    1
   611   840   841   ar
   612   565   567    2
   613   565   543    1
   614   565   566    1
   615    55    54   ar
   616   766   792    1
   617   767   785    1
   618   767   768    1
   619   541   540    1
   620   116   117   ar
   621   464   449    1
   622   542   558    1
   623   542   543    1
   624   542   540    1
   625   532   519    1
   626   779   777   ar
   627   805   804   ar
   628   805   806    2
   629    18    31    1
   630    18    30    1
   631    51    64    1
   632    51    52   ar
   633   448   450    1
   634   448   463    1
   635   448   449    1
   636   492   473    1
   637   157   139    1
   638   777   778    1
   639   502   505    1
   640   502   503    1
   641   502   477    1
   642    38    40    1
   643    38    58    1
   644   242   241   ar
   645   242   252    1
   646   229   228    1
   647   519   518    1
   648   141   158    1
   649   241   251    1
   650   457   455   ar
   651    69    67    2
   652   450   451    1
   653   450   465    1
   654   473   491    1
   655   473   474    1
   656    86    97    1
   657    86    79   ar
   658   792   795    1
   659   792   793    1
   660   526   507    1
   661   506   505    1
   662   506   507    1
   663   506   524    1
   664   804   803    1
   665   111   112    2
   666   111   110   ar
   667   156   138    1
   668   138   137    1
   669    44    62    1
   670    44    42    1
   671   228   245    1
   672   228   227    1
   673   516   515   ar
   674   516   517   ar
   675   508   507    1
   676   508   513    1
   677   451   452   ar
   678    40    42    1
   679    40    41    1
   680   139   137    1
   681   139   134    1
   682   481   490   ar
   683   481   480    1
   684   531   515    1
   685   487   488   ar
   686   518   517   ar
   687   518   520   ar
   688   540   557    1
   689   540   539    1
   690   476   477    1
   691   476   474    1
   692   476   478    1
   693   507   509    1
   694   515   514   ar
   695   517   523   ar
   696   490   489   ar
   697   835   836    2
   698   835   834   ar
   699   795   796    1
   700   244   227    1
   701   495   478    1
   702   768   786    1
   703    80    79   ar
   704    80    81    2
   705   117   110   ar
   706   117   127    1
   707   520   521   ar
   708    54    52   ar
   709    52    53    1
   710   841   834   ar
   711   841   853    1
   712   137   155    1
   713   137   135    1
   714   474   475    1
   715   474   493    1
   716   778   790    1
   717   778   791    1
   718    42    60    1
   719    42    43    1
   720    79    78    1
   721   514   523   ar
   722   514   513    1
   723   110   109    1
   724   523   522   ar
   725   227   243    1
   726   227   226    1
   727   478   480    1
   728   478   479    1
   729    67    41    1
   730    67    70    1
   731    67    68    1
   732   455   456    2
   733   455   454   ar
   734   475   480    1
   735   521   522   ar
   736   521   534    1
   737   513   530    1
   738   513   511    1
   739   480   497    1
   740   834   833    1
   741   803   798    1
   742   803   818    1
   743   803   801    1
   744   134   133    1
   745   488   489   ar
   746   488   501    1
   747   815   799    1
   748    70    71    1
   749   452   454   ar
   750   452   453    2
   751   538   539    1
   752   538   535    1
   753   798   797    1
   754   539   555    1
   755   539   556    1
   756   136   135    1
   757   136   162    1
   758    90    74    1
   759   816   801    1
   760   183   166    1
   761   192   181    1
   762   796   812    1
   763   796   797    1
   764   796   813    1
   765    53    65    1
   766    53    66    1
   767   509   527    1
   768   509   510    1
   769   509   511    1
   770   454   466    1
   771   168   173    1
   772   168   167    1
   773   122   107    1
   774   135   133    1
   775   135   154    1
   776   188   173    1
   777   824   822    2
   778   163   162    2
   779    43    61    1
   780   226   223    1
   781   187   172    1
   782   801   799    1
   783   801   802    1
   784   510   535    1
   785   799   797    1
   786   799   800    1
   787    78    73    1
   788    78    76    1
   789    78    93    1
   790    91    76    1
   791   797   814    1
   792   109   124    1
   793   109   107    1
   794   109   104    1
   795   528   511    1
   796   511   512    1
   797   184   167    1
   798   479   496    1
   799    73    72    1
   800   100    98    2
   801   133   153    1
   802   133   132    1
   803   843   826    1
   804    71    88    1
   805    71    72    1
   806    71    87    1
   807   181   180   ar
   808   181   174   ar
   809   173   174    1
   810   173   171    1
   811   847   831    1
   812   845   829    1
   813    74    76    1
   814    74    72    1
   815    74    75    1
   816   162   165    1
   817   162   164    1
   818   191   180    1
   819   166   167    1
   820   166   165    1
   821   166   182    1
   822   535   536    2
   823   535   537    1
   824   224   223    2
   825   167   169    1
   826   833   849    1
   827   833   831    1
   828   833   828    1
   829   107   108    1
   830   107   105    1
   831    76    77    1
   832   123   108    1
   833   121   105    1
   834    72    89    1
   835   172   171    1
   836   180   178   ar
   837   174   175   ar
   838   223   225    1
   839   223   201    1
   840   104   103    1
   841   131   132    1
   842   131   128    1
   843   831   829    1
   844   831   832    1
   845   800   822    1
   846   822   825    1
   847   822   823    1
   848   828   827    1
   849   802   817    1
   850   101    98    1
   851   101   102    1
   852   105   103    1
   853   105   106    1
   854   132   151    1
   855   132   152    1
   856   512   529    1
   857   829   827    1
   858   829   830    1
   859    98    75    1
   860    98    99    1
   861   826   825    1
   862   826   827    1
   863   826   842    1
   864   171   169    1
   865   171   186    1
   866   130   128    2
   867   169   185    1
   868   169   170    1
   869   827   844    1
   870   175   176    2
   871   175   177   ar
   872    77    92    1
   873   178   177   ar
   874   178   179    1
   875   103   102    1
   876   103   120    1
   877   128   106    1
   878   128   129    1
   879   190   179    1
   880   201   200    1
   881   848   832    1
   882   830   846    1
   883   102   119    1
   884   102   118    1
   885   179   189    1
   886   170   193    1
   887   216   200    1
   888   213   197    1
   889   218   203    1
   890   200   202    1
   891   200   198    1
   892   217   202    1
   893   202   203    1
   894   202   204    1
   895   197   198    1
   896   197   196    1
   897   197   214    1
   898   221   211    1
   899   222   212    1
   900   193   196    1
   901   193   194    2
   902   193   195    1
   903   198   215    1
   904   198   199    1
   905   211   212   ar
   906   211   209   ar
   907   212   205   ar
   908   204   205    1
   909   204   199    1
   910   204   219    1
   911   205   206   ar
   912   209   210    2
   913   209   208   ar
   914   208   206   ar
   915   208   220    1
   916   206   207    2
