1fyp_lig
 OpenBabel11021811393D
libRbt.so/2013.1/901 2013/11/27
 42 45  0  0  0  0  0  0  0  0999 V2000
    7.1126    6.0952   27.3606 C   0  0  2  0  0  0  0  0  0  0  0  0
    6.3921    7.1615   26.6777 O   0  0  0  0  0  0  0  0  0  0  0  0
    3.5468    7.7271   23.5432 C   0  0  2  0  0  0  0  0  0  0  0  0
    2.7879    7.7343   22.2789 N   0  0  0  0  0  0  0  0  0  0  0  0
    3.3587    4.1576   26.3085 C   0  0  1  0  0  0  0  0  0  0  0  0
    0.5195    0.7426   26.4399 C   0  0  1  0  0  0  0  0  0  0  0  0
    6.6307    5.9341   28.8384 C   0  0  2  0  0  0  0  0  0  0  0  0
    5.1582    5.8254   28.9135 N   0  0  0  0  0  0  0  0  0  0  0  0
    4.9814    8.2285   23.2831 C   0  0  0  0  0  0  0  0  0  0  0  0
    3.3751    2.7912   25.6184 C   0  0  2  0  0  0  0  0  0  0  0  0
    2.6081    2.8549   24.4154 O   0  0  0  0  0  0  0  0  0  0  0  0
    0.1928    0.4482   24.9440 C   0  0  2  0  0  0  0  0  0  0  0  0
   -0.3706    1.6258   24.2396 N   0  0  0  0  0  0  0  0  0  0  0  0
    7.1316    7.1212   29.7193 C   0  0  1  0  0  0  0  0  0  0  0  0
    6.8218    6.8814   31.0898 O   0  0  0  0  0  0  0  0  0  0  0  0
    5.8328    8.2731   24.5813 C   0  0  2  0  0  0  0  0  0  0  0  0
    7.2020    8.6862   24.2093 N   0  0  0  0  0  0  0  0  0  0  0  0
    2.6958    1.9032   26.6645 C   0  0  2  0  0  0  0  0  0  0  0  0
    1.2457    1.9907   26.5871 O   0  0  0  0  0  0  0  0  0  0  0  0
   -0.7437   -0.7924   24.8135 C   0  0  1  0  0  0  0  0  0  0  0  0
    0.0172   -1.9661   25.0911 O   0  0  0  0  0  0  0  0  0  0  0  0
    8.6613    7.3299   29.5892 C   0  0  2  0  0  0  0  0  0  0  0  0
    9.0392    8.4798   30.3399 O   0  0  0  0  0  0  0  0  0  0  0  0
    5.8363    6.9062   25.3558 C   0  0  2  0  0  0  0  0  0  0  0  0
    3.2036    2.5098   27.9801 C   0  0  2  0  0  0  0  0  0  0  0  0
    3.3816    3.9165   27.7246 O   0  0  0  0  0  0  0  0  0  0  0  0
   -1.9704   -0.7677   25.7751 C   0  0  2  0  0  0  0  0  0  0  0  0
   -2.9035    0.2021   25.2961 O   0  0  0  0  0  0  0  0  0  0  0  0
    9.0586    7.4967   28.0950 C   0  0  2  0  0  0  0  0  0  0  0  0
    8.5564    6.3556   27.3364 O   0  0  0  0  0  0  0  0  0  0  0  0
    4.4005    6.2851   25.5065 C   0  0  2  0  0  0  0  0  0  0  0  0
    4.5482    4.9015   25.9194 O   0  0  0  0  0  0  0  0  0  0  0  0
    4.5270    1.8876   28.4598 C   0  0  0  0  0  0  0  0  0  0  0  0
    5.1503    2.7116   29.4294 O   0  0  0  0  0  0  0  0  0  0  0  0
   -1.5273   -0.4167   27.2294 C   0  0  1  0  0  0  0  0  0  0  0  0
   -0.7248    0.8033   27.2166 O   0  0  0  0  0  0  0  0  0  0  0  0
   10.5795    7.5676   27.8323 C   0  0  0  0  0  0  0  0  0  0  0  0
   10.8635    7.5498   26.4436 O   0  0  0  0  0  0  0  0  0  0  0  0
    3.5813    6.3165   24.1789 C   0  0  1  0  0  0  0  0  0  0  0  0
    2.2463    5.8940   24.4530 O   0  0  0  0  0  0  0  0  0  0  0  0
   -2.7283   -0.2219   28.1899 C   0  0  0  0  0  0  0  0  0  0  0  0
   -3.5447   -1.4418   28.3256 N   0  0  0  0  0  0  0  0  0  0  0  0
  1  2  1  1  0  0  0
  1  7  1  0  0  0  0
  1 30  1  0  0  0  0
  3  4  1  6  0  0  0
  3  9  1  0  0  0  0
  3 39  1  0  0  0  0
  5 10  1  0  0  0  0
  5 26  1  0  0  0  0
  5 32  1  6  0  0  0
  6 12  1  0  0  0  0
  6 36  1  0  0  0  0
  6 19  1  6  0  0  0
  7  8  1  6  0  0  0
  7 14  1  0  0  0  0
  9 16  1  0  0  0  0
 10 11  1  6  0  0  0
 10 18  1  0  0  0  0
 12 13  1  1  0  0  0
 12 20  1  0  0  0  0
 14 15  1  1  0  0  0
 14 22  1  0  0  0  0
 16 17  1  6  0  0  0
 16 24  1  0  0  0  0
 18 19  1  1  0  0  0
 18 25  1  0  0  0  0
 20 21  1  1  0  0  0
 20 27  1  0  0  0  0
 22 23  1  1  0  0  0
 22 29  1  0  0  0  0
 24  2  1  1  0  0  0
 24 31  1  0  0  0  0
 25 26  1  0  0  0  0
 25 33  1  6  0  0  0
 27 28  1  6  0  0  0
 27 35  1  0  0  0  0
 29 30  1  0  0  0  0
 29 37  1  1  0  0  0
 31 32  1  6  0  0  0
 31 39  1  0  0  0  0
 33 34  1  0  0  0  0
 35 36  1  0  0  0  0
 35 41  1  1  0  0  0
 37 38  1  0  0  0  0
 39 40  1  1  0  0  0
 41 42  1  0  0  0  0
M  END
>  <CHROM.1>
-132.02789717,-150.30280524,118.88064209,-80.40150237,-167.71195483,-170.22921088
-60.67488992,-48.12182523,125.71865877,-95.78172361,-56.38111932,75.06464321
163.01146271,179.55343236,172.63283158,171.52285987,133.13184736,-42.24627512
61.63581998,-178.35249412,151.83190737,-175.53092126,3.72476250,4.22640080
26.58990497,-0.26085171,0.65665864,2.14516233

>  <Name>
1fyp_lig

>  <RI>
0

>  <Rbt.Current_Directory>
/home/itssahil/PROJECTS/Mol_Feturizer/New_Systems/rnas/1fyp

>  <Rbt.Executable>
rbdock ($Id: //depot/dev/client3/rdock/2013.1/src/exe/rbdock.cxx#4 $)

>  <Rbt.Library>
libRbt.so (2013.1, Build901 2013/11/27)

>  <Rbt.Parameter_File>
/export/apps/rDock/src/rDock_2013.1_src/data/scripts/dock_solv.prm

>  <Rbt.Receptor>
prm/pocket_docking_2.prm

>  <SCORE>
-45.9316

>  <SCORE.INTER>
-38.4074

>  <SCORE.INTER.CONST>
1

>  <SCORE.INTER.POLAR>
-4.38556

>  <SCORE.INTER.ROT>
14

>  <SCORE.INTER.SOLV>
17.4857

>  <SCORE.INTER.VDW>
-29.7483

>  <SCORE.INTER.norm>
-0.914462

>  <SCORE.INTRA>
-7.57315

>  <SCORE.INTRA.DIHEDRAL>
-8.84503

>  <SCORE.INTRA.DIHEDRAL.0>
48.7173

>  <SCORE.INTRA.POLAR>
-1.59307

>  <SCORE.INTRA.POLAR.0>
-1.54691

>  <SCORE.INTRA.REPUL>
0.0122787

>  <SCORE.INTRA.REPUL.0>
0

>  <SCORE.INTRA.SOLV>
-0.313717

>  <SCORE.INTRA.SOLV.lig_0>
-64.052

>  <SCORE.INTRA.VDW>
2.36126

>  <SCORE.INTRA.VDW.0>
-7.0667

>  <SCORE.INTRA.norm>
-0.180313

>  <SCORE.RESTR>
0.0489276

>  <SCORE.RESTR.CAVITY>
0.0489276

>  <SCORE.RESTR.norm>
0.00116494

>  <SCORE.SYSTEM>
0

>  <SCORE.SYSTEM.CONST>
0

>  <SCORE.SYSTEM.DIHEDRAL>
0

>  <SCORE.SYSTEM.SOLV>
0

>  <SCORE.SYSTEM.norm>
0

>  <SCORE.heavy>
42

>  <SCORE.norm>
-1.09361

>  <RMSD>
0.565

$$$$
1fyp_lig
 OpenBabel11021811393D
libRbt.so/2013.1/901 2013/11/27
 42 45  0  0  0  0  0  0  0  0999 V2000
    6.5088    5.7493   27.1847 C   0  0  2  0  0  0  0  0  0  0  0  0
    5.6544    6.7453   26.5521 O   0  0  0  0  0  0  0  0  0  0  0  0
    3.6404    7.7530   22.9232 C   0  0  2  0  0  0  0  0  0  0  0  0
    3.2172    7.9489   21.5243 N   0  0  0  0  0  0  0  0  0  0  0  0
    2.9979    3.8439   25.3707 C   0  0  1  0  0  0  0  0  0  0  0  0
    0.3214    0.3316   26.0209 C   0  0  1  0  0  0  0  0  0  0  0  0
    6.4363    5.8396   28.7431 C   0  0  2  0  0  0  0  0  0  0  0  0
    5.0355    5.8355   29.2159 N   0  0  0  0  0  0  0  0  0  0  0  0
    5.0627    8.3172   23.1126 C   0  0  0  0  0  0  0  0  0  0  0  0
    3.2077    2.3762   24.9892 C   0  0  2  0  0  0  0  0  0  0  0  0
    2.6494    2.1346   23.6971 O   0  0  0  0  0  0  0  0  0  0  0  0
   -0.2864   -0.2595   24.7123 C   0  0  2  0  0  0  0  0  0  0  0  0
   -1.0416    0.7474   23.9274 N   0  0  0  0  0  0  0  0  0  0  0  0
    7.1791    7.1106   29.2617 C   0  0  1  0  0  0  0  0  0  0  0  0
    7.2420    7.0966   30.6857 O   0  0  0  0  0  0  0  0  0  0  0  0
    5.5640    8.1688   24.5751 C   0  0  2  0  0  0  0  0  0  0  0  0
    6.9557    8.6627   24.6276 N   0  0  0  0  0  0  0  0  0  0  0  0
    2.4158    1.6520   26.0814 C   0  0  2  0  0  0  0  0  0  0  0  0
    0.9963    1.5916   25.7688 O   0  0  0  0  0  0  0  0  0  0  0  0
   -1.1639   -1.5111   25.0231 C   0  0  1  0  0  0  0  0  0  0  0  0
   -0.3024   -2.5974   25.3567 O   0  0  0  0  0  0  0  0  0  0  0  0
    8.6223    7.2016   28.7057 C   0  0  2  0  0  0  0  0  0  0  0  0
    9.2110    8.4243   29.1383 O   0  0  0  0  0  0  0  0  0  0  0  0
    5.4573    6.6954   25.1099 C   0  0  2  0  0  0  0  0  0  0  0  0
    2.6616    2.5469   27.3041 C   0  0  2  0  0  0  0  0  0  0  0  0
    2.7985    3.8869   26.7928 O   0  0  0  0  0  0  0  0  0  0  0  0
   -2.1694   -1.3078   26.1968 C   0  0  2  0  0  0  0  0  0  0  0  0
   -3.2296   -0.4634   25.7455 O   0  0  0  0  0  0  0  0  0  0  0  0
    8.6091    7.1198   27.1528 C   0  0  2  0  0  0  0  0  0  0  0  0
    7.8987    5.9124   26.7436 O   0  0  0  0  0  0  0  0  0  0  0  0
    4.0678    6.0305   24.7976 C   0  0  2  0  0  0  0  0  0  0  0  0
    4.1908    4.6017   25.0207 O   0  0  0  0  0  0  0  0  0  0  0  0
    3.9202    2.1521   28.0971 C   0  0  0  0  0  0  0  0  0  0  0  0
    4.0016    2.8795   29.3103 O   0  0  0  0  0  0  0  0  0  0  0  0
   -1.4592   -0.6684   27.4302 C   0  0  1  0  0  0  0  0  0  0  0  0
   -0.7407    0.5329   27.0142 O   0  0  0  0  0  0  0  0  0  0  0  0
   10.0056    7.0557   26.4948 C   0  0  0  0  0  0  0  0  0  0  0  0
   10.8029    8.1661   26.8697 O   0  0  0  0  0  0  0  0  0  0  0  0
    3.6005    6.2594   23.3266 C   0  0  1  0  0  0  0  0  0  0  0  0
    2.2665    5.7726   23.1877 O   0  0  0  0  0  0  0  0  0  0  0  0
   -2.4487   -0.2984   28.5647 C   0  0  0  0  0  0  0  0  0  0  0  0
   -3.2805   -1.4418   28.9816 N   0  0  0  0  0  0  0  0  0  0  0  0
  1  2  1  6  0  0  0
  1  7  1  0  0  0  0
  1 30  1  0  0  0  0
  3  4  1  6  0  0  0
  3  9  1  0  0  0  0
  3 39  1  0  0  0  0
  5 10  1  0  0  0  0
  5 26  1  0  0  0  0
  5 32  1  1  0  0  0
  6 12  1  0  0  0  0
  6 36  1  0  0  0  0
  6 19  1  6  0  0  0
  7  8  1  6  0  0  0
  7 14  1  0  0  0  0
  9 16  1  0  0  0  0
 10 11  1  6  0  0  0
 10 18  1  0  0  0  0
 12 13  1  1  0  0  0
 12 20  1  0  0  0  0
 14 15  1  1  0  0  0
 14 22  1  0  0  0  0
 16 17  1  6  0  0  0
 16 24  1  0  0  0  0
 18 19  1  6  0  0  0
 18 25  1  0  0  0  0
 20 21  1  1  0  0  0
 20 27  1  0  0  0  0
 22 23  1  6  0  0  0
 22 29  1  0  0  0  0
 24  2  1  1  0  0  0
 24 31  1  0  0  0  0
 25 26  1  0  0  0  0
 25 33  1  6  0  0  0
 27 28  1  6  0  0  0
 27 35  1  0  0  0  0
 29 30  1  0  0  0  0
 29 37  1  1  0  0  0
 31 32  1  6  0  0  0
 31 39  1  0  0  0  0
 33 34  1  0  0  0  0
 35 36  1  0  0  0  0
 35 41  1  1  0  0  0
 37 38  1  0  0  0  0
 39 40  1  1  0  0  0
 41 42  1  0  0  0  0
M  END
>  <CHROM.1>
-171.92248194,-136.48492170,-174.80482356,70.68897272,-163.08148139,43.42677886
-172.95478169,99.03976345,137.14860576,-119.70436923,-53.55867421,-63.39337614
-171.82173128,59.24725846,-56.83191061,153.69870226,156.48503676,167.86446027
54.22213896,59.39005897,65.70561434,148.18672795,3.50330657,4.01543089,26.24122316
-0.28236340,0.68796298,2.07927196

>  <Name>
1fyp_lig

>  <RI>
0

>  <Rbt.Current_Directory>
/home/itssahil/PROJECTS/Mol_Feturizer/New_Systems/rnas/1fyp

>  <Rbt.Executable>
rbdock ($Id: //depot/dev/client3/rdock/2013.1/src/exe/rbdock.cxx#4 $)

>  <Rbt.Library>
libRbt.so (2013.1, Build901 2013/11/27)

>  <Rbt.Parameter_File>
/export/apps/rDock/src/rDock_2013.1_src/data/scripts/dock_solv.prm

>  <Rbt.Receptor>
prm/pocket_docking_2.prm

>  <SCORE>
-49.4131

>  <SCORE.INTER>
-42.6168

>  <SCORE.INTER.CONST>
1

>  <SCORE.INTER.POLAR>
-4.36192

>  <SCORE.INTER.ROT>
14

>  <SCORE.INTER.SOLV>
18.8941

>  <SCORE.INTER.VDW>
-33.1029

>  <SCORE.INTER.norm>
-1.01469

>  <SCORE.INTRA>
-6.86239

>  <SCORE.INTRA.DIHEDRAL>
-17.3077

>  <SCORE.INTRA.DIHEDRAL.0>
48.7173

>  <SCORE.INTRA.POLAR>
0.268972

>  <SCORE.INTRA.POLAR.0>
-1.54691

>  <SCORE.INTRA.REPUL>
0

>  <SCORE.INTRA.REPUL.0>
0

>  <SCORE.INTRA.SOLV>
-1.22744

>  <SCORE.INTRA.SOLV.lig_0>
-64.052

>  <SCORE.INTRA.VDW>
1.4907

>  <SCORE.INTRA.VDW.0>
-7.0667

>  <SCORE.INTRA.norm>
-0.16339

>  <SCORE.RESTR>
0.0660873

>  <SCORE.RESTR.CAVITY>
0.0660873

>  <SCORE.RESTR.norm>
0.00157351

>  <SCORE.SYSTEM>
0

>  <SCORE.SYSTEM.CONST>
0

>  <SCORE.SYSTEM.DIHEDRAL>
0

>  <SCORE.SYSTEM.SOLV>
0

>  <SCORE.SYSTEM.norm>
0

>  <SCORE.heavy>
42

>  <SCORE.norm>
-1.1765

>  <RMSD>
0.622

$$$$
1fyp_lig
 OpenBabel11021811393D
libRbt.so/2013.1/901 2013/11/27
 42 45  0  0  0  0  0  0  0  0999 V2000
    6.6070    5.4805   26.8785 C   0  0  2  0  0  0  0  0  0  0  0  0
    5.8612    6.6109   26.3415 O   0  0  0  0  0  0  0  0  0  0  0  0
    3.4393    7.7827   23.0245 C   0  0  2  0  0  0  0  0  0  0  0  0
    2.8472    8.0276   21.6964 N   0  0  0  0  0  0  0  0  0  0  0  0
    2.9480    3.8476   25.4614 C   0  0  1  0  0  0  0  0  0  0  0  0
    0.2608    0.3912   25.8519 C   0  0  1  0  0  0  0  0  0  0  0  0
    6.4152    5.3504   28.4239 C   0  0  2  0  0  0  0  0  0  0  0  0
    4.9830    5.3700   28.7901 N   0  0  0  0  0  0  0  0  0  0  0  0
    4.8974    8.2837   23.0363 C   0  0  0  0  0  0  0  0  0  0  0  0
    3.0369    2.3856   25.0161 C   0  0  2  0  0  0  0  0  0  0  0  0
    2.3038    2.2109   23.8030 O   0  0  0  0  0  0  0  0  0  0  0  0
    0.0151    0.1174   24.3367 C   0  0  2  0  0  0  0  0  0  0  0  0
   -0.5799    1.2809   23.6349 N   0  0  0  0  0  0  0  0  0  0  0  0
    7.1821    6.4823   29.1767 C   0  0  1  0  0  0  0  0  0  0  0  0
    7.1303    6.2597   30.5836 O   0  0  0  0  0  0  0  0  0  0  0  0
    5.5772    8.0815   24.4181 C   0  0  2  0  0  0  0  0  0  0  0  0
    6.9842    8.5166   24.2969 N   0  0  0  0  0  0  0  0  0  0  0  0
    2.3614    1.6606   26.1833 C   0  0  2  0  0  0  0  0  0  0  0  0
    0.9119    1.6716   26.0594 O   0  0  0  0  0  0  0  0  0  0  0  0
   -0.8470   -1.1671   24.1368 C   0  0  1  0  0  0  0  0  0  0  0  0
   -0.0368   -2.3057   24.4211 O   0  0  0  0  0  0  0  0  0  0  0  0
    8.6680    6.5578   28.7443 C   0  0  2  0  0  0  0  0  0  0  0  0
    9.2858    7.6644   29.3942 O   0  0  0  0  0  0  0  0  0  0  0  0
    5.4766    6.6020   24.9367 C   0  0  2  0  0  0  0  0  0  0  0  0
    2.8067    2.5033   27.3866 C   0  0  2  0  0  0  0  0  0  0  0  0
    2.9383    3.8523   26.8980 O   0  0  0  0  0  0  0  0  0  0  0  0
   -2.1135   -1.2310   25.0434 C   0  0  2  0  0  0  0  0  0  0  0  0
   -3.0758   -0.3001   24.5456 O   0  0  0  0  0  0  0  0  0  0  0  0
    8.7744    6.7010   27.1995 C   0  0  2  0  0  0  0  0  0  0  0  0
    8.0345    5.6141   26.5663 O   0  0  0  0  0  0  0  0  0  0  0  0
    4.0307    6.0019   24.7971 C   0  0  2  0  0  0  0  0  0  0  0  0
    4.1192    4.5645   24.9775 O   0  0  0  0  0  0  0  0  0  0  0  0
    4.1381    2.0289   27.9955 C   0  0  0  0  0  0  0  0  0  0  0  0
    5.1986    2.1751   27.0673 O   0  0  0  0  0  0  0  0  0  0  0  0
   -1.7529   -0.8937   26.5234 C   0  0  1  0  0  0  0  0  0  0  0  0
   -1.0172    0.3668   26.5739 O   0  0  0  0  0  0  0  0  0  0  0  0
   10.2134    6.6410   26.6401 C   0  0  0  0  0  0  0  0  0  0  0  0
   10.9238    7.8361   26.9170 O   0  0  0  0  0  0  0  0  0  0  0  0
    3.3869    6.2831   23.4039 C   0  0  1  0  0  0  0  0  0  0  0  0
    2.0262    5.8548   23.4320 O   0  0  0  0  0  0  0  0  0  0  0  0
   -3.0029   -0.7864   27.4340 C   0  0  0  0  0  0  0  0  0  0  0  0
   -2.6664   -0.3608   28.8046 N   0  0  0  0  0  0  0  0  0  0  0  0
  1  2  1  1  0  0  0
  1  7  1  0  0  0  0
  1 30  1  0  0  0  0
  3  4  1  6  0  0  0
  3  9  1  0  0  0  0
  3 39  1  0  0  0  0
  5 10  1  0  0  0  0
  5 26  1  0  0  0  0
  5 32  1  1  0  0  0
  6 12  1  0  0  0  0
  6 36  1  0  0  0  0
  6 19  1  6  0  0  0
  7  8  1  6  0  0  0
  7 14  1  0  0  0  0
  9 16  1  0  0  0  0
 10 11  1  6  0  0  0
 10 18  1  0  0  0  0
 12 13  1  1  0  0  0
 12 20  1  0  0  0  0
 14 15  1  1  0  0  0
 14 22  1  0  0  0  0
 16 17  1  6  0  0  0
 16 24  1  0  0  0  0
 18 19  1  6  0  0  0
 18 25  1  0  0  0  0
 20 21  1  1  0  0  0
 20 27  1  0  0  0  0
 22 23  1  1  0  0  0
 22 29  1  0  0  0  0
 24  2  1  1  0  0  0
 24 31  1  0  0  0  0
 25 26  1  0  0  0  0
 25 33  1  6  0  0  0
 27 28  1  6  0  0  0
 27 35  1  0  0  0  0
 29 30  1  0  0  0  0
 29 37  1  1  0  0  0
 31 32  1  6  0  0  0
 31 39  1  0  0  0  0
 33 34  1  0  0  0  0
 35 36  1  0  0  0  0
 35 41  1  1  0  0  0
 37 38  1  0  0  0  0
 39 40  1  1  0  0  0
 41 42  1  0  0  0  0
M  END
>  <CHROM.1>
-155.99790157,-144.05421155,61.92626972,45.69197269,-71.13035200,-177.25957133
-174.45297457,-169.19879410,114.15073828,-95.08127178,-47.68884802,-162.84219199
63.80526648,-82.38069265,-73.89603201,153.97371444,155.80804945,68.97813396
-175.35414165,-147.29328179,-57.56458552,89.75367118,3.54927880,3.90943894
25.98350672,-0.29705672,0.63636206,2.22432089

>  <Name>
1fyp_lig

>  <RI>
0

>  <Rbt.Current_Directory>
/home/itssahil/PROJECTS/Mol_Feturizer/New_Systems/rnas/1fyp

>  <Rbt.Executable>
rbdock ($Id: //depot/dev/client3/rdock/2013.1/src/exe/rbdock.cxx#4 $)

>  <Rbt.Library>
libRbt.so (2013.1, Build901 2013/11/27)

>  <Rbt.Parameter_File>
/export/apps/rDock/src/rDock_2013.1_src/data/scripts/dock_solv.prm

>  <Rbt.Receptor>
prm/pocket_docking_2.prm

>  <SCORE>
-53.1249

>  <SCORE.INTER>
-45.5063

>  <SCORE.INTER.CONST>
1

>  <SCORE.INTER.POLAR>
-5.01988

>  <SCORE.INTER.ROT>
14

>  <SCORE.INTER.SOLV>
18.3675

>  <SCORE.INTER.VDW>
-32.6604

>  <SCORE.INTER.norm>
-1.08348

>  <SCORE.INTRA>
-7.83888

>  <SCORE.INTRA.DIHEDRAL>
-12.1344

>  <SCORE.INTRA.DIHEDRAL.0>
48.7173

>  <SCORE.INTRA.POLAR>
-1.06254

>  <SCORE.INTRA.POLAR.0>
-1.54691

>  <SCORE.INTRA.REPUL>
0.0230794

>  <SCORE.INTRA.REPUL.0>
0

>  <SCORE.INTRA.SOLV>
0.456301

>  <SCORE.INTRA.SOLV.lig_0>
-64.052

>  <SCORE.INTRA.VDW>
1.49741

>  <SCORE.INTRA.VDW.0>
-7.0667

>  <SCORE.INTRA.norm>
-0.18664

>  <SCORE.RESTR>
0.220233

>  <SCORE.RESTR.CAVITY>
0.220233

>  <SCORE.RESTR.norm>
0.00524365

>  <SCORE.SYSTEM>
0

>  <SCORE.SYSTEM.CONST>
0

>  <SCORE.SYSTEM.DIHEDRAL>
0

>  <SCORE.SYSTEM.SOLV>
0

>  <SCORE.SYSTEM.norm>
0

>  <SCORE.heavy>
42

>  <SCORE.norm>
-1.26488

>  <RMSD>
0.722

$$$$
1fyp_lig
 OpenBabel11021811393D
libRbt.so/2013.1/901 2013/11/27
 42 45  0  0  0  0  0  0  0  0999 V2000
    6.3224    5.4131   27.2120 C   0  0  2  0  0  0  0  0  0  0  0  0
    5.2970    6.2867   26.6573 O   0  0  0  0  0  0  0  0  0  0  0  0
    3.4980    7.7538   23.0723 C   0  0  2  0  0  0  0  0  0  0  0  0
    3.1444    8.1042   21.6843 N   0  0  0  0  0  0  0  0  0  0  0  0
    2.7051    3.7253   25.6277 C   0  0  1  0  0  0  0  0  0  0  0  0
    0.1993    0.3247   26.6301 C   0  0  1  0  0  0  0  0  0  0  0  0
    6.2527    5.3677   28.7725 C   0  0  2  0  0  0  0  0  0  0  0  0
    4.8806    5.0768   29.2397 N   0  0  0  0  0  0  0  0  0  0  0  0
    4.9445    8.2017   23.3617 C   0  0  0  0  0  0  0  0  0  0  0  0
    2.7627    2.2233   25.3374 C   0  0  2  0  0  0  0  0  0  0  0  0
    1.8491    1.9049   24.2869 O   0  0  0  0  0  0  0  0  0  0  0  0
   -0.1493    0.0414   25.1370 C   0  0  2  0  0  0  0  0  0  0  0  0
   -0.7994    1.1973   24.4727 N   0  0  0  0  0  0  0  0  0  0  0  0
    6.7630    6.7066   29.3912 C   0  0  1  0  0  0  0  0  0  0  0  0
    6.8437    6.5935   30.8098 O   0  0  0  0  0  0  0  0  0  0  0  0
    5.3765    7.8873   24.8201 C   0  0  2  0  0  0  0  0  0  0  0  0
    6.7937    8.2798   24.9658 N   0  0  0  0  0  0  0  0  0  0  0  0
    2.3048    1.6282   26.6718 C   0  0  2  0  0  0  0  0  0  0  0  0
    0.8545    1.6105   26.7856 O   0  0  0  0  0  0  0  0  0  0  0  0
   -1.0143   -1.2497   25.0037 C   0  0  1  0  0  0  0  0  0  0  0  0
   -0.1786   -2.3815   25.2364 O   0  0  0  0  0  0  0  0  0  0  0  0
    8.1605    7.0968   28.8478 C   0  0  2  0  0  0  0  0  0  0  0  0
    8.5268    8.3676   29.3767 O   0  0  0  0  0  0  0  0  0  0  0  0
    5.1549    6.3818   25.2108 C   0  0  2  0  0  0  0  0  0  0  0  0
    2.9138    2.6063   27.6862 C   0  0  2  0  0  0  0  0  0  0  0  0
    2.9268    3.8925   27.0372 O   0  0  0  0  0  0  0  0  0  0  0  0
   -2.2143   -1.3171   25.9965 C   0  0  2  0  0  0  0  0  0  0  0  0
   -3.2152   -0.3950   25.5623 O   0  0  0  0  0  0  0  0  0  0  0  0
    8.1444    7.1348   27.2933 C   0  0  2  0  0  0  0  0  0  0  0  0
    7.6558    5.8556   26.7886 O   0  0  0  0  0  0  0  0  0  0  0  0
    3.7395    5.8429   24.7907 C   0  0  2  0  0  0  0  0  0  0  0  0
    3.7623    4.3946   24.8832 O   0  0  0  0  0  0  0  0  0  0  0  0
    4.3389    2.2173   28.1182 C   0  0  0  0  0  0  0  0  0  0  0  0
    4.3597    0.9153   28.6766 O   0  0  0  0  0  0  0  0  0  0  0  0
   -1.7540   -0.9696   27.4462 C   0  0  1  0  0  0  0  0  0  0  0  0
   -1.0252    0.2959   27.4394 O   0  0  0  0  0  0  0  0  0  0  0  0
    9.5222    7.3724   26.6359 C   0  0  0  0  0  0  0  0  0  0  0  0
   10.4859    6.4479   27.1114 O   0  0  0  0  0  0  0  0  0  0  0  0
    3.3469    6.2356   23.3326 C   0  0  1  0  0  0  0  0  0  0  0  0
    1.9912    5.8542   23.1036 O   0  0  0  0  0  0  0  0  0  0  0  0
   -2.9384   -0.8656   28.4410 C   0  0  0  0  0  0  0  0  0  0  0  0
   -3.9369    0.1358   28.0250 N   0  0  0  0  0  0  0  0  0  0  0  0
  1  2  1  1  0  0  0
  1  7  1  0  0  0  0
  1 30  1  0  0  0  0
  3  4  1  6  0  0  0
  3  9  1  0  0  0  0
  3 39  1  0  0  0  0
  5 10  1  0  0  0  0
  5 26  1  0  0  0  0
  5 32  1  6  0  0  0
  6 12  1  0  0  0  0
  6 36  1  0  0  0  0
  6 19  1  6  0  0  0
  7  8  1  6  0  0  0
  7 14  1  0  0  0  0
  9 16  1  0  0  0  0
 10 11  1  6  0  0  0
 10 18  1  0  0  0  0
 12 13  1  1  0  0  0
 12 20  1  0  0  0  0
 14 15  1  1  0  0  0
 14 22  1  0  0  0  0
 16 17  1  6  0  0  0
 16 24  1  0  0  0  0
 18 19  1  6  0  0  0
 18 25  1  0  0  0  0
 20 21  1  1  0  0  0
 20 27  1  0  0  0  0
 22 23  1  1  0  0  0
 22 29  1  0  0  0  0
 24  2  1  1  0  0  0
 24 31  1  0  0  0  0
 25 26  1  0  0  0  0
 25 33  1  6  0  0  0
 27 28  1  6  0  0  0
 27 35  1  0  0  0  0
 29 30  1  0  0  0  0
 29 37  1  6  0  0  0
 31 32  1  6  0  0  0
 31 39  1  0  0  0  0
 33 34  1  0  0  0  0
 35 36  1  0  0  0  0
 35 41  1  1  0  0  0
 37 38  1  0  0  0  0
 39 40  1  1  0  0  0
 41 42  1  0  0  0  0
M  END
>  <CHROM.1>
-175.96496554,-120.70493173,165.28721257,-111.44364769,169.56700247,63.48011385
-72.79706155,-36.96576448,105.26204274,-88.98296592,-56.53086928,175.31107193
-57.73505867,-48.27467031,52.83711469,129.07642193,167.89311832,69.20223826
-57.49984754,67.20841380,-178.11004765,-80.20837364,3.29776001,3.85569027
26.36458870,-0.34494212,0.64053976,2.19694715

>  <Name>
1fyp_lig

>  <RI>
0

>  <Rbt.Current_Directory>
/home/itssahil/PROJECTS/Mol_Feturizer/New_Systems/rnas/1fyp

>  <Rbt.Executable>
rbdock ($Id: //depot/dev/client3/rdock/2013.1/src/exe/rbdock.cxx#4 $)

>  <Rbt.Library>
libRbt.so (2013.1, Build901 2013/11/27)

>  <Rbt.Parameter_File>
/export/apps/rDock/src/rDock_2013.1_src/data/scripts/dock_solv.prm

>  <Rbt.Receptor>
prm/pocket_docking_2.prm

>  <SCORE>
-59.1758

>  <SCORE.INTER>
-50.2584

>  <SCORE.INTER.CONST>
1

>  <SCORE.INTER.POLAR>
-5.56199

>  <SCORE.INTER.ROT>
14

>  <SCORE.INTER.SOLV>
18.9863

>  <SCORE.INTER.VDW>
-34.2277

>  <SCORE.INTER.norm>
-1.19663

>  <SCORE.INTRA>
-9.28119

>  <SCORE.INTRA.DIHEDRAL>
-17.1492

>  <SCORE.INTRA.DIHEDRAL.0>
48.7173

>  <SCORE.INTRA.POLAR>
-0.489028

>  <SCORE.INTRA.POLAR.0>
-1.54691

>  <SCORE.INTRA.REPUL>
0

>  <SCORE.INTRA.REPUL.0>
0

>  <SCORE.INTRA.SOLV>
0.0586038

>  <SCORE.INTRA.SOLV.lig_0>
-64.052

>  <SCORE.INTRA.VDW>
0.926796

>  <SCORE.INTRA.VDW.0>
-7.0667

>  <SCORE.INTRA.norm>
-0.220981

>  <SCORE.RESTR>
0.363787

>  <SCORE.RESTR.CAVITY>
0.363787

>  <SCORE.RESTR.norm>
0.00866159

>  <SCORE.SYSTEM>
0

>  <SCORE.SYSTEM.CONST>
0

>  <SCORE.SYSTEM.DIHEDRAL>
0

>  <SCORE.SYSTEM.SOLV>
0

>  <SCORE.SYSTEM.norm>
0

>  <SCORE.heavy>
42

>  <SCORE.norm>
-1.40895

>  <RMSD>
0.758

$$$$
1fyp_lig
 OpenBabel11021811393D
libRbt.so/2013.1/901 2013/11/27
 42 45  0  0  0  0  0  0  0  0999 V2000
    6.5131    5.6353   27.4226 C   0  0  2  0  0  0  0  0  0  0  0  0
    5.7199    6.6969   26.8175 O   0  0  0  0  0  0  0  0  0  0  0  0
    3.5265    7.7224   23.2992 C   0  0  2  0  0  0  0  0  0  0  0  0
    3.0320    7.9222   21.9245 N   0  0  0  0  0  0  0  0  0  0  0  0
    2.9464    3.7680   25.4665 C   0  0  1  0  0  0  0  0  0  0  0  0
    0.2991    0.1751   25.5732 C   0  0  1  0  0  0  0  0  0  0  0  0
    6.4625    5.7015   28.9831 C   0  0  2  0  0  0  0  0  0  0  0  0
    5.0694    5.7809   29.4716 N   0  0  0  0  0  0  0  0  0  0  0  0
    4.9614    8.2746   23.4135 C   0  0  0  0  0  0  0  0  0  0  0  0
    3.2755    2.3118   25.1276 C   0  0  2  0  0  0  0  0  0  0  0  0
    2.9944    2.0675   23.7489 O   0  0  0  0  0  0  0  0  0  0  0  0
    0.0828   -0.4950   24.1821 C   0  0  2  0  0  0  0  0  0  0  0  0
   -0.4632    0.4456   23.1734 N   0  0  0  0  0  0  0  0  0  0  0  0
    7.2928    6.9111   29.5157 C   0  0  1  0  0  0  0  0  0  0  0  0
    7.3691    6.8668   30.9383 O   0  0  0  0  0  0  0  0  0  0  0  0
    5.5376    8.1216   24.8477 C   0  0  2  0  0  0  0  0  0  0  0  0
    6.9343    8.6038   24.8269 N   0  0  0  0  0  0  0  0  0  0  0  0
    2.3054    1.5515   26.0361 C   0  0  2  0  0  0  0  0  0  0  0  0
    0.9795    1.4509   25.4459 O   0  0  0  0  0  0  0  0  0  0  0  0
   -0.8087   -1.7684   24.3114 C   0  0  1  0  0  0  0  0  0  0  0  0
   -0.0369   -2.8026   24.9182 O   0  0  0  0  0  0  0  0  0  0  0  0
    8.7331    6.9172   28.9450 C   0  0  2  0  0  0  0  0  0  0  0  0
    9.4056    8.0903   29.3925 O   0  0  0  0  0  0  0  0  0  0  0  0
    5.4468    6.6490   25.3876 C   0  0  2  0  0  0  0  0  0  0  0  0
    2.2731    2.4399   27.2875 C   0  0  2  0  0  0  0  0  0  0  0  0
    2.4659    3.7891   26.8202 O   0  0  0  0  0  0  0  0  0  0  0  0
   -2.0981   -1.5589   25.1621 C   0  0  2  0  0  0  0  0  0  0  0  0
   -3.0225   -0.7795   24.4014 O   0  0  0  0  0  0  0  0  0  0  0  0
    8.6989    6.8649   27.3912 C   0  0  2  0  0  0  0  0  0  0  0  0
    7.9062    5.7147   26.9687 O   0  0  0  0  0  0  0  0  0  0  0  0
    4.0374    5.9959   25.1489 C   0  0  2  0  0  0  0  0  0  0  0  0
    4.1600    4.5660   25.3654 O   0  0  0  0  0  0  0  0  0  0  0  0
    3.3602    2.0752   28.3141 C   0  0  0  0  0  0  0  0  0  0  0  0
    4.6540    2.2891   27.7773 O   0  0  0  0  0  0  0  0  0  0  0  0
   -1.7643   -0.8393   26.5057 C   0  0  1  0  0  0  0  0  0  0  0  0
   -0.9962    0.3728   26.2353 O   0  0  0  0  0  0  0  0  0  0  0  0
   10.0813    6.7212   26.7164 C   0  0  0  0  0  0  0  0  0  0  0  0
   11.0992    7.3292   27.4932 O   0  0  0  0  0  0  0  0  0  0  0  0
    3.4953    6.2290   23.7045 C   0  0  1  0  0  0  0  0  0  0  0  0
    2.1518    5.7535   23.6360 O   0  0  0  0  0  0  0  0  0  0  0  0
   -3.0327   -0.4644   27.3144 C   0  0  0  0  0  0  0  0  0  0  0  0
   -2.7104    0.1709   28.6050 N   0  0  0  0  0  0  0  0  0  0  0  0
  1  2  1  6  0  0  0
  1  7  1  0  0  0  0
  1 30  1  0  0  0  0
  3  4  1  6  0  0  0
  3  9  1  0  0  0  0
  3 39  1  0  0  0  0
  5 10  1  0  0  0  0
  5 26  1  0  0  0  0
  5 32  1  1  0  0  0
  6 12  1  0  0  0  0
  6 36  1  0  0  0  0
  6 19  1  6  0  0  0
  7  8  1  6  0  0  0
  7 14  1  0  0  0  0
  9 16  1  0  0  0  0
 10 11  1  6  0  0  0
 10 18  1  0  0  0  0
 12 13  1  6  0  0  0
 12 20  1  0  0  0  0
 14 15  1  1  0  0  0
 14 22  1  0  0  0  0
 16 17  1  6  0  0  0
 16 24  1  0  0  0  0
 18 19  1  6  0  0  0
 18 25  1  0  0  0  0
 20 21  1  1  0  0  0
 20 27  1  0  0  0  0
 22 23  1  6  0  0  0
 22 29  1  0  0  0  0
 24  2  1  1  0  0  0
 24 31  1  0  0  0  0
 25 26  1  0  0  0  0
 25 33  1  1  0  0  0
 27 28  1  6  0  0  0
 27 35  1  0  0  0  0
 29 30  1  0  0  0  0
 29 37  1  1  0  0  0
 31 32  1  6  0  0  0
 31 39  1  0  0  0  0
 33 34  1  0  0  0  0
 35 36  1  0  0  0  0
 35 41  1  6  0  0  0
 37 38  1  0  0  0  0
 39 40  1  1  0  0  0
 41 42  1  0  0  0  0
M  END
>  <CHROM.1>
-168.75616794,-141.19251991,-177.88342852,179.76488777,-155.18099233,-164.05622892
-176.51786466,79.16134572,138.23060759,-115.17217640,-178.55219504,179.02496565
63.73349624,-66.04972696,-30.26651832,167.96586291,157.38954039,66.04366534
177.91549455,80.42221754,61.70660199,-97.72661335,3.53922666,3.89194950,26.15833497
-0.24550546,0.69253103,2.18760228

>  <Name>
1fyp_lig

>  <RI>
0

>  <Rbt.Current_Directory>
/home/itssahil/PROJECTS/Mol_Feturizer/New_Systems/rnas/1fyp

>  <Rbt.Executable>
rbdock ($Id: //depot/dev/client3/rdock/2013.1/src/exe/rbdock.cxx#4 $)

>  <Rbt.Library>
libRbt.so (2013.1, Build901 2013/11/27)

>  <Rbt.Parameter_File>
/export/apps/rDock/src/rDock_2013.1_src/data/scripts/dock_solv.prm

>  <Rbt.Receptor>
prm/pocket_docking_2.prm

>  <SCORE>
-41.7608

>  <SCORE.INTER>
-40.5614

>  <SCORE.INTER.CONST>
1

>  <SCORE.INTER.POLAR>
-4.01278

>  <SCORE.INTER.ROT>
14

>  <SCORE.INTER.SOLV>
18.1911

>  <SCORE.INTER.VDW>
-32.6621

>  <SCORE.INTER.norm>
-0.965749

>  <SCORE.INTRA>
-1.19935

>  <SCORE.INTRA.DIHEDRAL>
-17.0428

>  <SCORE.INTRA.DIHEDRAL.0>
48.7173

>  <SCORE.INTRA.POLAR>
1.20747

>  <SCORE.INTRA.POLAR.0>
-1.54691

>  <SCORE.INTRA.REPUL>
0.0864452

>  <SCORE.INTRA.REPUL.0>
0

>  <SCORE.INTRA.SOLV>
-0.855118

>  <SCORE.INTRA.SOLV.lig_0>
-64.052

>  <SCORE.INTRA.VDW>
3.21201

>  <SCORE.INTRA.VDW.0>
-7.0667

>  <SCORE.INTRA.norm>
-0.0285559

>  <SCORE.RESTR>
0

>  <SCORE.RESTR.CAVITY>
0

>  <SCORE.RESTR.norm>
0

>  <SCORE.SYSTEM>
0

>  <SCORE.SYSTEM.CONST>
0

>  <SCORE.SYSTEM.DIHEDRAL>
0

>  <SCORE.SYSTEM.SOLV>
0

>  <SCORE.SYSTEM.norm>
0

>  <SCORE.heavy>
42

>  <SCORE.norm>
-0.994304

>  <RMSD>
0.850

$$$$
1fyp_lig
 OpenBabel11021811393D
libRbt.so/2013.1/901 2013/11/27
 42 45  0  0  0  0  0  0  0  0999 V2000
    6.4314    5.3798   27.1031 C   0  0  2  0  0  0  0  0  0  0  0  0
    5.3839    6.2480   26.5823 O   0  0  0  0  0  0  0  0  0  0  0  0
    3.4901    7.7394   23.0567 C   0  0  2  0  0  0  0  0  0  0  0  0
    3.0965    8.0946   21.6807 N   0  0  0  0  0  0  0  0  0  0  0  0
    2.5924    3.7064   25.3988 C   0  0  1  0  0  0  0  0  0  0  0  0
   -0.0053    0.2621   26.1933 C   0  0  1  0  0  0  0  0  0  0  0  0
    6.4034    5.3222   28.6645 C   0  0  2  0  0  0  0  0  0  0  0  0
    5.0468    5.0154   29.1656 N   0  0  0  0  0  0  0  0  0  0  0  0
    4.9512    8.1675   23.2990 C   0  0  0  0  0  0  0  0  0  0  0  0
    2.7481    2.1953   25.2094 C   0  0  2  0  0  0  0  0  0  0  0  0
    2.0879    1.7944   24.0081 O   0  0  0  0  0  0  0  0  0  0  0  0
    0.1519   -0.3702   24.7767 C   0  0  2  0  0  0  0  0  0  0  0  0
   -0.2162    0.5679   23.6882 N   0  0  0  0  0  0  0  0  0  0  0  0
    6.9179    6.6612   29.2797 C   0  0  1  0  0  0  0  0  0  0  0  0
    7.0371    6.5383   30.6948 O   0  0  0  0  0  0  0  0  0  0  0  0
    5.4258    7.8473   24.7428 C   0  0  2  0  0  0  0  0  0  0  0  0
    6.8522    8.2204   24.8423 N   0  0  0  0  0  0  0  0  0  0  0  0
    2.0311    1.6486   26.4469 C   0  0  2  0  0  0  0  0  0  0  0  0
    0.5908    1.5841   26.2518 O   0  0  0  0  0  0  0  0  0  0  0  0
   -0.6498   -1.7040   24.6714 C   0  0  1  0  0  0  0  0  0  0  0  0
    0.0364   -2.7058   25.4192 O   0  0  0  0  0  0  0  0  0  0  0  0
    8.2970    7.0681   28.7027 C   0  0  2  0  0  0  0  0  0  0  0  0
    8.6658    8.3382   29.2313 O   0  0  0  0  0  0  0  0  0  0  0  0
    5.1964    6.3450   25.1412 C   0  0  2  0  0  0  0  0  0  0  0  0
    2.3851    2.6953   27.5125 C   0  0  2  0  0  0  0  0  0  0  0  0
    2.5040    3.9487   26.8120 O   0  0  0  0  0  0  0  0  0  0  0  0
   -2.1113   -1.6120   25.2056 C   0  0  2  0  0  0  0  0  0  0  0  0
   -2.8917   -0.8689   24.2679 O   0  0  0  0  0  0  0  0  0  0  0  0
    8.2394    7.1175   27.1494 C   0  0  2  0  0  0  0  0  0  0  0  0
    7.7492    5.8375   26.6481 O   0  0  0  0  0  0  0  0  0  0  0  0
    3.7610    5.8255   24.7674 C   0  0  2  0  0  0  0  0  0  0  0  0
    3.7669    4.3770   24.8598 O   0  0  0  0  0  0  0  0  0  0  0  0
    3.6945    2.3789   28.2569 C   0  0  0  0  0  0  0  0  0  0  0  0
    4.7674    2.2182   27.3456 O   0  0  0  0  0  0  0  0  0  0  0  0
   -2.1474   -0.9209   26.6041 C   0  0  1  0  0  0  0  0  0  0  0  0
   -1.4287    0.3488   26.5424 O   0  0  0  0  0  0  0  0  0  0  0  0
    9.5973    7.3725   26.4578 C   0  0  0  0  0  0  0  0  0  0  0  0
   10.5902    6.4757   26.9261 O   0  0  0  0  0  0  0  0  0  0  0  0
    3.3267    6.2235   23.3225 C   0  0  1  0  0  0  0  0  0  0  0  0
    1.9593    5.8606   23.1377 O   0  0  0  0  0  0  0  0  0  0  0  0
   -3.5910   -0.6609   27.1056 C   0  0  0  0  0  0  0  0  0  0  0  0
   -3.6213   -0.0998   28.4684 N   0  0  0  0  0  0  0  0  0  0  0  0
  1  2  1  1  0  0  0
  1  7  1  0  0  0  0
  1 30  1  0  0  0  0
  3  4  1  6  0  0  0
  3  9  1  0  0  0  0
  3 39  1  0  0  0  0
  5 10  1  0  0  0  0
  5 26  1  0  0  0  0
  5 32  1  1  0  0  0
  6 12  1  0  0  0  0
  6 36  1  0  0  0  0
  6 19  1  6  0  0  0
  7  8  1  6  0  0  0
  7 14  1  0  0  0  0
  9 16  1  0  0  0  0
 10 11  1  6  0  0  0
 10 18  1  0  0  0  0
 12 13  1  6  0  0  0
 12 20  1  0  0  0  0
 14 15  1  1  0  0  0
 14 22  1  0  0  0  0
 16 17  1  6  0  0  0
 16 24  1  0  0  0  0
 18 19  1  6  0  0  0
 18 25  1  0  0  0  0
 20 21  1  1  0  0  0
 20 27  1  0  0  0  0
 22 23  1  1  0  0  0
 22 29  1  0  0  0  0
 24  2  1  1  0  0  0
 24 31  1  0  0  0  0
 25 26  1  0  0  0  0
 25 33  1  6  0  0  0
 27 28  1  6  0  0  0
 27 35  1  0  0  0  0
 29 30  1  0  0  0  0
 29 37  1  6  0  0  0
 31 32  1  6  0  0  0
 31 39  1  0  0  0  0
 33 34  1  0  0  0  0
 35 36  1  0  0  0  0
 35 41  1  6  0  0  0
 37 38  1  0  0  0  0
 39 40  1  1  0  0  0
 41 42  1  0  0  0  0
M  END
>  <CHROM.1>
-175.52165494,-119.55711508,-54.86936297,-150.67913425,179.49049395,134.02530449
55.80137987,-32.26617101,112.51426132,-81.34303911,-176.66919438,-177.90784056
55.33751149,172.21699172,51.31803891,141.41363620,171.85695108,-63.18122172
175.76301035,63.53204739,-54.12718411,-153.16844940,3.31672086,3.81442446
26.09224972,-0.29749857,0.66692921,2.18608794

>  <Name>
1fyp_lig

>  <RI>
0

>  <Rbt.Current_Directory>
/home/itssahil/PROJECTS/Mol_Feturizer/New_Systems/rnas/1fyp

>  <Rbt.Executable>
rbdock ($Id: //depot/dev/client3/rdock/2013.1/src/exe/rbdock.cxx#4 $)

>  <Rbt.Library>
libRbt.so (2013.1, Build901 2013/11/27)

>  <Rbt.Parameter_File>
/export/apps/rDock/src/rDock_2013.1_src/data/scripts/dock_solv.prm

>  <Rbt.Receptor>
prm/pocket_docking_2.prm

>  <SCORE>
-61.5454

>  <SCORE.INTER>
-58.0454

>  <SCORE.INTER.CONST>
1

>  <SCORE.INTER.POLAR>
-7.59499

>  <SCORE.INTER.ROT>
14

>  <SCORE.INTER.SOLV>
18.692

>  <SCORE.INTER.VDW>
-32.5443

>  <SCORE.INTER.norm>
-1.38203

>  <SCORE.INTRA>
-3.61897

>  <SCORE.INTRA.DIHEDRAL>
-20.3263

>  <SCORE.INTRA.DIHEDRAL.0>
48.7173

>  <SCORE.INTRA.POLAR>
1.26492

>  <SCORE.INTRA.POLAR.0>
-1.54691

>  <SCORE.INTRA.REPUL>
9.3291e-05

>  <SCORE.INTRA.REPUL.0>
0

>  <SCORE.INTRA.SOLV>
0.190247

>  <SCORE.INTRA.SOLV.lig_0>
-64.052

>  <SCORE.INTRA.VDW>
2.14785

>  <SCORE.INTRA.VDW.0>
-7.0667

>  <SCORE.INTRA.norm>
-0.086166

>  <SCORE.RESTR>
0.118933

>  <SCORE.RESTR.CAVITY>
0.118933

>  <SCORE.RESTR.norm>
0.00283174

>  <SCORE.SYSTEM>
0

>  <SCORE.SYSTEM.CONST>
0

>  <SCORE.SYSTEM.DIHEDRAL>
0

>  <SCORE.SYSTEM.SOLV>
0

>  <SCORE.SYSTEM.norm>
0

>  <SCORE.heavy>
42

>  <SCORE.norm>
-1.46537

>  <RMSD>
0.882

$$$$
1fyp_lig
 OpenBabel11021811393D
libRbt.so/2013.1/901 2013/11/27
 42 45  0  0  0  0  0  0  0  0999 V2000
    6.2753    5.6494   27.1967 C   0  0  2  0  0  0  0  0  0  0  0  0
    5.4510    6.6972   26.6092 O   0  0  0  0  0  0  0  0  0  0  0  0
    3.3990    7.8425   23.0429 C   0  0  2  0  0  0  0  0  0  0  0  0
    2.9634    8.0961   21.6571 N   0  0  0  0  0  0  0  0  0  0  0  0
    2.8050    3.8025   25.1834 C   0  0  1  0  0  0  0  0  0  0  0  0
    0.2546    0.1679   25.6206 C   0  0  1  0  0  0  0  0  0  0  0  0
    6.2433    5.7041   28.7582 C   0  0  2  0  0  0  0  0  0  0  0  0
    4.8552    5.7492   29.2649 N   0  0  0  0  0  0  0  0  0  0  0  0
    4.8154    8.4156   23.2484 C   0  0  0  0  0  0  0  0  0  0  0  0
    3.1590    2.3247   24.9974 C   0  0  2  0  0  0  0  0  0  0  0  0
    2.8765    1.9318   23.6538 O   0  0  0  0  0  0  0  0  0  0  0  0
   -0.2575   -0.4320   24.2756 C   0  0  2  0  0  0  0  0  0  0  0  0
   -1.0192    0.5495   23.4653 N   0  0  0  0  0  0  0  0  0  0  0  0
    7.0535    6.9283   29.2885 C   0  0  1  0  0  0  0  0  0  0  0  0
    7.1491    6.8762   30.7097 O   0  0  0  0  0  0  0  0  0  0  0  0
    5.3288    8.2075   24.6994 C   0  0  2  0  0  0  0  0  0  0  0  0
    6.7147    8.7162   24.7652 N   0  0  0  0  0  0  0  0  0  0  0  0
    2.2069    1.6472   25.9867 C   0  0  2  0  0  0  0  0  0  0  0  0
    0.8805    1.4617   25.4186 O   0  0  0  0  0  0  0  0  0  0  0  0
   -1.0888   -1.7279   24.5259 C   0  0  1  0  0  0  0  0  0  0  0  0
   -0.1944   -2.7772   24.8899 O   0  0  0  0  0  0  0  0  0  0  0  0
    8.4858    6.9702   28.6995 C   0  0  2  0  0  0  0  0  0  0  0  0
    9.1379    8.1549   29.1466 O   0  0  0  0  0  0  0  0  0  0  0  0
    5.2443    6.7102   25.1674 C   0  0  2  0  0  0  0  0  0  0  0  0
    2.1638    2.6616   27.1381 C   0  0  2  0  0  0  0  0  0  0  0  0
    2.3300    3.9573   26.5303 O   0  0  0  0  0  0  0  0  0  0  0  0
   -2.1609   -1.5891   25.6490 C   0  0  2  0  0  0  0  0  0  0  0  0
   -3.2360   -0.7891   25.1544 O   0  0  0  0  0  0  0  0  0  0  0  0
    8.4327    6.9276   27.1459 C   0  0  2  0  0  0  0  0  0  0  0  0
    7.6603    5.7628   26.7256 O   0  0  0  0  0  0  0  0  0  0  0  0
    3.8611    6.0424   24.8344 C   0  0  2  0  0  0  0  0  0  0  0  0
    4.0035    4.6066   24.9915 O   0  0  0  0  0  0  0  0  0  0  0  0
    3.2618    2.4262   28.1906 C   0  0  0  0  0  0  0  0  0  0  0  0
    3.5580    1.0459   28.3113 O   0  0  0  0  0  0  0  0  0  0  0  0
   -1.5451   -0.9351   26.9248 C   0  0  1  0  0  0  0  0  0  0  0  0
   -0.8647    0.3046   26.5606 O   0  0  0  0  0  0  0  0  0  0  0  0
    9.8091    6.8191   26.4525 C   0  0  0  0  0  0  0  0  0  0  0  0
   10.6279    7.9358   26.7559 O   0  0  0  0  0  0  0  0  0  0  0  0
    3.3805    6.3317   23.3784 C   0  0  1  0  0  0  0  0  0  0  0  0
    2.0517    5.8347   23.2262 O   0  0  0  0  0  0  0  0  0  0  0  0
   -2.6072   -0.6285   28.0116 C   0  0  0  0  0  0  0  0  0  0  0  0
   -3.6329    0.3217   27.5446 N   0  0  0  0  0  0  0  0  0  0  0  0
  1  2  1  6  0  0  0
  1  7  1  0  0  0  0
  1 30  1  0  0  0  0
  3  4  1  6  0  0  0
  3  9  1  0  0  0  0
  3 39  1  0  0  0  0
  5 10  1  0  0  0  0
  5 26  1  0  0  0  0
  5 32  1  1  0  0  0
  6 12  1  0  0  0  0
  6 36  1  0  0  0  0
  6 19  1  6  0  0  0
  7  8  1  6  0  0  0
  7 14  1  0  0  0  0
  9 16  1  0  0  0  0
 10 11  1  6  0  0  0
 10 18  1  0  0  0  0
 12 13  1  1  0  0  0
 12 20  1  0  0  0  0
 14 15  1  1  0  0  0
 14 22  1  0  0  0  0
 16 17  1  6  0  0  0
 16 24  1  0  0  0  0
 18 19  1  6  0  0  0
 18 25  1  0  0  0  0
 20 21  1  1  0  0  0
 20 27  1  0  0  0  0
 22 23  1  6  0  0  0
 22 29  1  0  0  0  0
 24  2  1  1  0  0  0
 24 31  1  0  0  0  0
 25 26  1  0  0  0  0
 25 33  1  1  0  0  0
 27 28  1  6  0  0  0
 27 35  1  0  0  0  0
 29 30  1  0  0  0  0
 29 37  1  6  0  0  0
 31 32  1  6  0  0  0
 31 39  1  0  0  0  0
 33 34  1  0  0  0  0
 35 36  1  0  0  0  0
 35 41  1  1  0  0  0
 37 38  1  0  0  0  0
 39 40  1  1  0  0  0
 41 42  1  0  0  0  0
M  END
>  <CHROM.1>
-173.37524492,-139.13814510,67.05849455,171.94764169,-161.25079595,153.94227085
65.30105591,81.34152738,134.91040759,-128.80633046,-174.24154485,70.01768786
-32.45062625,73.49204887,-61.17830514,159.68278714,166.91493935,66.42070607
-61.19600427,-160.78963545,-69.83196314,18.47468274,3.33019286,3.91541446
26.05284054,-0.30645992,0.68557300,2.19529362

>  <Name>
1fyp_lig

>  <RI>
0

>  <Rbt.Current_Directory>
/home/itssahil/PROJECTS/Mol_Feturizer/New_Systems/rnas/1fyp

>  <Rbt.Executable>
rbdock ($Id: //depot/dev/client3/rdock/2013.1/src/exe/rbdock.cxx#4 $)

>  <Rbt.Library>
libRbt.so (2013.1, Build901 2013/11/27)

>  <Rbt.Parameter_File>
/export/apps/rDock/src/rDock_2013.1_src/data/scripts/dock_solv.prm

>  <Rbt.Receptor>
prm/pocket_docking_2.prm

>  <SCORE>
-57.3174

>  <SCORE.INTER>
-53.4675

>  <SCORE.INTER.CONST>
1

>  <SCORE.INTER.POLAR>
-6.97863

>  <SCORE.INTER.ROT>
14

>  <SCORE.INTER.SOLV>
19.5348

>  <SCORE.INTER.VDW>
-31.8278

>  <SCORE.INTER.norm>
-1.27303

>  <SCORE.INTRA>
-3.99991

>  <SCORE.INTRA.DIHEDRAL>
-15.5972

>  <SCORE.INTRA.DIHEDRAL.0>
48.7173

>  <SCORE.INTRA.POLAR>
0.588356

>  <SCORE.INTRA.POLAR.0>
-1.54691

>  <SCORE.INTRA.REPUL>
0.0516651

>  <SCORE.INTRA.REPUL.0>
0

>  <SCORE.INTRA.SOLV>
-1.26933

>  <SCORE.INTRA.SOLV.lig_0>
-64.052

>  <SCORE.INTRA.VDW>
2.17459

>  <SCORE.INTRA.VDW.0>
-7.0667

>  <SCORE.INTRA.norm>
-0.095236

>  <SCORE.RESTR>
0.149916

>  <SCORE.RESTR.CAVITY>
0.149916

>  <SCORE.RESTR.norm>
0.00356943

>  <SCORE.SYSTEM>
0

>  <SCORE.SYSTEM.CONST>
0

>  <SCORE.SYSTEM.DIHEDRAL>
0

>  <SCORE.SYSTEM.SOLV>
0

>  <SCORE.SYSTEM.norm>
0

>  <SCORE.heavy>
42

>  <SCORE.norm>
-1.3647

>  <RMSD>
0.952

$$$$
1fyp_lig
 OpenBabel11021811393D
libRbt.so/2013.1/901 2013/11/27
 42 45  0  0  0  0  0  0  0  0999 V2000
    6.7119    6.1898   27.5768 C   0  0  2  0  0  0  0  0  0  0  0  0
    5.9151    7.1657   26.8454 O   0  0  0  0  0  0  0  0  0  0  0  0
    3.5392    7.5731   23.3198 C   0  0  2  0  0  0  0  0  0  0  0  0
    2.9876    7.5599   21.9523 N   0  0  0  0  0  0  0  0  0  0  0  0
    3.4274    3.7783   25.5128 C   0  0  1  0  0  0  0  0  0  0  0  0
    0.8809    0.2400   25.5525 C   0  0  1  0  0  0  0  0  0  0  0  0
    6.5078    6.3254   29.1202 C   0  0  2  0  0  0  0  0  0  0  0  0
    5.0720    6.3331   29.4726 N   0  0  0  0  0  0  0  0  0  0  0  0
    4.9299    8.2383   23.3055 C   0  0  0  0  0  0  0  0  0  0  0  0
    4.0382    2.3748   25.5405 C   0  0  2  0  0  0  0  0  0  0  0  0
    4.3330    1.9562   24.2073 O   0  0  0  0  0  0  0  0  0  0  0  0
    0.2327   -0.4722   24.3263 C   0  0  2  0  0  0  0  0  0  0  0  0
   -0.1218    0.4720   23.2386 N   0  0  0  0  0  0  0  0  0  0  0  0
    7.2053    7.6121   29.6625 C   0  0  1  0  0  0  0  0  0  0  0  0
    7.1474    7.6398   31.0864 O   0  0  0  0  0  0  0  0  0  0  0  0
    5.5612    8.3113   24.7227 C   0  0  2  0  0  0  0  0  0  0  0  0
    6.9150    8.8872   24.5848 N   0  0  0  0  0  0  0  0  0  0  0  0
    2.8988    1.5487   26.1436 C   0  0  2  0  0  0  0  0  0  0  0  0
    1.9188    1.1663   25.1386 O   0  0  0  0  0  0  0  0  0  0  0  0
   -1.0002   -1.3212   24.7647 C   0  0  1  0  0  0  0  0  0  0  0  0
   -0.5318   -2.4808   25.4499 O   0  0  0  0  0  0  0  0  0  0  0  0
    8.6905    7.6890   29.2282 C   0  0  2  0  0  0  0  0  0  0  0  0
    9.2417    8.9246   29.6732 O   0  0  0  0  0  0  0  0  0  0  0  0
    5.6016    6.9166   25.4450 C   0  0  2  0  0  0  0  0  0  0  0  0
    2.2849    2.5329   27.1490 C   0  0  2  0  0  0  0  0  0  0  0  0
    2.4713    3.8447   26.5830 O   0  0  0  0  0  0  0  0  0  0  0  0
   -1.9910   -0.5673   25.7027 C   0  0  2  0  0  0  0  0  0  0  0  0
   -2.7111    0.3915   24.9263 O   0  0  0  0  0  0  0  0  0  0  0  0
    8.8088    7.5618   27.6828 C   0  0  2  0  0  0  0  0  0  0  0  0
    8.1343    6.3420   27.2503 O   0  0  0  0  0  0  0  0  0  0  0  0
    4.2401    6.1377   25.3474 C   0  0  2  0  0  0  0  0  0  0  0  0
    4.4796    4.7597   25.7350 O   0  0  0  0  0  0  0  0  0  0  0  0
    2.9383    2.4594   28.5405 C   0  0  0  0  0  0  0  0  0  0  0  0
    4.3219    2.1732   28.4344 O   0  0  0  0  0  0  0  0  0  0  0  0
   -1.2249    0.1434   26.8613 C   0  0  1  0  0  0  0  0  0  0  0  0
   -0.1497    0.9624   26.3084 O   0  0  0  0  0  0  0  0  0  0  0  0
   10.2558    7.4806   27.1475 C   0  0  0  0  0  0  0  0  0  0  0  0
   10.3950    6.4394   26.1957 O   0  0  0  0  0  0  0  0  0  0  0  0
    3.6363    6.1451   23.9087 C   0  0  1  0  0  0  0  0  0  0  0  0
    2.3322    5.5683   23.9550 O   0  0  0  0  0  0  0  0  0  0  0  0
   -2.1477    1.0382   27.7279 C   0  0  0  0  0  0  0  0  0  0  0  0
   -3.0998    0.2521   28.5332 N   0  0  0  0  0  0  0  0  0  0  0  0
  1  2  1  6  0  0  0
  1  7  1  0  0  0  0
  1 30  1  0  0  0  0
  3  4  1  6  0  0  0
  3  9  1  0  0  0  0
  3 39  1  0  0  0  0
  5 10  1  0  0  0  0
  5 26  1  0  0  0  0
  5 32  1  1  0  0  0
  6 12  1  0  0  0  0
  6 36  1  0  0  0  0
  6 19  1  6  0  0  0
  7  8  1  6  0  0  0
  7 14  1  0  0  0  0
  9 16  1  0  0  0  0
 10 11  1  6  0  0  0
 10 18  1  0  0  0  0
 12 13  1  6  0  0  0
 12 20  1  0  0  0  0
 14 15  1  1  0  0  0
 14 22  1  0  0  0  0
 16 17  1  6  0  0  0
 16 24  1  0  0  0  0
 18 19  1  6  0  0  0
 18 25  1  0  0  0  0
 20 21  1  1  0  0  0
 20 27  1  0  0  0  0
 22 23  1  6  0  0  0
 22 29  1  0  0  0  0
 24  2  1  1  0  0  0
 24 31  1  0  0  0  0
 25 26  1  0  0  0  0
 25 33  1  1  0  0  0
 27 28  1  6  0  0  0
 27 35  1  0  0  0  0
 29 30  1  0  0  0  0
 29 37  1  1  0  0  0
 31 32  1  6  0  0  0
 31 39  1  0  0  0  0
 33 34  1  0  0  0  0
 35 36  1  0  0  0  0
 35 41  1  6  0  0  0
 37 38  1  0  0  0  0
 39 40  1  1  0  0  0
 41 42  1  0  0  0  0
M  END
>  <CHROM.1>
-158.81854184,-146.45461807,-163.18392882,177.92921572,95.67369008,-49.03949833
64.61157133,-28.86535146,172.44004858,-159.61764344,66.92993118,-64.59961307
34.46015344,65.74866191,133.52037079,-169.72096503,161.06530542,-166.89869012
69.27222187,-65.83217303,-55.98059879,-65.65171769,3.69425960,4.19528492
26.29354637,-0.16272557,0.72450940,2.03274531

>  <Name>
1fyp_lig

>  <RI>
0

>  <Rbt.Current_Directory>
/home/itssahil/PROJECTS/Mol_Feturizer/New_Systems/rnas/1fyp

>  <Rbt.Executable>
rbdock ($Id: //depot/dev/client3/rdock/2013.1/src/exe/rbdock.cxx#4 $)

>  <Rbt.Library>
libRbt.so (2013.1, Build901 2013/11/27)

>  <Rbt.Parameter_File>
/export/apps/rDock/src/rDock_2013.1_src/data/scripts/dock_solv.prm

>  <Rbt.Receptor>
prm/pocket_docking_3.prm

>  <SCORE>
-53.0994

>  <SCORE.INTER>
-50.5294

>  <SCORE.INTER.CONST>
1

>  <SCORE.INTER.POLAR>
-6.68951

>  <SCORE.INTER.ROT>
14

>  <SCORE.INTER.SOLV>
21.6485

>  <SCORE.INTER.VDW>
-31.5374

>  <SCORE.INTER.norm>
-1.20308

>  <SCORE.INTRA>
-2.677

>  <SCORE.INTRA.DIHEDRAL>
-22.8737

>  <SCORE.INTRA.DIHEDRAL.0>
48.7173

>  <SCORE.INTRA.POLAR>
1.54691

>  <SCORE.INTRA.POLAR.0>
-1.54691

>  <SCORE.INTRA.REPUL>
0

>  <SCORE.INTRA.REPUL.0>
0

>  <SCORE.INTRA.SOLV>
-2.44715

>  <SCORE.INTRA.SOLV.lig_0>
-64.052

>  <SCORE.INTRA.VDW>
4.72393

>  <SCORE.INTRA.VDW.0>
-7.0667

>  <SCORE.INTRA.norm>
-0.063738

>  <SCORE.RESTR>
0.106995

>  <SCORE.RESTR.CAVITY>
0.106995

>  <SCORE.RESTR.norm>
0.0025475

>  <SCORE.SYSTEM>
0

>  <SCORE.SYSTEM.CONST>
0

>  <SCORE.SYSTEM.DIHEDRAL>
0

>  <SCORE.SYSTEM.SOLV>
0

>  <SCORE.SYSTEM.norm>
0

>  <SCORE.heavy>
42

>  <SCORE.norm>
-1.26427

>  <RMSD>
0.963

$$$$
1fyp_lig
 OpenBabel11021811393D
libRbt.so/2013.1/901 2013/11/27
 42 45  0  0  0  0  0  0  0  0999 V2000
    6.8931    5.6389   27.0184 C   0  0  2  0  0  0  0  0  0  0  0  0
    5.6816    6.2976   26.5488 O   0  0  0  0  0  0  0  0  0  0  0  0
    3.6754    7.7832   23.0834 C   0  0  2  0  0  0  0  0  0  0  0  0
    3.2257    8.1186   21.7197 N   0  0  0  0  0  0  0  0  0  0  0  0
    2.6208    3.8544   25.3760 C   0  0  1  0  0  0  0  0  0  0  0  0
   -0.2144    0.5473   25.8217 C   0  0  1  0  0  0  0  0  0  0  0  0
    6.8911    5.4773   28.5728 C   0  0  2  0  0  0  0  0  0  0  0  0
    5.6341    4.8596   29.0461 N   0  0  0  0  0  0  0  0  0  0  0  0
    5.1674    8.1414   23.2341 C   0  0  0  0  0  0  0  0  0  0  0  0
    2.7186    2.3377   25.1922 C   0  0  2  0  0  0  0  0  0  0  0  0
    2.1747    1.9749   23.9226 O   0  0  0  0  0  0  0  0  0  0  0  0
   -0.0522    0.0126   24.3661 C   0  0  2  0  0  0  0  0  0  0  0  0
   -0.3609    1.0403   23.3420 N   0  0  0  0  0  0  0  0  0  0  0  0
    7.1165    6.8528   29.2751 C   0  0  1  0  0  0  0  0  0  0  0  0
    7.2708    6.6681   30.6800 O   0  0  0  0  0  0  0  0  0  0  0  0
    5.7035    7.8388   24.6600 C   0  0  2  0  0  0  0  0  0  0  0  0
    7.1501    8.1398   24.6718 N   0  0  0  0  0  0  0  0  0  0  0  0
    1.8428    1.8258   26.3391 C   0  0  2  0  0  0  0  0  0  0  0  0
    0.4313    1.8367   25.9867 O   0  0  0  0  0  0  0  0  0  0  0  0
   -0.9027   -1.2770   24.1499 C   0  0  1  0  0  0  0  0  0  0  0  0
   -0.2717   -2.3566   24.8354 O   0  0  0  0  0  0  0  0  0  0  0  0
    8.3736    7.5778   28.7325 C   0  0  2  0  0  0  0  0  0  0  0  0
    8.4704    8.8609   29.3434 O   0  0  0  0  0  0  0  0  0  0  0  0
    5.4207    6.3626   25.1173 C   0  0  2  0  0  0  0  0  0  0  0  0
    2.1307    2.8498   27.4458 C   0  0  2  0  0  0  0  0  0  0  0  0
    2.3901    4.0972   26.7730 O   0  0  0  0  0  0  0  0  0  0  0  0
   -2.3704   -1.1648   24.6631 C   0  0  2  0  0  0  0  0  0  0  0  0
   -3.1017   -0.3256   23.7678 O   0  0  0  0  0  0  0  0  0  0  0  0
    8.2938    7.7127   27.1854 C   0  0  2  0  0  0  0  0  0  0  0  0
    8.0807    6.3927   26.6006 O   0  0  0  0  0  0  0  0  0  0  0  0
    3.9426    5.9080   24.8370 C   0  0  2  0  0  0  0  0  0  0  0  0
    3.8804    4.4645   24.9747 O   0  0  0  0  0  0  0  0  0  0  0  0
    3.3323    2.4639   28.3266 C   0  0  0  0  0  0  0  0  0  0  0  0
    3.3810    3.2657   29.4939 O   0  0  0  0  0  0  0  0  0  0  0  0
   -2.4088   -0.5750   26.1070 C   0  0  1  0  0  0  0  0  0  0  0  0
   -1.6403    0.6659   26.1506 O   0  0  0  0  0  0  0  0  0  0  0  0
    9.5613    8.2923   26.5186 C   0  0  0  0  0  0  0  0  0  0  0  0
   10.7181    7.5614   26.8890 O   0  0  0  0  0  0  0  0  0  0  0  0
    3.4506    6.2862   23.4054 C   0  0  1  0  0  0  0  0  0  0  0  0
    2.0585    5.9899   23.3050 O   0  0  0  0  0  0  0  0  0  0  0  0
   -3.8514   -0.2938   26.6000 C   0  0  0  0  0  0  0  0  0  0  0  0
   -3.8970    0.0780   28.0257 N   0  0  0  0  0  0  0  0  0  0  0  0
  1  2  1  1  0  0  0
  1  7  1  0  0  0  0
  1 30  1  0  0  0  0
  3  4  1  6  0  0  0
  3  9  1  0  0  0  0
  3 39  1  0  0  0  0
  5 10  1  0  0  0  0
  5 26  1  0  0  0  0
  5 32  1  1  0  0  0
  6 12  1  0  0  0  0
  6 36  1  0  0  0  0
  6 19  1  6  0  0  0
  7  8  1  1  0  0  0
  7 14  1  0  0  0  0
  9 16  1  0  0  0  0
 10 11  1  6  0  0  0
 10 18  1  0  0  0  0
 12 13  1  6  0  0  0
 12 20  1  0  0  0  0
 14 15  1  1  0  0  0
 14 22  1  0  0  0  0
 16 17  1  6  0  0  0
 16 24  1  0  0  0  0
 18 19  1  6  0  0  0
 18 25  1  0  0  0  0
 20 21  1  1  0  0  0
 20 27  1  0  0  0  0
 22 23  1  1  0  0  0
 22 29  1  0  0  0  0
 24  2  1  1  0  0  0
 24 31  1  0  0  0  0
 25 26  1  0  0  0  0
 25 33  1  6  0  0  0
 27 28  1  6  0  0  0
 27 35  1  0  0  0  0
 29 30  1  0  0  0  0
 29 37  1  6  0  0  0
 31 32  1  6  0  0  0
 31 39  1  0  0  0  0
 33 34  1  0  0  0  0
 35 36  1  0  0  0  0
 35 41  1  6  0  0  0
 37 38  1  0  0  0  0
 39 40  1  1  0  0  0
 41 42  1  0  0  0  0
M  END
>  <CHROM.1>
-171.31925643,-105.65444047,-52.32535787,71.03129591,176.45529330,97.84225245
-173.12091769,-59.03393183,111.12717247,-87.08139480,-55.52698486,179.53107382
-167.18184411,-49.70748893,53.83135195,152.03014539,169.16906640,-74.70638858
171.76396558,164.45785900,-62.43038842,80.91995918,3.31111385,4.10293116
26.01623826,-0.16496383,0.68429147,2.04908917

>  <Name>
1fyp_lig

>  <RI>
0

>  <Rbt.Current_Directory>
/home/itssahil/PROJECTS/Mol_Feturizer/New_Systems/rnas/1fyp

>  <Rbt.Executable>
rbdock ($Id: //depot/dev/client3/rdock/2013.1/src/exe/rbdock.cxx#4 $)

>  <Rbt.Library>
libRbt.so (2013.1, Build901 2013/11/27)

>  <Rbt.Parameter_File>
/export/apps/rDock/src/rDock_2013.1_src/data/scripts/dock_solv.prm

>  <Rbt.Receptor>
prm/pocket_docking_2.prm

>  <SCORE>
-61.2028

>  <SCORE.INTER>
-52.1058

>  <SCORE.INTER.CONST>
1

>  <SCORE.INTER.POLAR>
-6.63979

>  <SCORE.INTER.ROT>
14

>  <SCORE.INTER.SOLV>
16.3158

>  <SCORE.INTER.VDW>
-30.9765

>  <SCORE.INTER.norm>
-1.24061

>  <SCORE.INTRA>
-9.49407

>  <SCORE.INTRA.DIHEDRAL>
-21.6417

>  <SCORE.INTRA.DIHEDRAL.0>
48.7173

>  <SCORE.INTRA.POLAR>
-0.136765

>  <SCORE.INTRA.POLAR.0>
-1.54691

>  <SCORE.INTRA.REPUL>
0

>  <SCORE.INTRA.REPUL.0>
0

>  <SCORE.INTRA.SOLV>
-0.402225

>  <SCORE.INTRA.SOLV.lig_0>
-64.052

>  <SCORE.INTRA.VDW>
1.99291

>  <SCORE.INTRA.VDW.0>
-7.0667

>  <SCORE.INTRA.norm>
-0.226049

>  <SCORE.RESTR>
0.397019

>  <SCORE.RESTR.CAVITY>
0.397019

>  <SCORE.RESTR.norm>
0.00945284

>  <SCORE.SYSTEM>
0

>  <SCORE.SYSTEM.CONST>
0

>  <SCORE.SYSTEM.DIHEDRAL>
0

>  <SCORE.SYSTEM.SOLV>
0

>  <SCORE.SYSTEM.norm>
0

>  <SCORE.heavy>
42

>  <SCORE.norm>
-1.45721

>  <RMSD>
0.965

$$$$
1fyp_lig
 OpenBabel11021811393D
libRbt.so/2013.1/901 2013/11/27
 42 45  0  0  0  0  0  0  0  0999 V2000
    6.7532    5.8697   27.7864 C   0  0  2  0  0  0  0  0  0  0  0  0
    5.9803    6.8555   27.0427 O   0  0  0  0  0  0  0  0  0  0  0  0
    3.7274    7.3929   23.4543 C   0  0  2  0  0  0  0  0  0  0  0  0
    3.2076    7.3995   22.0744 N   0  0  0  0  0  0  0  0  0  0  0  0
    3.1794    3.7218   25.9176 C   0  0  1  0  0  0  0  0  0  0  0  0
    0.5236    0.1569   25.6044 C   0  0  1  0  0  0  0  0  0  0  0  0
    6.6093    6.0746   29.3289 C   0  0  2  0  0  0  0  0  0  0  0  0
    5.1886    6.1678   29.7273 N   0  0  0  0  0  0  0  0  0  0  0  0
    5.1696    7.9378   23.4618 C   0  0  0  0  0  0  0  0  0  0  0  0
    3.5271    2.3727   25.2831 C   0  0  2  0  0  0  0  0  0  0  0  0
    3.2013    2.4010   23.8929 O   0  0  0  0  0  0  0  0  0  0  0  0
    0.1246   -0.3937   24.2013 C   0  0  2  0  0  0  0  0  0  0  0  0
   -0.4644    0.6481   23.3249 N   0  0  0  0  0  0  0  0  0  0  0  0
    7.3871    7.3445   29.7962 C   0  0  1  0  0  0  0  0  0  0  0  0
    7.3798    7.4297   31.2190 O   0  0  0  0  0  0  0  0  0  0  0  0
    5.7727    7.9850   24.8923 C   0  0  2  0  0  0  0  0  0  0  0  0
    7.1733    8.4417   24.7769 N   0  0  0  0  0  0  0  0  0  0  0  0
    2.6074    1.4189   26.0504 C   0  0  2  0  0  0  0  0  0  0  0  0
    1.2633    1.4008   25.4939 O   0  0  0  0  0  0  0  0  0  0  0  0
   -0.8244   -1.6242   24.3365 C   0  0  1  0  0  0  0  0  0  0  0  0
   -0.0582   -2.7408   24.7835 O   0  0  0  0  0  0  0  0  0  0  0  0
    8.8584    7.3301   29.3111 C   0  0  2  0  0  0  0  0  0  0  0  0
    9.4844    8.5527   29.6881 O   0  0  0  0  0  0  0  0  0  0  0  0
    5.6784    6.6064   25.6398 C   0  0  2  0  0  0  0  0  0  0  0  0
    2.6016    2.0379   27.4551 C   0  0  2  0  0  0  0  0  0  0  0  0
    2.7482    3.4582   27.2623 O   0  0  0  0  0  0  0  0  0  0  0  0
   -2.0040   -1.4117   25.3332 C   0  0  2  0  0  0  0  0  0  0  0  0
   -2.9529   -0.5291   24.7322 O   0  0  0  0  0  0  0  0  0  0  0  0
    8.9170    7.1379   27.7691 C   0  0  2  0  0  0  0  0  0  0  0  0
    8.1693    5.9377   27.4080 O   0  0  0  0  0  0  0  0  0  0  0  0
    4.2582    5.9434   25.5233 C   0  0  2  0  0  0  0  0  0  0  0  0
    4.3711    4.5580   25.9408 O   0  0  0  0  0  0  0  0  0  0  0  0
    3.7330    1.5064   28.3530 C   0  0  0  0  0  0  0  0  0  0  0  0
    3.6010    0.1107   28.5588 O   0  0  0  0  0  0  0  0  0  0  0  0
   -1.4904   -0.8145   26.6800 C   0  0  1  0  0  0  0  0  0  0  0  0
   -0.6822    0.3723   26.4138 O   0  0  0  0  0  0  0  0  0  0  0  0
   10.3390    6.9637   27.1906 C   0  0  0  0  0  0  0  0  0  0  0  0
   11.1428    8.1025   27.4483 O   0  0  0  0  0  0  0  0  0  0  0  0
    3.6897    5.9736   24.0705 C   0  0  1  0  0  0  0  0  0  0  0  0
    2.3406    5.5100   24.0956 O   0  0  0  0  0  0  0  0  0  0  0  0
   -2.6435   -0.4351   27.6443 C   0  0  0  0  0  0  0  0  0  0  0  0
   -3.5937   -1.5432   27.8494 N   0  0  0  0  0  0  0  0  0  0  0  0
  1  2  1  6  0  0  0
  1  7  1  0  0  0  0
  1 30  1  0  0  0  0
  3  4  1  6  0  0  0
  3  9  1  0  0  0  0
  3 39  1  0  0  0  0
  5 10  1  0  0  0  0
  5 26  1  0  0  0  0
  5 32  1  1  0  0  0
  6 12  1  0  0  0  0
  6 36  1  0  0  0  0
  6 19  1  6  0  0  0
  7  8  1  6  0  0  0
  7 14  1  0  0  0  0
  9 16  1  0  0  0  0
 10 11  1  6  0  0  0
 10 18  1  0  0  0  0
 12 13  1  6  0  0  0
 12 20  1  0  0  0  0
 14 15  1  1  0  0  0
 14 22  1  0  0  0  0
 16 17  1  6  0  0  0
 16 24  1  0  0  0  0
 18 19  1  6  0  0  0
 18 25  1  0  0  0  0
 20 21  1  1  0  0  0
 20 27  1  0  0  0  0
 22 23  1  6  0  0  0
 22 29  1  0  0  0  0
 24  2  1  1  0  0  0
 24 31  1  0  0  0  0
 25 26  1  0  0  0  0
 25 33  1  1  0  0  0
 27 28  1  6  0  0  0
 27 35  1  0  0  0  0
 29 30  1  0  0  0  0
 29 37  1  1  0  0  0
 31 32  1  6  0  0  0
 31 39  1  0  0  0  0
 33 34  1  0  0  0  0
 35 36  1  0  0  0  0
 35 41  1  1  0  0  0
 37 38  1  0  0  0  0
 39 40  1  1  0  0  0
 41 42  1  0  0  0  0
M  END
>  <CHROM.1>
-162.61710667,-142.35757314,146.71900768,-61.87010990,179.89231807,70.55998449
-172.41204199,-57.49400007,149.05649065,-120.38890929,-39.82623643,71.83559570
-61.99256892,175.27951775,-60.94238196,-179.79589784,134.66541206,71.06758826
51.81083277,-74.94539491,144.40338368,-179.81051507,3.66567896,3.84238179
26.36084177,-0.20674551,0.72536238,2.12022728

>  <Name>
1fyp_lig

>  <RI>
0

>  <Rbt.Current_Directory>
/home/itssahil/PROJECTS/Mol_Feturizer/New_Systems/rnas/1fyp

>  <Rbt.Executable>
rbdock ($Id: //depot/dev/client3/rdock/2013.1/src/exe/rbdock.cxx#4 $)

>  <Rbt.Library>
libRbt.so (2013.1, Build901 2013/11/27)

>  <Rbt.Parameter_File>
/export/apps/rDock/src/rDock_2013.1_src/data/scripts/dock_solv.prm

>  <Rbt.Receptor>
prm/pocket_docking_2.prm

>  <SCORE>
-50.0549

>  <SCORE.INTER>
-50.1062

>  <SCORE.INTER.CONST>
1

>  <SCORE.INTER.POLAR>
-5.99716

>  <SCORE.INTER.ROT>
14

>  <SCORE.INTER.SOLV>
20.4497

>  <SCORE.INTER.VDW>
-33.1635

>  <SCORE.INTER.norm>
-1.19301

>  <SCORE.INTRA>
-0.934981

>  <SCORE.INTRA.DIHEDRAL>
-13.6954

>  <SCORE.INTRA.DIHEDRAL.0>
48.7173

>  <SCORE.INTRA.POLAR>
1.01487

>  <SCORE.INTRA.POLAR.0>
-1.54691

>  <SCORE.INTRA.REPUL>
0

>  <SCORE.INTRA.REPUL.0>
0

>  <SCORE.INTRA.SOLV>
-2.29436

>  <SCORE.INTRA.SOLV.lig_0>
-64.052

>  <SCORE.INTRA.VDW>
3.60934

>  <SCORE.INTRA.VDW.0>
-7.0667

>  <SCORE.INTRA.norm>
-0.0222615

>  <SCORE.RESTR>
0.986302

>  <SCORE.RESTR.CAVITY>
0.986302

>  <SCORE.RESTR.norm>
0.0234834

>  <SCORE.SYSTEM>
0

>  <SCORE.SYSTEM.CONST>
0

>  <SCORE.SYSTEM.DIHEDRAL>
0

>  <SCORE.SYSTEM.SOLV>
0

>  <SCORE.SYSTEM.norm>
0

>  <SCORE.heavy>
42

>  <SCORE.norm>
-1.19178

>  <RMSD>
0.979

$$$$
1fyp_lig
 OpenBabel11021811393D
libRbt.so/2013.1/901 2013/11/27
 42 45  0  0  0  0  0  0  0  0999 V2000
    6.8333    6.0656   27.4128 C   0  0  2  0  0  0  0  0  0  0  0  0
    6.0325    7.1000   26.7718 O   0  0  0  0  0  0  0  0  0  0  0  0
    3.5079    7.7632   23.3913 C   0  0  2  0  0  0  0  0  0  0  0  0
    2.8920    7.8374   22.0536 N   0  0  0  0  0  0  0  0  0  0  0  0
    3.3650    3.8687   25.4025 C   0  0  1  0  0  0  0  0  0  0  0  0
    0.8370    0.2268   25.3966 C   0  0  1  0  0  0  0  0  0  0  0  0
    6.6568    6.0850   28.9654 C   0  0  2  0  0  0  0  0  0  0  0  0
    5.2275    6.0762   29.3428 N   0  0  0  0  0  0  0  0  0  0  0  0
    4.9190    8.3822   23.3413 C   0  0  0  0  0  0  0  0  0  0  0  0
    3.9005    2.4374   25.4948 C   0  0  2  0  0  0  0  0  0  0  0  0
    4.2041    1.9562   24.1849 O   0  0  0  0  0  0  0  0  0  0  0  0
    0.1534   -0.3356   24.1130 C   0  0  2  0  0  0  0  0  0  0  0  0
   -0.3969    0.7330   23.2437 N   0  0  0  0  0  0  0  0  0  0  0  0
    7.3746    7.3216   29.5913 C   0  0  1  0  0  0  0  0  0  0  0  0
    7.3414    7.2414   31.0140 O   0  0  0  0  0  0  0  0  0  0  0  0
    5.6190    8.3626   24.7277 C   0  0  2  0  0  0  0  0  0  0  0  0
    6.9842    8.8999   24.5518 N   0  0  0  0  0  0  0  0  0  0  0  0
    2.7054    1.6937   26.0972 C   0  0  2  0  0  0  0  0  0  0  0  0
    1.7306    1.3263   25.0818 O   0  0  0  0  0  0  0  0  0  0  0  0
   -0.9389   -1.3868   24.4803 C   0  0  1  0  0  0  0  0  0  0  0  0
   -0.2913   -2.5833   24.9075 O   0  0  0  0  0  0  0  0  0  0  0  0
    8.8527    7.4206   29.1378 C   0  0  2  0  0  0  0  0  0  0  0  0
    9.4221    8.6147   29.6655 O   0  0  0  0  0  0  0  0  0  0  0  0
    5.6443    6.9326   25.3780 C   0  0  2  0  0  0  0  0  0  0  0  0
    2.1207    2.7441   27.0518 C   0  0  2  0  0  0  0  0  0  0  0  0
    2.3889    4.0231   26.4452 O   0  0  0  0  0  0  0  0  0  0  0  0
   -1.9097   -0.9275   25.6101 C   0  0  2  0  0  0  0  0  0  0  0  0
   -2.7943    0.0587   25.0758 O   0  0  0  0  0  0  0  0  0  0  0  0
    8.9434    7.4104   27.5854 C   0  0  2  0  0  0  0  0  0  0  0  0
    8.2512    6.2319   27.0736 O   0  0  0  0  0  0  0  0  0  0  0  0
    4.2531    6.2048   25.3094 C   0  0  2  0  0  0  0  0  0  0  0  0
    4.4619    4.8018   25.6169 O   0  0  0  0  0  0  0  0  0  0  0  0
    2.7364    2.6874   28.4612 C   0  0  0  0  0  0  0  0  0  0  0  0
    3.9707    3.3820   28.5014 O   0  0  0  0  0  0  0  0  0  0  0  0
   -1.1156   -0.3411   26.8184 C   0  0  1  0  0  0  0  0  0  0  0  0
   -0.1871    0.6818   26.3451 O   0  0  0  0  0  0  0  0  0  0  0  0
   10.3803    7.3596   27.0198 C   0  0  0  0  0  0  0  0  0  0  0  0
   11.0431    6.1670   27.4042 O   0  0  0  0  0  0  0  0  0  0  0  0
    3.5824    6.3049   23.9041 C   0  0  1  0  0  0  0  0  0  0  0  0
    2.2623    5.7696   23.9862 O   0  0  0  0  0  0  0  0  0  0  0  0
   -2.0403    0.2763   27.8987 C   0  0  0  0  0  0  0  0  0  0  0  0
   -2.8063    1.4294   27.3923 N   0  0  0  0  0  0  0  0  0  0  0  0
  1  2  1  6  0  0  0
  1  7  1  0  0  0  0
  1 30  1  0  0  0  0
  3  4  1  6  0  0  0
  3  9  1  0  0  0  0
  3 39  1  0  0  0  0
  5 10  1  0  0  0  0
  5 26  1  0  0  0  0
  5 32  1  1  0  0  0
  6 12  1  0  0  0  0
  6 36  1  0  0  0  0
  6 19  1  6  0  0  0
  7  8  1  6  0  0  0
  7 14  1  0  0  0  0
  9 16  1  0  0  0  0
 10 11  1  6  0  0  0
 10 18  1  0  0  0  0
 12 13  1  1  0  0  0
 12 20  1  0  0  0  0
 14 15  1  1  0  0  0
 14 22  1  0  0  0  0
 16 17  1  6  0  0  0
 16 24  1  0  0  0  0
 18 19  1  6  0  0  0
 18 25  1  0  0  0  0
 20 21  1  1  0  0  0
 20 27  1  0  0  0  0
 22 23  1  6  0  0  0
 22 29  1  0  0  0  0
 24  2  1  1  0  0  0
 24 31  1  0  0  0  0
 25 26  1  0  0  0  0
 25 33  1  1  0  0  0
 27 28  1  6  0  0  0
 27 35  1  0  0  0  0
 29 30  1  0  0  0  0
 29 37  1  1  0  0  0
 31 32  1  6  0  0  0
 31 39  1  0  0  0  0
 33 34  1  0  0  0  0
 35 36  1  0  0  0  0
 35 41  1  1  0  0  0
 37 38  1  0  0  0  0
 39 40  1  1  0  0  0
 41 42  1  0  0  0  0
M  END
>  <CHROM.1>
-156.20190421,-146.17443245,-172.69390053,-70.52023466,89.89379738,63.42428284
-58.63249681,-41.43245904,157.66765522,-163.09435783,65.13922877,55.19241194
82.08250360,60.53002144,62.50194037,-169.89668312,167.65737407,-172.68089098
-63.23713326,-66.20170718,-64.53914828,169.97530471,3.71899733,4.19946770
26.23382442,-0.22755021,0.69356586,2.18037623

>  <Name>
1fyp_lig

>  <RI>
0

>  <Rbt.Current_Directory>
/home/itssahil/PROJECTS/Mol_Feturizer/New_Systems/rnas/1fyp

>  <Rbt.Executable>
rbdock ($Id: //depot/dev/client3/rdock/2013.1/src/exe/rbdock.cxx#4 $)

>  <Rbt.Library>
libRbt.so (2013.1, Build901 2013/11/27)

>  <Rbt.Parameter_File>
/export/apps/rDock/src/rDock_2013.1_src/data/scripts/dock_solv.prm

>  <Rbt.Receptor>
prm/pocket_docking_2.prm

>  <SCORE>
-60.7812

>  <SCORE.INTER>
-49.5933

>  <SCORE.INTER.CONST>
1

>  <SCORE.INTER.POLAR>
-6.06275

>  <SCORE.INTER.ROT>
14

>  <SCORE.INTER.SOLV>
19.7781

>  <SCORE.INTER.VDW>
-32.3791

>  <SCORE.INTER.norm>
-1.18079

>  <SCORE.INTRA>
-12.6587

>  <SCORE.INTRA.DIHEDRAL>
-30.0348

>  <SCORE.INTRA.DIHEDRAL.0>
48.7173

>  <SCORE.INTRA.POLAR>
-0.103231

>  <SCORE.INTRA.POLAR.0>
-1.54691

>  <SCORE.INTRA.REPUL>
0

>  <SCORE.INTRA.REPUL.0>
0

>  <SCORE.INTRA.SOLV>
-0.448958

>  <SCORE.INTRA.SOLV.lig_0>
-64.052

>  <SCORE.INTRA.VDW>
2.93418

>  <SCORE.INTRA.VDW.0>
-7.0667

>  <SCORE.INTRA.norm>
-0.301397

>  <SCORE.RESTR>
1.47083

>  <SCORE.RESTR.CAVITY>
1.47083

>  <SCORE.RESTR.norm>
0.0350196

>  <SCORE.SYSTEM>
0

>  <SCORE.SYSTEM.CONST>
0

>  <SCORE.SYSTEM.DIHEDRAL>
0

>  <SCORE.SYSTEM.SOLV>
0

>  <SCORE.SYSTEM.norm>
0

>  <SCORE.heavy>
42

>  <SCORE.norm>
-1.44717

>  <RMSD>
0.982

$$$$
1fyp_lig
 OpenBabel11021811393D
libRbt.so/2013.1/901 2013/11/27
 42 45  0  0  0  0  0  0  0  0999 V2000
    6.5072    5.6884   27.1523 C   0  0  2  0  0  0  0  0  0  0  0  0
    5.6094    6.6772   26.5704 O   0  0  0  0  0  0  0  0  0  0  0  0
    3.6708    7.9472   22.9830 C   0  0  2  0  0  0  0  0  0  0  0  0
    3.2604    8.2172   21.5926 N   0  0  0  0  0  0  0  0  0  0  0  0
    2.7494    4.0395   25.3984 C   0  0  1  0  0  0  0  0  0  0  0  0
   -0.1713    0.7216   25.7999 C   0  0  1  0  0  0  0  0  0  0  0  0
    6.3887    5.6542   28.7101 C   0  0  2  0  0  0  0  0  0  0  0  0
    4.9791    5.5300   29.1382 N   0  0  0  0  0  0  0  0  0  0  0  0
    5.1334    8.3924   23.1818 C   0  0  0  0  0  0  0  0  0  0  0  0
    2.7741    2.5882   24.9117 C   0  0  2  0  0  0  0  0  0  0  0  0
    2.0831    2.4910   23.6656 O   0  0  0  0  0  0  0  0  0  0  0  0
   -0.1278    0.0879   24.3759 C   0  0  2  0  0  0  0  0  0  0  0  0
   -0.4204    1.0705   23.3040 N   0  0  0  0  0  0  0  0  0  0  0  0
    7.0376    6.9238   29.3452 C   0  0  1  0  0  0  0  0  0  0  0  0
    7.0643    6.8042   30.7653 O   0  0  0  0  0  0  0  0  0  0  0  0
    5.6254    8.1617   24.6368 C   0  0  2  0  0  0  0  0  0  0  0  0
    7.0518    8.5433   24.6968 N   0  0  0  0  0  0  0  0  0  0  0  0
    2.0112    1.8699   26.0281 C   0  0  2  0  0  0  0  0  0  0  0  0
    0.5710    1.9680   25.8472 O   0  0  0  0  0  0  0  0  0  0  0  0
   -1.0769   -1.1468   24.2880 C   0  0  1  0  0  0  0  0  0  0  0  0
   -0.4857   -2.2255   25.0095 O   0  0  0  0  0  0  0  0  0  0  0  0
    8.4863    7.1435   28.8420 C   0  0  2  0  0  0  0  0  0  0  0  0
    8.9868    8.3623   29.3830 O   0  0  0  0  0  0  0  0  0  0  0  0
    5.4050    6.6859   25.1284 C   0  0  2  0  0  0  0  0  0  0  0  0
    2.4531    2.6506   27.2737 C   0  0  2  0  0  0  0  0  0  0  0  0
    2.6807    4.0033   26.8329 O   0  0  0  0  0  0  0  0  0  0  0  0
   -2.5025   -0.8963   24.8668 C   0  0  2  0  0  0  0  0  0  0  0  0
   -3.2220   -0.0624   23.9570 O   0  0  0  0  0  0  0  0  0  0  0  0
    8.5186    7.1805   27.2877 C   0  0  2  0  0  0  0  0  0  0  0  0
    7.8953    5.9679   26.7674 O   0  0  0  0  0  0  0  0  0  0  0  0
    3.9669    6.1414   24.8036 C   0  0  2  0  0  0  0  0  0  0  0  0
    3.9781    4.7014   24.9838 O   0  0  0  0  0  0  0  0  0  0  0  0
    3.7294    2.0830   27.9199 C   0  0  0  0  0  0  0  0  0  0  0  0
    3.9366    2.6424   29.2051 O   0  0  0  0  0  0  0  0  0  0  0  0
   -2.4195   -0.2175   26.2693 C   0  0  1  0  0  0  0  0  0  0  0  0
   -1.5650    0.9642   26.1925 O   0  0  0  0  0  0  0  0  0  0  0  0
    9.9329    7.2509   26.6697 C   0  0  0  0  0  0  0  0  0  0  0  0
   10.7383    6.1674   27.1022 O   0  0  0  0  0  0  0  0  0  0  0  0
    3.5149    6.4499   23.3424 C   0  0  1  0  0  0  0  0  0  0  0  0
    2.1465    6.0734   23.1959 O   0  0  0  0  0  0  0  0  0  0  0  0
   -3.8094    0.1982   26.8157 C   0  0  0  0  0  0  0  0  0  0  0  0
   -4.5093    1.1362   25.9194 N   0  0  0  0  0  0  0  0  0  0  0  0
  1  2  1  1  0  0  0
  1  7  1  0  0  0  0
  1 30  1  0  0  0  0
  3  4  1  6  0  0  0
  3  9  1  0  0  0  0
  3 39  1  0  0  0  0
  5 10  1  0  0  0  0
  5 26  1  0  0  0  0
  5 32  1  1  0  0  0
  6 12  1  0  0  0  0
  6 36  1  0  0  0  0
  6 19  1  6  0  0  0
  7  8  1  6  0  0  0
  7 14  1  0  0  0  0
  9 16  1  0  0  0  0
 10 11  1  6  0  0  0
 10 18  1  0  0  0  0
 12 13  1  6  0  0  0
 12 20  1  0  0  0  0
 14 15  1  1  0  0  0
 14 22  1  0  0  0  0
 16 17  1  6  0  0  0
 16 24  1  0  0  0  0
 18 19  1  6  0  0  0
 18 25  1  0  0  0  0
 20 21  1  1  0  0  0
 20 27  1  0  0  0  0
 22 23  1  1  0  0  0
 22 29  1  0  0  0  0
 24  2  1  1  0  0  0
 24 31  1  0  0  0  0
 25 26  1  0  0  0  0
 25 33  1  6  0  0  0
 27 28  1  6  0  0  0
 27 35  1  0  0  0  0
 29 30  1  0  0  0  0
 29 37  1  1  0  0  0
 31 32  1  6  0  0  0
 31 39  1  0  0  0  0
 33 34  1  0  0  0  0
 35 36  1  0  0  0  0
 35 41  1  6  0  0  0
 37 38  1  0  0  0  0
 39 40  1  1  0  0  0
 41 42  1  0  0  0  0
M  END
>  <CHROM.1>
-169.07522935,-129.61631575,-53.16536666,-36.17682944,171.04743454,94.95323732
-71.35928224,170.62730872,124.24448866,-82.64137209,179.15132960,66.01370334
-167.50984348,176.80726592,56.73140734,149.93530854,153.87162627,172.61289916
-58.74952510,-63.81329453,73.49518343,-35.83935526,3.30031018,4.15279211
25.96855379,-0.20590828,0.63713722,2.18482423

>  <Name>
1fyp_lig

>  <RI>
0

>  <Rbt.Current_Directory>
/home/itssahil/PROJECTS/Mol_Feturizer/New_Systems/rnas/1fyp

>  <Rbt.Executable>
rbdock ($Id: //depot/dev/client3/rdock/2013.1/src/exe/rbdock.cxx#4 $)

>  <Rbt.Library>
libRbt.so (2013.1, Build901 2013/11/27)

>  <Rbt.Parameter_File>
/export/apps/rDock/src/rDock_2013.1_src/data/scripts/dock_solv.prm

>  <Rbt.Receptor>
prm/pocket_docking_2.prm

>  <SCORE>
-67.5243

>  <SCORE.INTER>
-57.5479

>  <SCORE.INTER.CONST>
1

>  <SCORE.INTER.POLAR>
-6.96398

>  <SCORE.INTER.ROT>
14

>  <SCORE.INTER.SOLV>
19.6392

>  <SCORE.INTER.VDW>
-34.6317

>  <SCORE.INTER.norm>
-1.37019

>  <SCORE.INTRA>
-10.0227

>  <SCORE.INTRA.DIHEDRAL>
-19.0164

>  <SCORE.INTRA.DIHEDRAL.0>
48.7173

>  <SCORE.INTRA.POLAR>
-0.579572

>  <SCORE.INTRA.POLAR.0>
-1.54691

>  <SCORE.INTRA.REPUL>
0

>  <SCORE.INTRA.REPUL.0>
0

>  <SCORE.INTRA.SOLV>
0.420588

>  <SCORE.INTRA.SOLV.lig_0>
-64.052

>  <SCORE.INTRA.VDW>
1.24578

>  <SCORE.INTRA.VDW.0>
-7.0667

>  <SCORE.INTRA.norm>
-0.238635

>  <SCORE.RESTR>
0.0462785

>  <SCORE.RESTR.CAVITY>
0.0462785

>  <SCORE.RESTR.norm>
0.00110187

>  <SCORE.SYSTEM>
0

>  <SCORE.SYSTEM.CONST>
0

>  <SCORE.SYSTEM.DIHEDRAL>
0

>  <SCORE.SYSTEM.SOLV>
0

>  <SCORE.SYSTEM.norm>
0

>  <SCORE.heavy>
42

>  <SCORE.norm>
-1.60772

>  <RMSD>
0.986

$$$$
1fyp_lig
 OpenBabel11021811393D
libRbt.so/2013.1/901 2013/11/27
 42 45  0  0  0  0  0  0  0  0999 V2000
    6.3721    5.6217   27.6346 C   0  0  2  0  0  0  0  0  0  0  0  0
    5.5194    6.6024   26.9762 O   0  0  0  0  0  0  0  0  0  0  0  0
    3.5312    7.5544   23.3182 C   0  0  2  0  0  0  0  0  0  0  0  0
    3.1119    7.7184   21.9140 N   0  0  0  0  0  0  0  0  0  0  0  0
    2.7691    3.7395   25.8553 C   0  0  1  0  0  0  0  0  0  0  0  0
   -0.0516    0.3459   25.8262 C   0  0  1  0  0  0  0  0  0  0  0  0
    6.2385    5.6993   29.1897 C   0  0  2  0  0  0  0  0  0  0  0  0
    4.8214    5.6600   29.6089 N   0  0  0  0  0  0  0  0  0  0  0  0
    4.9700    8.0813   23.4887 C   0  0  0  0  0  0  0  0  0  0  0  0
    2.8427    2.3235   25.2780 C   0  0  2  0  0  0  0  0  0  0  0  0
    2.1839    2.2898   24.0114 O   0  0  0  0  0  0  0  0  0  0  0  0
   -0.0290    0.0270   24.3001 C   0  0  2  0  0  0  0  0  0  0  0  0
   -0.4023    1.1957   23.4664 N   0  0  0  0  0  0  0  0  0  0  0  0
    6.9317    6.9832   29.7439 C   0  0  1  0  0  0  0  0  0  0  0  0
    6.9411    6.9606   31.1691 O   0  0  0  0  0  0  0  0  0  0  0  0
    5.4688    7.9645   24.9549 C   0  0  2  0  0  0  0  0  0  0  0  0
    6.8749    8.4176   24.9909 N   0  0  0  0  0  0  0  0  0  0  0  0
    2.0726    1.5167   26.3270 C   0  0  2  0  0  0  0  0  0  0  0  0
    0.6350    1.5912   26.1167 O   0  0  0  0  0  0  0  0  0  0  0  0
   -0.9240   -1.2091   23.9774 C   0  0  1  0  0  0  0  0  0  0  0  0
   -0.2601   -2.3830   24.4410 O   0  0  0  0  0  0  0  0  0  0  0  0
    8.3925    7.1110   29.2437 C   0  0  2  0  0  0  0  0  0  0  0  0
    8.9361    8.3437   29.7059 O   0  0  0  0  0  0  0  0  0  0  0  0
    5.3187    6.5127   25.5364 C   0  0  2  0  0  0  0  0  0  0  0  0
    2.4648    2.2263   27.6305 C   0  0  2  0  0  0  0  0  0  0  0  0
    2.6677    3.6097   27.2824 O   0  0  0  0  0  0  0  0  0  0  0  0
   -2.3384   -1.1585   24.6305 C   0  0  2  0  0  0  0  0  0  0  0  0
   -3.1258   -0.1910   23.9345 O   0  0  0  0  0  0  0  0  0  0  0  0
    8.4399    7.0398   27.6910 C   0  0  2  0  0  0  0  0  0  0  0  0
    7.7735    5.8195   27.2476 O   0  0  0  0  0  0  0  0  0  0  0  0
    3.9094    5.8803   25.2462 C   0  0  2  0  0  0  0  0  0  0  0  0
    3.9897    4.4563   25.5146 O   0  0  0  0  0  0  0  0  0  0  0  0
    3.7398    1.6495   28.2710 C   0  0  0  0  0  0  0  0  0  0  0  0
    3.5685    0.2802   28.5924 O   0  0  0  0  0  0  0  0  0  0  0  0
   -2.2376   -0.7847   26.1420 C   0  0  1  0  0  0  0  0  0  0  0  0
   -1.4404    0.4292   26.2948 O   0  0  0  0  0  0  0  0  0  0  0  0
    9.8614    7.0122   27.0860 C   0  0  0  0  0  0  0  0  0  0  0  0
    9.8446    7.3719   25.7150 O   0  0  0  0  0  0  0  0  0  0  0  0
    3.4469    6.0762   23.7690 C   0  0  1  0  0  0  0  0  0  0  0  0
    2.0987    5.6257   23.6464 O   0  0  0  0  0  0  0  0  0  0  0  0
   -3.6251   -0.5642   26.7973 C   0  0  0  0  0  0  0  0  0  0  0  0
   -3.5219   -0.0511   28.1754 N   0  0  0  0  0  0  0  0  0  0  0  0
  1  2  1  6  0  0  0
  1  7  1  0  0  0  0
  1 30  1  0  0  0  0
  3  4  1  6  0  0  0
  3  9  1  0  0  0  0
  3 39  1  0  0  0  0
  5 10  1  0  0  0  0
  5 26  1  0  0  0  0
  5 32  1  1  0  0  0
  6 12  1  0  0  0  0
  6 36  1  0  0  0  0
  6 19  1  6  0  0  0
  7  8  1  6  0  0  0
  7 14  1  0  0  0  0
  9 16  1  0  0  0  0
 10 11  1  6  0  0  0
 10 18  1  0  0  0  0
 12 13  1  6  0  0  0
 12 20  1  0  0  0  0
 14 15  1  1  0  0  0
 14 22  1  0  0  0  0
 16 17  1  6  0  0  0
 16 24  1  0  0  0  0
 18 19  1  6  0  0  0
 18 25  1  0  0  0  0
 20 21  1  1  0  0  0
 20 27  1  0  0  0  0
 22 23  1  6  0  0  0
 22 29  1  0  0  0  0
 24  2  1  1  0  0  0
 24 31  1  0  0  0  0
 25 26  1  0  0  0  0
 25 33  1  6  0  0  0
 27 28  1  6  0  0  0
 27 35  1  0  0  0  0
 29 30  1  0  0  0  0
 29 37  1  1  0  0  0
 31 32  1  6  0  0  0
 31 39  1  0  0  0  0
 33 34  1  0  0  0  0
 35 36  1  0  0  0  0
 35 41  1  6  0  0  0
 37 38  1  0  0  0  0
 39 40  1  1  0  0  0
 41 42  1  0  0  0  0
M  END
>  <CHROM.1>
-168.52434377,-134.93835984,69.50603398,-63.69035931,-177.17498012,-169.95077803
-59.60349527,126.96085386,117.70476701,-86.66785542,-41.79513719,65.75920191
-60.39295101,174.96499770,-161.35706183,155.27356294,145.53842925,-59.14702055
-172.94319646,173.69041440,-64.89966108,97.78234307,3.27614363,3.88533933
26.21806445,-0.17911621,0.70341033,2.10261833

>  <Name>
1fyp_lig

>  <RI>
0

>  <Rbt.Current_Directory>
/home/itssahil/PROJECTS/Mol_Feturizer/New_Systems/rnas/1fyp

>  <Rbt.Executable>
rbdock ($Id: //depot/dev/client3/rdock/2013.1/src/exe/rbdock.cxx#4 $)

>  <Rbt.Library>
libRbt.so (2013.1, Build901 2013/11/27)

>  <Rbt.Parameter_File>
/export/apps/rDock/src/rDock_2013.1_src/data/scripts/dock_solv.prm

>  <Rbt.Receptor>
prm/pocket_docking_3.prm

>  <SCORE>
-57.158

>  <SCORE.INTER>
-54.3205

>  <SCORE.INTER.CONST>
1

>  <SCORE.INTER.POLAR>
-6.53645

>  <SCORE.INTER.ROT>
14

>  <SCORE.INTER.SOLV>
20.3014

>  <SCORE.INTER.VDW>
-34.126

>  <SCORE.INTER.norm>
-1.29335

>  <SCORE.INTRA>
-2.83753

>  <SCORE.INTRA.DIHEDRAL>
-16.6292

>  <SCORE.INTRA.DIHEDRAL.0>
48.7173

>  <SCORE.INTRA.POLAR>
1.35624

>  <SCORE.INTRA.POLAR.0>
-1.54691

>  <SCORE.INTRA.REPUL>
0.0727236

>  <SCORE.INTRA.REPUL.0>
0

>  <SCORE.INTRA.SOLV>
-1.2157

>  <SCORE.INTRA.SOLV.lig_0>
-64.052

>  <SCORE.INTRA.VDW>
1.11006

>  <SCORE.INTRA.VDW.0>
-7.0667

>  <SCORE.INTRA.norm>
-0.0675603

>  <SCORE.RESTR>
0

>  <SCORE.RESTR.CAVITY>
0

>  <SCORE.RESTR.norm>
0

>  <SCORE.SYSTEM>
0

>  <SCORE.SYSTEM.CONST>
0

>  <SCORE.SYSTEM.DIHEDRAL>
0

>  <SCORE.SYSTEM.SOLV>
0

>  <SCORE.SYSTEM.norm>
0

>  <SCORE.heavy>
42

>  <SCORE.norm>
-1.36091

>  <RMSD>
1.003

$$$$
1fyp_lig
 OpenBabel11021811393D
libRbt.so/2013.1/901 2013/11/27
 42 45  0  0  0  0  0  0  0  0999 V2000
    6.8973    6.0788   27.1684 C   0  0  2  0  0  0  0  0  0  0  0  0
    6.0569    7.1115   26.5771 O   0  0  0  0  0  0  0  0  0  0  0  0
    3.6182    7.9446   23.1713 C   0  0  2  0  0  0  0  0  0  0  0  0
    3.0371    8.0875   21.8236 N   0  0  0  0  0  0  0  0  0  0  0  0
    3.3937    3.9687   25.1292 C   0  0  1  0  0  0  0  0  0  0  0  0
    0.8083    0.3547   25.4272 C   0  0  1  0  0  0  0  0  0  0  0  0
    6.7509    6.0427   28.7238 C   0  0  2  0  0  0  0  0  0  0  0  0
    5.3299    5.9828   29.1274 N   0  0  0  0  0  0  0  0  0  0  0  0
    5.0274    8.5698   23.1911 C   0  0  0  0  0  0  0  0  0  0  0  0
    3.8614    2.5365   25.4008 C   0  0  2  0  0  0  0  0  0  0  0  0
    4.1693    1.8924   24.1640 O   0  0  0  0  0  0  0  0  0  0  0  0
    0.3522   -0.4434   24.1678 C   0  0  2  0  0  0  0  0  0  0  0  0
   -0.1514    0.4365   23.0850 N   0  0  0  0  0  0  0  0  0  0  0  0
    7.4476    7.2773   29.3768 C   0  0  1  0  0  0  0  0  0  0  0  0
    7.4445    7.1498   30.7964 O   0  0  0  0  0  0  0  0  0  0  0  0
    5.6911    8.4790   24.5924 C   0  0  2  0  0  0  0  0  0  0  0  0
    7.0580    9.0292   24.4810 N   0  0  0  0  0  0  0  0  0  0  0  0
    2.6216    1.9205   26.0550 C   0  0  2  0  0  0  0  0  0  0  0  0
    1.6519    1.4787   25.0645 O   0  0  0  0  0  0  0  0  0  0  0  0
   -0.6985   -1.5311   24.5497 C   0  0  1  0  0  0  0  0  0  0  0  0
   -0.0283   -2.5898   25.2306 O   0  0  0  0  0  0  0  0  0  0  0  0
    8.9134    7.4312   28.8992 C   0  0  2  0  0  0  0  0  0  0  0  0
    9.4612    8.6225   29.4554 O   0  0  0  0  0  0  0  0  0  0  0  0
    5.7059    7.0168   25.1667 C   0  0  2  0  0  0  0  0  0  0  0  0
    2.0660    3.0996   26.8657 C   0  0  2  0  0  0  0  0  0  0  0  0
    2.4046    4.2860   26.1216 O   0  0  0  0  0  0  0  0  0  0  0  0
   -1.8475   -1.0120   25.4664 C   0  0  2  0  0  0  0  0  0  0  0  0
   -2.7213   -0.1979   24.6826 O   0  0  0  0  0  0  0  0  0  0  0  0
    8.9739    7.4741   27.3459 C   0  0  2  0  0  0  0  0  0  0  0  0
    8.3033    6.2946   26.8084 O   0  0  0  0  0  0  0  0  0  0  0  0
    4.3202    6.2892   25.0233 C   0  0  2  0  0  0  0  0  0  0  0  0
    4.5274    4.8726   25.2616 O   0  0  0  0  0  0  0  0  0  0  0  0
    2.6498    3.1822   28.2874 C   0  0  0  0  0  0  0  0  0  0  0  0
    4.0058    3.5916   28.2536 O   0  0  0  0  0  0  0  0  0  0  0  0
   -1.2737   -0.1902   26.6622 C   0  0  1  0  0  0  0  0  0  0  0  0
   -0.3679    0.8393   26.1600 O   0  0  0  0  0  0  0  0  0  0  0  0
   10.4003    7.4809   26.7522 C   0  0  0  0  0  0  0  0  0  0  0  0
   11.1041    6.2976   27.0896 O   0  0  0  0  0  0  0  0  0  0  0  0
    3.6860    6.4614   23.6081 C   0  0  1  0  0  0  0  0  0  0  0  0
    2.3666    5.9184   23.6271 O   0  0  0  0  0  0  0  0  0  0  0  0
   -2.3820    0.4822   27.5123 C   0  0  0  0  0  0  0  0  0  0  0  0
   -1.8655    1.5899   28.3365 N   0  0  0  0  0  0  0  0  0  0  0  0
  1  2  1  1  0  0  0
  1  7  1  0  0  0  0
  1 30  1  0  0  0  0
  3  4  1  6  0  0  0
  3  9  1  0  0  0  0
  3 39  1  0  0  0  0
  5 10  1  0  0  0  0
  5 26  1  0  0  0  0
  5 32  1  1  0  0  0
  6 12  1  0  0  0  0
  6 36  1  0  0  0  0
  6 19  1  6  0  0  0
  7  8  1  6  0  0  0
  7 14  1  0  0  0  0
  9 16  1  0  0  0  0
 10 11  1  6  0  0  0
 10 18  1  0  0  0  0
 12 13  1  6  0  0  0
 12 20  1  0  0  0  0
 14 15  1  1  0  0  0
 14 22  1  0  0  0  0
 16 17  1  6  0  0  0
 16 24  1  0  0  0  0
 18 19  1  6  0  0  0
 18 25  1  0  0  0  0
 20 21  1  1  0  0  0
 20 27  1  0  0  0  0
 22 23  1  1  0  0  0
 22 29  1  0  0  0  0
 24  2  1  1  0  0  0
 24 31  1  0  0  0  0
 25 26  1  0  0  0  0
 25 33  1  1  0  0  0
 27 28  1  6  0  0  0
 27 35  1  0  0  0  0
 29 30  1  0  0  0  0
 29 37  1  1  0  0  0
 31 32  1  6  0  0  0
 31 39  1  0  0  0  0
 33 34  1  0  0  0  0
 35 36  1  0  0  0  0
 35 41  1  6  0  0  0
 37 38  1  0  0  0  0
 39 40  1  1  0  0  0
 41 42  1  0  0  0  0
M  END
>  <CHROM.1>
-159.50392820,-143.35376633,-177.90598521,-74.08272506,86.39450370,-53.57026965
-163.51099293,89.38241730,150.54940034,-152.31842381,-164.09390588,54.51170526
71.22298690,65.76187219,62.22401804,-177.42073015,178.95013203,-173.50278062
-160.91336287,56.30993793,66.21587258,-176.21079536,3.78595513,4.27682072
26.07876674,-0.24634614,0.69451849,2.17171977

>  <Name>
1fyp_lig

>  <RI>
0

>  <Rbt.Current_Directory>
/home/itssahil/PROJECTS/Mol_Feturizer/New_Systems/rnas/1fyp

>  <Rbt.Executable>
rbdock ($Id: //depot/dev/client3/rdock/2013.1/src/exe/rbdock.cxx#4 $)

>  <Rbt.Library>
libRbt.so (2013.1, Build901 2013/11/27)

>  <Rbt.Parameter_File>
/export/apps/rDock/src/rDock_2013.1_src/data/scripts/dock_solv.prm

>  <Rbt.Receptor>
prm/pocket_docking_2.prm

>  <SCORE>
-58.6694

>  <SCORE.INTER>
-50.7652

>  <SCORE.INTER.CONST>
1

>  <SCORE.INTER.POLAR>
-6.4038

>  <SCORE.INTER.ROT>
14

>  <SCORE.INTER.SOLV>
20.2962

>  <SCORE.INTER.VDW>
-32.1962

>  <SCORE.INTER.norm>
-1.2087

>  <SCORE.INTRA>
-9.68354

>  <SCORE.INTRA.DIHEDRAL>
-25.7115

>  <SCORE.INTRA.DIHEDRAL.0>
48.7173

>  <SCORE.INTRA.POLAR>
0.50442

>  <SCORE.INTRA.POLAR.0>
-1.54691

>  <SCORE.INTRA.REPUL>
0

>  <SCORE.INTRA.REPUL.0>
0

>  <SCORE.INTRA.SOLV>
-0.628002

>  <SCORE.INTRA.SOLV.lig_0>
-64.052

>  <SCORE.INTRA.VDW>
1.77117

>  <SCORE.INTRA.VDW.0>
-7.0667

>  <SCORE.INTRA.norm>
-0.230561

>  <SCORE.RESTR>
1.77937

>  <SCORE.RESTR.CAVITY>
1.77937

>  <SCORE.RESTR.norm>
0.042366

>  <SCORE.SYSTEM>
0

>  <SCORE.SYSTEM.CONST>
0

>  <SCORE.SYSTEM.DIHEDRAL>
0

>  <SCORE.SYSTEM.SOLV>
0

>  <SCORE.SYSTEM.norm>
0

>  <SCORE.heavy>
42

>  <SCORE.norm>
-1.39689

>  <RMSD>
1.021

$$$$
1fyp_lig
 OpenBabel11021811393D
libRbt.so/2013.1/901 2013/11/27
 42 45  0  0  0  0  0  0  0  0999 V2000
    6.8900    5.8669   27.0960 C   0  0  2  0  0  0  0  0  0  0  0  0
    6.0330    6.8909   26.5134 O   0  0  0  0  0  0  0  0  0  0  0  0
    3.4900    7.7483   23.1909 C   0  0  2  0  0  0  0  0  0  0  0  0
    2.8472    7.8639   21.8688 N   0  0  0  0  0  0  0  0  0  0  0  0
    2.9865    3.9861   25.6085 C   0  0  1  0  0  0  0  0  0  0  0  0
    0.2140    0.5101   26.0119 C   0  0  1  0  0  0  0  0  0  0  0  0
    6.3593    5.4018   28.4903 C   0  0  2  0  0  0  0  0  0  0  0  0
    4.9274    5.0395   28.4255 N   0  0  0  0  0  0  0  0  0  0  0  0
    4.9514    8.2301   23.0945 C   0  0  0  0  0  0  0  0  0  0  0  0
    3.2603    2.5044   25.3376 C   0  0  2  0  0  0  0  0  0  0  0  0
    2.9337    2.1990   23.9813 O   0  0  0  0  0  0  0  0  0  0  0  0
    0.1622   -0.3926   24.7417 C   0  0  2  0  0  0  0  0  0  0  0  0
   -0.2124    0.3607   23.5200 N   0  0  0  0  0  0  0  0  0  0  0  0
    6.5902    6.5054   29.5696 C   0  0  1  0  0  0  0  0  0  0  0  0
    6.2488    6.0089   30.8614 O   0  0  0  0  0  0  0  0  0  0  0  0
    5.6843    8.1615   24.4622 C   0  0  2  0  0  0  0  0  0  0  0  0
    7.0888    8.5648   24.2425 N   0  0  0  0  0  0  0  0  0  0  0  0
    2.2924    1.8238   26.3094 C   0  0  2  0  0  0  0  0  0  0  0  0
    0.9482    1.7366   25.7598 O   0  0  0  0  0  0  0  0  0  0  0  0
   -0.7813   -1.6143   24.9664 C   0  0  1  0  0  0  0  0  0  0  0  0
   -0.1326   -2.5329   25.8433 O   0  0  0  0  0  0  0  0  0  0  0  0
    8.0637    6.9832   29.5991 C   0  0  2  0  0  0  0  0  0  0  0  0
    8.1880    8.0502   30.5345 O   0  0  0  0  0  0  0  0  0  0  0  0
    5.5925    6.7437   25.1329 C   0  0  2  0  0  0  0  0  0  0  0  0
    2.3226    2.7758   27.5132 C   0  0  2  0  0  0  0  0  0  0  0  0
    2.5445    4.0922   26.9713 O   0  0  0  0  0  0  0  0  0  0  0  0
   -2.1645   -1.2452   25.5831 C   0  0  2  0  0  0  0  0  0  0  0  0
   -2.9525   -0.6030   24.5794 O   0  0  0  0  0  0  0  0  0  0  0  0
    8.5113    7.4422   28.1824 C   0  0  2  0  0  0  0  0  0  0  0  0
    8.2638    6.3644   27.2300 O   0  0  0  0  0  0  0  0  0  0  0  0
    4.1374    6.1501   25.1118 C   0  0  2  0  0  0  0  0  0  0  0  0
    4.2213    4.7376   25.4346 O   0  0  0  0  0  0  0  0  0  0  0  0
    3.4256    2.4288   28.5289 C   0  0  0  0  0  0  0  0  0  0  0  0
    3.2439    1.1219   29.0450 O   0  0  0  0  0  0  0  0  0  0  0  0
   -1.9885   -0.3033   26.8145 C   0  0  1  0  0  0  0  0  0  0  0  0
   -1.1505    0.8345   26.4459 O   0  0  0  0  0  0  0  0  0  0  0  0
   10.0082    7.8048   28.0607 C   0  0  0  0  0  0  0  0  0  0  0  0
   10.8265    6.6508   28.1509 O   0  0  0  0  0  0  0  0  0  0  0  0
    3.4407    6.2959   23.7233 C   0  0  1  0  0  0  0  0  0  0  0  0
    2.0788    5.8892   23.8480 O   0  0  0  0  0  0  0  0  0  0  0  0
   -3.3397    0.2211   27.3644 C   0  0  0  0  0  0  0  0  0  0  0  0
   -4.0538    1.0668   26.3908 N   0  0  0  0  0  0  0  0  0  0  0  0
  1  2  1  1  0  0  0
  1  7  1  0  0  0  0
  1 30  1  0  0  0  0
  3  4  1  6  0  0  0
  3  9  1  0  0  0  0
  3 39  1  0  0  0  0
  5 10  1  0  0  0  0
  5 26  1  0  0  0  0
  5 32  1  1  0  0  0
  6 12  1  0  0  0  0
  6 36  1  0  0  0  0
  6 19  1  6  0  0  0
  7  8  1  6  0  0  0
  7 14  1  0  0  0  0
  9 16  1  0  0  0  0
 10 11  1  6  0  0  0
 10 18  1  0  0  0  0
 12 13  1  6  0  0  0
 12 20  1  0  0  0  0
 14 15  1  1  0  0  0
 14 22  1  0  0  0  0
 16 17  1  6  0  0  0
 16 24  1  0  0  0  0
 18 19  1  6  0  0  0
 18 25  1  0  0  0  0
 20 21  1  1  0  0  0
 20 27  1  0  0  0  0
 22 23  1  1  0  0  0
 22 29  1  0  0  0  0
 24  2  1  1  0  0  0
 24 31  1  0  0  0  0
 25 26  1  0  0  0  0
 25 33  1  1  0  0  0
 27 28  1  6  0  0  0
 27 35  1  0  0  0  0
 29 30  1  0  0  0  0
 29 37  1  1  0  0  0
 31 32  1  6  0  0  0
 31 39  1  0  0  0  0
 33 34  1  0  0  0  0
 35 36  1  0  0  0  0
 35 41  1  6  0  0  0
 37 38  1  0  0  0  0
 39 40  1  1  0  0  0
 41 42  1  0  0  0  0
M  END
>  <CHROM.1>
-131.12759029,-138.67019271,59.98388258,-82.03271703,-59.80855353,92.24739060
-158.01229518,-29.47850838,140.36073628,-104.52213260,-164.19340681,68.39807855
-60.09819097,-173.37810203,70.32867513,174.03237793,155.76528383,-175.67827435
-63.75964212,63.18214812,-56.54110983,-126.28850720,3.37066886,3.99640003
26.30136130,-0.25364667,0.66860539,2.20048203

>  <Name>
1fyp_lig

>  <RI>
0

>  <Rbt.Current_Directory>
/home/itssahil/PROJECTS/Mol_Feturizer/New_Systems/rnas/1fyp

>  <Rbt.Executable>
rbdock ($Id: //depot/dev/client3/rdock/2013.1/src/exe/rbdock.cxx#4 $)

>  <Rbt.Library>
libRbt.so (2013.1, Build901 2013/11/27)

>  <Rbt.Parameter_File>
/export/apps/rDock/src/rDock_2013.1_src/data/scripts/dock_solv.prm

>  <Rbt.Receptor>
prm/pocket_docking_2.prm

>  <SCORE>
-49.9911

>  <SCORE.INTER>
-46.8582

>  <SCORE.INTER.CONST>
1

>  <SCORE.INTER.POLAR>
-5.21142

>  <SCORE.INTER.ROT>
14

>  <SCORE.INTER.SOLV>
18.3738

>  <SCORE.INTER.VDW>
-32.9253

>  <SCORE.INTER.norm>
-1.11567

>  <SCORE.INTRA>
-3.42942

>  <SCORE.INTRA.DIHEDRAL>
-12.085

>  <SCORE.INTRA.DIHEDRAL.0>
48.7173

>  <SCORE.INTRA.POLAR>
-0.051367

>  <SCORE.INTRA.POLAR.0>
-1.54691

>  <SCORE.INTRA.REPUL>
0

>  <SCORE.INTRA.REPUL.0>
0

>  <SCORE.INTRA.SOLV>
-0.524964

>  <SCORE.INTRA.SOLV.lig_0>
-64.052

>  <SCORE.INTRA.VDW>
3.05019

>  <SCORE.INTRA.VDW.0>
-7.0667

>  <SCORE.INTRA.norm>
-0.0816528

>  <SCORE.RESTR>
0.296513

>  <SCORE.RESTR.CAVITY>
0.296513

>  <SCORE.RESTR.norm>
0.00705984

>  <SCORE.SYSTEM>
0

>  <SCORE.SYSTEM.CONST>
0

>  <SCORE.SYSTEM.DIHEDRAL>
0

>  <SCORE.SYSTEM.SOLV>
0

>  <SCORE.SYSTEM.norm>
0

>  <SCORE.heavy>
42

>  <SCORE.norm>
-1.19026

>  <RMSD>
1.042

$$$$
1fyp_lig
 OpenBabel11021811393D
libRbt.so/2013.1/901 2013/11/27
 42 45  0  0  0  0  0  0  0  0999 V2000
    6.3751    5.7321   27.0714 C   0  0  2  0  0  0  0  0  0  0  0  0
    5.4582    6.7075   26.4968 O   0  0  0  0  0  0  0  0  0  0  0  0
    3.5221    8.0012   22.9165 C   0  0  2  0  0  0  0  0  0  0  0  0
    3.1096    8.2757   21.5276 N   0  0  0  0  0  0  0  0  0  0  0  0
    2.6225    4.1313   25.5216 C   0  0  1  0  0  0  0  0  0  0  0  0
   -0.2358    0.8749   26.4786 C   0  0  1  0  0  0  0  0  0  0  0  0
    6.2150    5.6409   28.6232 C   0  0  2  0  0  0  0  0  0  0  0  0
    4.7995    5.4521   29.0061 N   0  0  0  0  0  0  0  0  0  0  0  0
    4.9915    8.4263   23.1086 C   0  0  0  0  0  0  0  0  0  0  0  0
    2.5835    2.6523   25.1283 C   0  0  2  0  0  0  0  0  0  0  0  0
    1.7446    2.4846   23.9847 O   0  0  0  0  0  0  0  0  0  0  0  0
    0.0245   -0.0605   25.2586 C   0  0  2  0  0  0  0  0  0  0  0  0
   -0.0760    0.6513   23.9611 N   0  0  0  0  0  0  0  0  0  0  0  0
    6.7992    6.9104   29.3182 C   0  0  1  0  0  0  0  0  0  0  0  0
    6.7910    6.7437   30.7338 O   0  0  0  0  0  0  0  0  0  0  0  0
    5.4866    8.1900   24.5617 C   0  0  2  0  0  0  0  0  0  0  0  0
    6.9183    8.5519   24.6153 N   0  0  0  0  0  0  0  0  0  0  0  0
    1.9612    2.0131   26.3728 C   0  0  2  0  0  0  0  0  0  0  0  0
    0.5100    2.1147   26.3634 O   0  0  0  0  0  0  0  0  0  0  0  0
   -0.9187   -1.3021   25.2991 C   0  0  1  0  0  0  0  0  0  0  0  0
   -0.4688   -2.1800   26.3290 O   0  0  0  0  0  0  0  0  0  0  0  0
    8.2523    7.1985   28.8645 C   0  0  2  0  0  0  0  0  0  0  0  0
    8.6927    8.4153   29.4597 O   0  0  0  0  0  0  0  0  0  0  0  0
    5.2478    6.7179   25.0556 C   0  0  2  0  0  0  0  0  0  0  0  0
    2.5547    2.8655   27.5032 C   0  0  2  0  0  0  0  0  0  0  0  0
    2.7301    4.1855   26.9532 O   0  0  0  0  0  0  0  0  0  0  0  0
   -2.4142   -0.9566   25.5716 C   0  0  2  0  0  0  0  0  0  0  0  0
   -2.9646   -0.3621   24.3950 O   0  0  0  0  0  0  0  0  0  0  0  0
    8.3262    7.2894   27.3139 C   0  0  2  0  0  0  0  0  0  0  0  0
    7.7622    6.0737   26.7361 O   0  0  0  0  0  0  0  0  0  0  0  0
    3.8009    6.1931   24.7375 C   0  0  2  0  0  0  0  0  0  0  0  0
    3.7930    4.7531   24.9189 O   0  0  0  0  0  0  0  0  0  0  0  0
    3.8990    2.3260   28.0231 C   0  0  0  0  0  0  0  0  0  0  0  0
    3.6997    1.2186   28.8843 O   0  0  0  0  0  0  0  0  0  0  0  0
   -2.5456    0.0203   26.7810 C   0  0  1  0  0  0  0  0  0  0  0  0
   -1.6702    1.1716   26.5789 O   0  0  0  0  0  0  0  0  0  0  0  0
    9.7535    7.4309   26.7396 C   0  0  0  0  0  0  0  0  0  0  0  0
   10.5984    6.3887   27.1974 O   0  0  0  0  0  0  0  0  0  0  0  0
    3.3470    6.5065   23.2779 C   0  0  1  0  0  0  0  0  0  0  0  0
    1.9729    6.1489   23.1376 O   0  0  0  0  0  0  0  0  0  0  0  0
   -3.9979    0.5202   26.9909 C   0  0  0  0  0  0  0  0  0  0  0  0
   -4.4989    1.2942   25.8408 N   0  0  0  0  0  0  0  0  0  0  0  0
  1  2  1  1  0  0  0
  1  7  1  0  0  0  0
  1 30  1  0  0  0  0
  3  4  1  6  0  0  0
  3  9  1  0  0  0  0
  3 39  1  0  0  0  0
  5 10  1  0  0  0  0
  5 26  1  0  0  0  0
  5 32  1  6  0  0  0
  6 12  1  0  0  0  0
  6 36  1  0  0  0  0
  6 19  1  6  0  0  0
  7  8  1  6  0  0  0
  7 14  1  0  0  0  0
  9 16  1  0  0  0  0
 10 11  1  6  0  0  0
 10 18  1  0  0  0  0
 12 13  1  6  0  0  0
 12 20  1  0  0  0  0
 14 15  1  1  0  0  0
 14 22  1  0  0  0  0
 16 17  1  6  0  0  0
 16 24  1  0  0  0  0
 18 19  1  6  0  0  0
 18 25  1  0  0  0  0
 20 21  1  1  0  0  0
 20 27  1  0  0  0  0
 22 23  1  1  0  0  0
 22 29  1  0  0  0  0
 24  2  1  1  0  0  0
 24 31  1  0  0  0  0
 25 26  1  0  0  0  0
 25 33  1  6  0  0  0
 27 28  1  6  0  0  0
 27 35  1  0  0  0  0
 29 30  1  0  0  0  0
 29 37  1  1  0  0  0
 31 32  1  6  0  0  0
 31 39  1  0  0  0  0
 33 34  1  0  0  0  0
 35 36  1  0  0  0  0
 35 41  1  6  0  0  0
 37 38  1  0  0  0  0
 39 40  1  1  0  0  0
 41 42  1  0  0  0  0
M  END
>  <CHROM.1>
-166.32644934,-127.82796019,56.59021154,25.58085205,50.53335946,-74.61253584
-63.52595862,162.50193334,123.91135978,-63.66696281,-178.58926883,177.56045471
-77.88279086,-174.68490347,54.65449924,141.17949788,158.16959880,-172.80233812
-62.41774402,69.61566662,73.84257102,-118.49389645,3.20010368,4.16335665
26.14254291,-0.30522501,0.60904408,2.24632976

>  <Name>
1fyp_lig

>  <RI>
0

>  <Rbt.Current_Directory>
/home/itssahil/PROJECTS/Mol_Feturizer/New_Systems/rnas/1fyp

>  <Rbt.Executable>
rbdock ($Id: //depot/dev/client3/rdock/2013.1/src/exe/rbdock.cxx#4 $)

>  <Rbt.Library>
libRbt.so (2013.1, Build901 2013/11/27)

>  <Rbt.Parameter_File>
/export/apps/rDock/src/rDock_2013.1_src/data/scripts/dock_solv.prm

>  <Rbt.Receptor>
prm/pocket_docking_2.prm

>  <SCORE>
-62.7183

>  <SCORE.INTER>
-51.2934

>  <SCORE.INTER.CONST>
1

>  <SCORE.INTER.POLAR>
-5.99047

>  <SCORE.INTER.ROT>
14

>  <SCORE.INTER.SOLV>
19.7348

>  <SCORE.INTER.VDW>
-33.739

>  <SCORE.INTER.norm>
-1.22127

>  <SCORE.INTRA>
-11.8061

>  <SCORE.INTRA.DIHEDRAL>
-17.7345

>  <SCORE.INTRA.DIHEDRAL.0>
48.7173

>  <SCORE.INTRA.POLAR>
-1.24378

>  <SCORE.INTRA.POLAR.0>
-1.54691

>  <SCORE.INTRA.REPUL>
0

>  <SCORE.INTRA.REPUL.0>
0

>  <SCORE.INTRA.SOLV>
0.290568

>  <SCORE.INTRA.SOLV.lig_0>
-64.052

>  <SCORE.INTRA.VDW>
1.14474

>  <SCORE.INTRA.VDW.0>
-7.0667

>  <SCORE.INTRA.norm>
-0.281097

>  <SCORE.RESTR>
0.38116

>  <SCORE.RESTR.CAVITY>
0.38116

>  <SCORE.RESTR.norm>
0.00907524

>  <SCORE.SYSTEM>
0

>  <SCORE.SYSTEM.CONST>
0

>  <SCORE.SYSTEM.DIHEDRAL>
0

>  <SCORE.SYSTEM.SOLV>
0

>  <SCORE.SYSTEM.norm>
0

>  <SCORE.heavy>
42

>  <SCORE.norm>
-1.49329

>  <RMSD>
1.046

$$$$
1fyp_lig
 OpenBabel11021811393D
libRbt.so/2013.1/901 2013/11/27
 42 45  0  0  0  0  0  0  0  0999 V2000
    7.1703    6.2716   27.2368 C   0  0  2  0  0  0  0  0  0  0  0  0
    6.3591    7.2887   26.5812 O   0  0  0  0  0  0  0  0  0  0  0  0
    3.7973    7.8795   23.2153 C   0  0  2  0  0  0  0  0  0  0  0  0
    3.1650    7.9217   21.8838 N   0  0  0  0  0  0  0  0  0  0  0  0
    3.6593    4.0370   25.2999 C   0  0  1  0  0  0  0  0  0  0  0  0
    0.9994    0.5278   25.4336 C   0  0  1  0  0  0  0  0  0  0  0  0
    6.9536    6.2766   28.7844 C   0  0  2  0  0  0  0  0  0  0  0  0
    5.5158    6.2280   29.1248 N   0  0  0  0  0  0  0  0  0  0  0  0
    5.2130    8.4841   23.1302 C   0  0  0  0  0  0  0  0  0  0  0  0
    4.1742    2.6102   25.5065 C   0  0  2  0  0  0  0  0  0  0  0  0
    4.5371    2.0466   24.2455 O   0  0  0  0  0  0  0  0  0  0  0  0
    0.2595   -0.0395   24.1838 C   0  0  2  0  0  0  0  0  0  0  0  0
   -0.1601    1.0225   23.2371 N   0  0  0  0  0  0  0  0  0  0  0  0
    7.6223    7.5276   29.4355 C   0  0  1  0  0  0  0  0  0  0  0  0
    7.5548    7.4376   30.8564 O   0  0  0  0  0  0  0  0  0  0  0  0
    5.9304    8.4971   24.5077 C   0  0  2  0  0  0  0  0  0  0  0  0
    7.2979    9.0169   24.2996 N   0  0  0  0  0  0  0  0  0  0  0  0
    2.9428    1.9143   26.0929 C   0  0  2  0  0  0  0  0  0  0  0  0
    2.0156    1.4922   25.0543 O   0  0  0  0  0  0  0  0  0  0  0  0
   -0.9486   -0.9295   24.6098 C   0  0  1  0  0  0  0  0  0  0  0  0
   -0.4457   -2.1603   25.1254 O   0  0  0  0  0  0  0  0  0  0  0  0
    9.1084    7.6681   29.0208 C   0  0  2  0  0  0  0  0  0  0  0  0
    9.6324    8.8734   29.5697 O   0  0  0  0  0  0  0  0  0  0  0  0
    5.9518    7.0858   25.1976 C   0  0  2  0  0  0  0  0  0  0  0  0
    2.3228    3.0261   26.9507 C   0  0  2  0  0  0  0  0  0  0  0  0
    2.6344    4.2631   26.2809 O   0  0  0  0  0  0  0  0  0  0  0  0
   -1.8634   -0.2839   25.6944 C   0  0  2  0  0  0  0  0  0  0  0  0
   -2.6258    0.7585   25.0837 O   0  0  0  0  0  0  0  0  0  0  0  0
    9.2390    7.6701   27.4712 C   0  0  2  0  0  0  0  0  0  0  0  0
    8.5915    6.4771   26.9352 O   0  0  0  0  0  0  0  0  0  0  0  0
    4.5535    6.3688   25.1670 C   0  0  2  0  0  0  0  0  0  0  0  0
    4.7541    4.9732   25.5112 O   0  0  0  0  0  0  0  0  0  0  0  0
    2.8673    3.0519   28.3899 C   0  0  0  0  0  0  0  0  0  0  0  0
    2.6283    1.8173   29.0427 O   0  0  0  0  0  0  0  0  0  0  0  0
   -1.0107    0.2893   26.8686 C   0  0  1  0  0  0  0  0  0  0  0  0
    0.0318    1.1628   26.3369 O   0  0  0  0  0  0  0  0  0  0  0  0
   10.6908    7.6605   26.9427 C   0  0  0  0  0  0  0  0  0  0  0  0
   11.3721    8.8549   27.2871 O   0  0  0  0  0  0  0  0  0  0  0  0
    3.8658    6.4355   23.7680 C   0  0  1  0  0  0  0  0  0  0  0  0
    2.5423    5.9147   23.8817 O   0  0  0  0  0  0  0  0  0  0  0  0
   -1.8611    1.0828   27.8934 C   0  0  0  0  0  0  0  0  0  0  0  0
   -2.8215    0.2259   28.6120 N   0  0  0  0  0  0  0  0  0  0  0  0
  1  2  1  6  0  0  0
  1  7  1  0  0  0  0
  1 30  1  0  0  0  0
  3  4  1  6  0  0  0
  3  9  1  0  0  0  0
  3 39  1  0  0  0  0
  5 10  1  0  0  0  0
  5 26  1  0  0  0  0
  5 32  1  1  0  0  0
  6 12  1  0  0  0  0
  6 36  1  0  0  0  0
  6 19  1  6  0  0  0
  7  8  1  6  0  0  0
  7 14  1  0  0  0  0
  9 16  1  0  0  0  0
 10 11  1  6  0  0  0
 10 18  1  0  0  0  0
 12 13  1  6  0  0  0
 12 20  1  0  0  0  0
 14 15  1  1  0  0  0
 14 22  1  0  0  0  0
 16 17  1  6  0  0  0
 16 24  1  0  0  0  0
 18 19  1  6  0  0  0
 18 25  1  0  0  0  0
 20 21  1  1  0  0  0
 20 27  1  0  0  0  0
 22 23  1  6  0  0  0
 22 29  1  0  0  0  0
 24  2  1  1  0  0  0
 24 31  1  0  0  0  0
 25 26  1  0  0  0  0
 25 33  1  1  0  0  0
 27 28  1  6  0  0  0
 27 35  1  0  0  0  0
 29 30  1  0  0  0  0
 29 37  1  1  0  0  0
 31 32  1  6  0  0  0
 31 39  1  0  0  0  0
 33 34  1  0  0  0  0
 35 36  1  0  0  0  0
 35 41  1  1  0  0  0
 37 38  1  0  0  0  0
 39 40  1  1  0  0  0
 41 42  1  0  0  0  0
M  END
>  <CHROM.1>
-152.97058523,-145.57304189,-173.64735365,-72.48058233,88.75666735,67.09183032
61.97877033,-47.60086532,164.30906525,-169.02666957,-36.83496274,61.49510247
-58.80554525,67.65679728,-65.31055593,-168.10455208,170.54811930,-176.87270188
65.75231358,53.58950881,-167.61461033,-45.31857247,3.90885029,4.44174693
26.20110809,-0.18051496,0.69532100,2.04250488

>  <Name>
1fyp_lig

>  <RI>
0

>  <Rbt.Current_Directory>
/home/itssahil/PROJECTS/Mol_Feturizer/New_Systems/rnas/1fyp

>  <Rbt.Executable>
rbdock ($Id: //depot/dev/client3/rdock/2013.1/src/exe/rbdock.cxx#4 $)

>  <Rbt.Library>
libRbt.so (2013.1, Build901 2013/11/27)

>  <Rbt.Parameter_File>
/export/apps/rDock/src/rDock_2013.1_src/data/scripts/dock_solv.prm

>  <Rbt.Receptor>
prm/pocket_docking_4.prm

>  <SCORE>
-54.1266

>  <SCORE.INTER>
-51.9788

>  <SCORE.INTER.CONST>
1

>  <SCORE.INTER.POLAR>
-6.24564

>  <SCORE.INTER.ROT>
14

>  <SCORE.INTER.SOLV>
17.0289

>  <SCORE.INTER.VDW>
-32.4434

>  <SCORE.INTER.norm>
-1.23759

>  <SCORE.INTRA>
-2.14783

>  <SCORE.INTRA.DIHEDRAL>
-29.8307

>  <SCORE.INTRA.DIHEDRAL.0>
48.7173

>  <SCORE.INTRA.POLAR>
0.363328

>  <SCORE.INTRA.POLAR.0>
-1.54691

>  <SCORE.INTRA.REPUL>
0

>  <SCORE.INTRA.REPUL.0>
0

>  <SCORE.INTRA.SOLV>
-2.73254

>  <SCORE.INTRA.SOLV.lig_0>
-64.052

>  <SCORE.INTRA.VDW>
12.8985

>  <SCORE.INTRA.VDW.0>
-7.0667

>  <SCORE.INTRA.norm>
-0.0511387

>  <SCORE.RESTR>
0

>  <SCORE.RESTR.CAVITY>
0

>  <SCORE.RESTR.norm>
0

>  <SCORE.SYSTEM>
0

>  <SCORE.SYSTEM.CONST>
0

>  <SCORE.SYSTEM.DIHEDRAL>
0

>  <SCORE.SYSTEM.SOLV>
0

>  <SCORE.SYSTEM.norm>
0

>  <SCORE.heavy>
42

>  <SCORE.norm>
-1.28873

>  <RMSD>
1.092

$$$$
1fyp_lig
 OpenBabel11021811393D
libRbt.so/2013.1/901 2013/11/27
 42 45  0  0  0  0  0  0  0  0999 V2000
    6.4221    5.3978   27.0177 C   0  0  2  0  0  0  0  0  0  0  0  0
    5.2772    6.1599   26.5374 O   0  0  0  0  0  0  0  0  0  0  0  0
    3.3254    7.7299   23.0781 C   0  0  2  0  0  0  0  0  0  0  0  0
    2.9071    8.1129   21.7169 N   0  0  0  0  0  0  0  0  0  0  0  0
    2.4620    3.6659   25.4147 C   0  0  1  0  0  0  0  0  0  0  0  0
   -0.1153    0.3418   26.9041 C   0  0  1  0  0  0  0  0  0  0  0  0
    6.4569    5.3398   28.5789 C   0  0  2  0  0  0  0  0  0  0  0  0
    5.1555    4.9036   29.1284 N   0  0  0  0  0  0  0  0  0  0  0  0
    4.7949    8.1410   23.2979 C   0  0  0  0  0  0  0  0  0  0  0  0
    2.6344    2.1515   25.2723 C   0  0  2  0  0  0  0  0  0  0  0  0
    1.9427    1.6999   24.1073 O   0  0  0  0  0  0  0  0  0  0  0  0
    0.0341   -0.8397   25.8976 C   0  0  2  0  0  0  0  0  0  0  0  0
   -0.2962   -0.4494   24.5052 N   0  0  0  0  0  0  0  0  0  0  0  0
    6.8613    6.7231   29.1780 C   0  0  1  0  0  0  0  0  0  0  0  0
    7.0434    6.6141   30.5875 O   0  0  0  0  0  0  0  0  0  0  0  0
    5.2959    7.7912   24.7258 C   0  0  2  0  0  0  0  0  0  0  0  0
    6.7273    8.1501   24.8026 N   0  0  0  0  0  0  0  0  0  0  0  0
    1.9652    1.6381   26.5502 C   0  0  2  0  0  0  0  0  0  0  0  0
    0.5206    1.5467   26.4037 O   0  0  0  0  0  0  0  0  0  0  0  0
   -0.8072   -2.0703   26.3566 C   0  0  1  0  0  0  0  0  0  0  0  0
   -0.1581   -2.6717   27.4749 O   0  0  0  0  0  0  0  0  0  0  0  0
    8.1725    7.2610   28.5520 C   0  0  2  0  0  0  0  0  0  0  0  0
    8.4356    8.5615   29.0698 O   0  0  0  0  0  0  0  0  0  0  0  0
    5.0612    6.2840   25.1023 C   0  0  2  0  0  0  0  0  0  0  0  0
    2.3368    2.7260   27.5674 C   0  0  2  0  0  0  0  0  0  0  0  0
    2.4146    3.9558   26.8210 O   0  0  0  0  0  0  0  0  0  0  0  0
   -2.2695   -1.7231   26.7701 C   0  0  2  0  0  0  0  0  0  0  0  0
   -3.0192   -1.4345   25.5888 O   0  0  0  0  0  0  0  0  0  0  0  0
    8.0538    7.3026   27.0021 C   0  0  2  0  0  0  0  0  0  0  0  0
    7.6719    5.9805   26.5160 O   0  0  0  0  0  0  0  0  0  0  0  0
    3.6139    5.7836   24.7490 C   0  0  2  0  0  0  0  0  0  0  0  0
    3.6087    4.3338   24.8157 O   0  0  0  0  0  0  0  0  0  0  0  0
    3.6736    2.4540   28.2799 C   0  0  0  0  0  0  0  0  0  0  0  0
    3.5226    1.4547   29.2730 O   0  0  0  0  0  0  0  0  0  0  0  0
   -2.2958   -0.4992   27.7375 C   0  0  1  0  0  0  0  0  0  0  0  0
   -1.5381    0.6040   27.1534 O   0  0  0  0  0  0  0  0  0  0  0  0
    9.3544    7.6870   26.2620 C   0  0  0  0  0  0  0  0  0  0  0  0
   10.4165    6.8105   26.5982 O   0  0  0  0  0  0  0  0  0  0  0  0
    3.1539    6.2109   23.3206 C   0  0  1  0  0  0  0  0  0  0  0  0
    1.7798    5.8632   23.1574 O   0  0  0  0  0  0  0  0  0  0  0  0
   -3.7349   -0.0147   28.0499 C   0  0  0  0  0  0  0  0  0  0  0  0
   -3.9472    0.2292   29.4881 N   0  0  0  0  0  0  0  0  0  0  0  0
  1  2  1  1  0  0  0
  1  7  1  0  0  0  0
  1 30  1  0  0  0  0
  3  4  1  6  0  0  0
  3  9  1  0  0  0  0
  3 39  1  0  0  0  0
  5 10  1  0  0  0  0
  5 26  1  0  0  0  0
  5 32  1  1  0  0  0
  6 12  1  0  0  0  0
  6 36  1  0  0  0  0
  6 19  1  6  0  0  0
  7  8  1  1  0  0  0
  7 14  1  0  0  0  0
  9 16  1  0  0  0  0
 10 11  1  6  0  0  0
 10 18  1  0  0  0  0
 12 13  1  6  0  0  0
 12 20  1  0  0  0  0
 14 15  1  1  0  0  0
 14 22  1  0  0  0  0
 16 17  1  6  0  0  0
 16 24  1  0  0  0  0
 18 19  1  6  0  0  0
 18 25  1  0  0  0  0
 20 21  1  1  0  0  0
 20 27  1  0  0  0  0
 22 23  1  1  0  0  0
 22 29  1  0  0  0  0
 24  2  1  1  0  0  0
 24 31  1  0  0  0  0
 25 26  1  0  0  0  0
 25 33  1  6  0  0  0
 27 28  1  6  0  0  0
 27 35  1  0  0  0  0
 29 30  1  0  0  0  0
 29 37  1  6  0  0  0
 31 32  1  6  0  0  0
 31 39  1  0  0  0  0
 33 34  1  0  0  0  0
 35 36  1  0  0  0  0
 35 41  1  6  0  0  0
 37 38  1  0  0  0  0
 39 40  1  1  0  0  0
 41 42  1  0  0  0  0
M  END
>  <CHROM.1>
-178.12109525,-112.51201608,-53.85165687,158.87881366,169.40921834,54.96554796
-61.05155264,-30.39154147,135.40353478,-79.76707159,58.78734969,-70.62821936
-76.49282524,176.59245793,56.83229702,139.03390991,175.60546201,-57.83542081
133.76461879,177.26529231,177.01426358,-142.51259107,3.16410147,3.80130141
26.43136230,-0.39571733,0.63750518,2.14966340

>  <Name>
1fyp_lig

>  <RI>
0

>  <Rbt.Current_Directory>
/home/itssahil/PROJECTS/Mol_Feturizer/New_Systems/rnas/1fyp

>  <Rbt.Executable>
rbdock ($Id: //depot/dev/client3/rdock/2013.1/src/exe/rbdock.cxx#4 $)

>  <Rbt.Library>
libRbt.so (2013.1, Build901 2013/11/27)

>  <Rbt.Parameter_File>
/export/apps/rDock/src/rDock_2013.1_src/data/scripts/dock_solv.prm

>  <Rbt.Receptor>
prm/pocket_docking_3.prm

>  <SCORE>
-55.9304

>  <SCORE.INTER>
-51.3841

>  <SCORE.INTER.CONST>
1

>  <SCORE.INTER.POLAR>
-5.92626

>  <SCORE.INTER.ROT>
14

>  <SCORE.INTER.SOLV>
20.1091

>  <SCORE.INTER.VDW>
-34.1383

>  <SCORE.INTER.norm>
-1.22343

>  <SCORE.INTRA>
-4.61798

>  <SCORE.INTRA.DIHEDRAL>
-17.4416

>  <SCORE.INTRA.DIHEDRAL.0>
48.7173

>  <SCORE.INTRA.POLAR>
0.894402

>  <SCORE.INTRA.POLAR.0>
-1.54691

>  <SCORE.INTRA.REPUL>
0

>  <SCORE.INTRA.REPUL.0>
0

>  <SCORE.INTRA.SOLV>
-2.02606

>  <SCORE.INTRA.SOLV.lig_0>
-64.052

>  <SCORE.INTRA.VDW>
2.07489

>  <SCORE.INTRA.VDW.0>
-7.0667

>  <SCORE.INTRA.norm>
-0.109952

>  <SCORE.RESTR>
0.071712

>  <SCORE.RESTR.CAVITY>
0.071712

>  <SCORE.RESTR.norm>
0.00170743

>  <SCORE.SYSTEM>
0

>  <SCORE.SYSTEM.CONST>
0

>  <SCORE.SYSTEM.DIHEDRAL>
0

>  <SCORE.SYSTEM.SOLV>
0

>  <SCORE.SYSTEM.norm>
0

>  <SCORE.heavy>
42

>  <SCORE.norm>
-1.33168

>  <RMSD>
1.131

$$$$
1fyp_lig
 OpenBabel11021811393D
libRbt.so/2013.1/901 2013/11/27
 42 45  0  0  0  0  0  0  0  0999 V2000
    7.0959    6.2421   27.7437 C   0  0  2  0  0  0  0  0  0  0  0  0
    6.1633    7.1162   27.0447 O   0  0  0  0  0  0  0  0  0  0  0  0
    3.8192    7.5489   23.5009 C   0  0  2  0  0  0  0  0  0  0  0  0
    3.2646    7.5157   22.1349 N   0  0  0  0  0  0  0  0  0  0  0  0
    3.4568    3.8503   25.7506 C   0  0  1  0  0  0  0  0  0  0  0  0
    0.8755    0.3217   25.4808 C   0  0  1  0  0  0  0  0  0  0  0  0
    6.9900    6.4143   29.2933 C   0  0  2  0  0  0  0  0  0  0  0  0
    5.5882    6.3066   29.7503 N   0  0  0  0  0  0  0  0  0  0  0  0
    5.2600    8.0956   23.4563 C   0  0  0  0  0  0  0  0  0  0  0  0
    4.0359    2.4359   25.6617 C   0  0  2  0  0  0  0  0  0  0  0  0
    4.3199    2.1214   24.2979 O   0  0  0  0  0  0  0  0  0  0  0  0
    0.2940   -0.3244   24.1864 C   0  0  2  0  0  0  0  0  0  0  0  0
   -0.0624    0.6815   23.1560 N   0  0  0  0  0  0  0  0  0  0  0  0
    7.6035    7.7767   29.7446 C   0  0  1  0  0  0  0  0  0  0  0  0
    7.6444    7.8503   31.1675 O   0  0  0  0  0  0  0  0  0  0  0  0
    5.8991    8.1841   24.8692 C   0  0  2  0  0  0  0  0  0  0  0  0
    7.2954    8.6390   24.7053 N   0  0  0  0  0  0  0  0  0  0  0  0
    2.8788    1.5889   26.1984 C   0  0  2  0  0  0  0  0  0  0  0  0
    1.8895    1.3121   25.1683 O   0  0  0  0  0  0  0  0  0  0  0  0
   -0.9185   -1.2466   24.5220 C   0  0  1  0  0  0  0  0  0  0  0  0
   -0.4274   -2.4342   25.1400 O   0  0  0  0  0  0  0  0  0  0  0  0
    9.0409    7.9701   29.1998 C   0  0  2  0  0  0  0  0  0  0  0  0
    9.5068    9.2652   29.5665 O   0  0  0  0  0  0  0  0  0  0  0  0
    5.8264    6.8271   25.6575 C   0  0  2  0  0  0  0  0  0  0  0  0
    2.2882    2.5010   27.2827 C   0  0  2  0  0  0  0  0  0  0  0  0
    2.5035    3.8502   26.8253 O   0  0  0  0  0  0  0  0  0  0  0  0
   -1.9665   -0.5978   25.4763 C   0  0  2  0  0  0  0  0  0  0  0  0
   -2.6982    0.3872   24.7449 O   0  0  0  0  0  0  0  0  0  0  0  0
    9.0605    7.7986   27.6543 C   0  0  2  0  0  0  0  0  0  0  0  0
    8.4717    6.5088   27.3088 O   0  0  0  0  0  0  0  0  0  0  0  0
    4.4050    6.1593   25.5958 C   0  0  2  0  0  0  0  0  0  0  0  0
    4.5312    4.7864   26.0494 O   0  0  0  0  0  0  0  0  0  0  0  0
    2.9411    2.2993   28.6617 C   0  0  0  0  0  0  0  0  0  0  0  0
    4.3405    2.1163   28.5360 O   0  0  0  0  0  0  0  0  0  0  0  0
   -1.2650    0.0559   26.7072 C   0  0  1  0  0  0  0  0  0  0  0  0
   -0.2054    0.9506   26.2499 O   0  0  0  0  0  0  0  0  0  0  0  0
   10.4674    7.8276   27.0163 C   0  0  0  0  0  0  0  0  0  0  0  0
   11.0723    9.1014   27.1611 O   0  0  0  0  0  0  0  0  0  0  0  0
    3.7999    6.1476   24.1577 C   0  0  1  0  0  0  0  0  0  0  0  0
    2.4527    5.6832   24.2301 O   0  0  0  0  0  0  0  0  0  0  0  0
   -2.2483    0.8527   27.6025 C   0  0  0  0  0  0  0  0  0  0  0  0
   -1.6212    1.3168   28.8532 N   0  0  0  0  0  0  0  0  0  0  0  0
  1  2  1  6  0  0  0
  1  7  1  0  0  0  0
  1 30  1  0  0  0  0
  3  4  1  6  0  0  0
  3  9  1  0  0  0  0
  3 39  1  0  0  0  0
  5 10  1  0  0  0  0
  5 26  1  0  0  0  0
  5 32  1  1  0  0  0
  6 12  1  0  0  0  0
  6 36  1  0  0  0  0
  6 19  1  6  0  0  0
  7  8  1  6  0  0  0
  7 14  1  0  0  0  0
  9 16  1  0  0  0  0
 10 11  1  6  0  0  0
 10 18  1  0  0  0  0
 12 13  1  6  0  0  0
 12 20  1  0  0  0  0
 14 15  1  1  0  0  0
 14 22  1  0  0  0  0
 16 17  1  6  0  0  0
 16 24  1  0  0  0  0
 18 19  1  6  0  0  0
 18 25  1  0  0  0  0
 20 21  1  1  0  0  0
 20 27  1  0  0  0  0
 22 23  1  6  0  0  0
 22 29  1  0  0  0  0
 24  2  1  1  0  0  0
 24 31  1  0  0  0  0
 25 26  1  0  0  0  0
 25 33  1  1  0  0  0
 27 28  1  6  0  0  0
 27 35  1  0  0  0  0
 29 30  1  0  0  0  0
 29 37  1  1  0  0  0
 31 32  1  6  0  0  0
 31 39  1  0  0  0  0
 33 34  1  0  0  0  0
 35 36  1  0  0  0  0
 35 41  1  6  0  0  0
 37 38  1  0  0  0  0
 39 40  1  1  0  0  0
 41 42  1  0  0  0  0
M  END
>  <CHROM.1>
-161.81504703,-134.54549444,32.40603796,-178.96910471,98.79013903,171.66576283
-57.25211253,167.54868231,169.03481090,-155.45144865,-46.31465042,-56.92294914
39.94454030,59.30716405,-65.71777366,-163.46555774,151.96173469,-170.62174198
172.40783935,52.09744558,76.15064826,177.70336440,3.90496531,4.33514125,26.38216917
-0.09659654,0.74046296,1.97555106

>  <Name>
1fyp_lig

>  <RI>
0

>  <Rbt.Current_Directory>
/home/itssahil/PROJECTS/Mol_Feturizer/New_Systems/rnas/1fyp

>  <Rbt.Executable>
rbdock ($Id: //depot/dev/client3/rdock/2013.1/src/exe/rbdock.cxx#4 $)

>  <Rbt.Library>
libRbt.so (2013.1, Build901 2013/11/27)

>  <Rbt.Parameter_File>
/export/apps/rDock/src/rDock_2013.1_src/data/scripts/dock_solv.prm

>  <Rbt.Receptor>
prm/pocket_docking_3.prm

>  <SCORE>
-66.0729

>  <SCORE.INTER>
-62.7298

>  <SCORE.INTER.CONST>
1

>  <SCORE.INTER.POLAR>
-8.03664

>  <SCORE.INTER.ROT>
14

>  <SCORE.INTER.SOLV>
16.778

>  <SCORE.INTER.VDW>
-33.5571

>  <SCORE.INTER.norm>
-1.49357

>  <SCORE.INTRA>
-3.34316

>  <SCORE.INTRA.DIHEDRAL>
-21.6619

>  <SCORE.INTRA.DIHEDRAL.0>
48.7173

>  <SCORE.INTRA.POLAR>
1.05213

>  <SCORE.INTRA.POLAR.0>
-1.54691

>  <SCORE.INTRA.REPUL>
0.00779293

>  <SCORE.INTRA.REPUL.0>
0

>  <SCORE.INTRA.SOLV>
-1.44685

>  <SCORE.INTRA.SOLV.lig_0>
-64.052

>  <SCORE.INTRA.VDW>
4.595

>  <SCORE.INTRA.VDW.0>
-7.0667

>  <SCORE.INTRA.norm>
-0.0795991

>  <SCORE.RESTR>
0

>  <SCORE.RESTR.CAVITY>
0

>  <SCORE.RESTR.norm>
0

>  <SCORE.SYSTEM>
0

>  <SCORE.SYSTEM.CONST>
0

>  <SCORE.SYSTEM.DIHEDRAL>
0

>  <SCORE.SYSTEM.SOLV>
0

>  <SCORE.SYSTEM.norm>
0

>  <SCORE.heavy>
42

>  <SCORE.norm>
-1.57317

>  <RMSD>
1.141

$$$$
1fyp_lig
 OpenBabel11021811393D
libRbt.so/2013.1/901 2013/11/27
 42 45  0  0  0  0  0  0  0  0999 V2000
    7.2692    6.3921   27.1531 C   0  0  2  0  0  0  0  0  0  0  0  0
    6.3373    7.3288   26.5396 O   0  0  0  0  0  0  0  0  0  0  0  0
    3.5997    7.7874   23.2936 C   0  0  2  0  0  0  0  0  0  0  0  0
    2.8956    7.7731   21.9981 N   0  0  0  0  0  0  0  0  0  0  0  0
    3.5826    4.0239   25.4528 C   0  0  1  0  0  0  0  0  0  0  0  0
    1.0141    0.4863   25.4458 C   0  0  1  0  0  0  0  0  0  0  0  0
    6.7302    5.8614   28.5206 C   0  0  2  0  0  0  0  0  0  0  0  0
    5.3472    5.3551   28.3918 N   0  0  0  0  0  0  0  0  0  0  0  0
    5.0138    8.3711   23.1024 C   0  0  0  0  0  0  0  0  0  0  0  0
    4.1741    2.6125   25.4121 C   0  0  2  0  0  0  0  0  0  0  0  0
    4.4176    2.2360   24.0562 O   0  0  0  0  0  0  0  0  0  0  0  0
    0.2557   -0.0923   24.2125 C   0  0  2  0  0  0  0  0  0  0  0  0
   -0.1768    0.9610   23.2618 N   0  0  0  0  0  0  0  0  0  0  0  0
    6.8007    6.9720   29.6150 C   0  0  1  0  0  0  0  0  0  0  0  0
    6.4574    6.4303   30.8879 O   0  0  0  0  0  0  0  0  0  0  0  0
    5.8059    8.4416   24.4366 C   0  0  2  0  0  0  0  0  0  0  0  0
    7.1644    8.9353   24.1295 N   0  0  0  0  0  0  0  0  0  0  0  0
    3.0442    1.7811   26.0257 C   0  0  2  0  0  0  0  0  0  0  0  0
    2.0254    1.4461   25.0426 O   0  0  0  0  0  0  0  0  0  0  0  0
   -0.9468   -0.9770   24.6645 C   0  0  1  0  0  0  0  0  0  0  0  0
   -0.4374   -2.2032   25.1845 O   0  0  0  0  0  0  0  0  0  0  0  0
    8.2148    7.5976   29.7109 C   0  0  2  0  0  0  0  0  0  0  0  0
    8.1891    8.6623   30.6566 O   0  0  0  0  0  0  0  0  0  0  0  0
    5.8527    7.0647   25.1917 C   0  0  2  0  0  0  0  0  0  0  0  0
    2.4787    2.7382   27.0842 C   0  0  2  0  0  0  0  0  0  0  0  0
    2.6644    4.0661   26.5568 O   0  0  0  0  0  0  0  0  0  0  0  0
   -1.8453   -0.3201   25.7560 C   0  0  2  0  0  0  0  0  0  0  0  0
   -2.6156    0.7170   25.1464 O   0  0  0  0  0  0  0  0  0  0  0  0
    8.6727    8.1141   28.3174 C   0  0  2  0  0  0  0  0  0  0  0  0
    8.5778    7.0262   27.3493 O   0  0  0  0  0  0  0  0  0  0  0  0
    4.4486    6.3631   25.2719 C   0  0  2  0  0  0  0  0  0  0  0  0
    4.6556    4.9833   25.6717 O   0  0  0  0  0  0  0  0  0  0  0  0
    3.1777    2.6087   28.4493 C   0  0  0  0  0  0  0  0  0  0  0  0
    2.5692    3.4534   29.4105 O   0  0  0  0  0  0  0  0  0  0  0  0
   -0.9751    0.2635   26.9121 C   0  0  1  0  0  0  0  0  0  0  0  0
    0.0602    1.1309   26.3569 O   0  0  0  0  0  0  0  0  0  0  0  0
   10.1284    8.6290   28.2627 C   0  0  0  0  0  0  0  0  0  0  0  0
   10.3793    9.3371   27.0606 O   0  0  0  0  0  0  0  0  0  0  0  0
    3.6857    6.3707   23.9109 C   0  0  1  0  0  0  0  0  0  0  0  0
    2.3660    5.8711   24.1215 O   0  0  0  0  0  0  0  0  0  0  0  0
   -1.8099    1.0676   27.9415 C   0  0  0  0  0  0  0  0  0  0  0  0
   -2.8785    0.2585   28.5551 N   0  0  0  0  0  0  0  0  0  0  0  0
  1  2  1  1  0  0  0
  1  7  1  0  0  0  0
  1 30  1  0  0  0  0
  3  4  1  6  0  0  0
  3  9  1  0  0  0  0
  3 39  1  0  0  0  0
  5 10  1  0  0  0  0
  5 26  1  0  0  0  0
  5 32  1  1  0  0  0
  6 12  1  0  0  0  0
  6 36  1  0  0  0  0
  6 19  1  6  0  0  0
  7  8  1  6  0  0  0
  7 14  1  0  0  0  0
  9 16  1  0  0  0  0
 10 11  1  6  0  0  0
 10 18  1  0  0  0  0
 12 13  1  6  0  0  0
 12 20  1  0  0  0  0
 14 15  1  1  0  0  0
 14 22  1  0  0  0  0
 16 17  1  6  0  0  0
 16 24  1  0  0  0  0
 18 19  1  6  0  0  0
 18 25  1  0  0  0  0
 20 21  1  1  0  0  0
 20 27  1  0  0  0  0
 22 23  1  1  0  0  0
 22 29  1  0  0  0  0
 24  2  1  1  0  0  0
 24 31  1  0  0  0  0
 25 26  1  0  0  0  0
 25 33  1  1  0  0  0
 27 28  1  6  0  0  0
 27 35  1  0  0  0  0
 29 30  1  0  0  0  0
 29 37  1  1  0  0  0
 31 32  1  6  0  0  0
 31 39  1  0  0  0  0
 33 34  1  0  0  0  0
 35 36  1  0  0  0  0
 35 41  1  1  0  0  0
 37 38  1  0  0  0  0
 39 40  1  1  0  0  0
 41 42  1  0  0  0  0
M  END
>  <CHROM.1>
-124.06112291,-140.18283399,30.73796686,39.50231557,118.19446582,65.86608392
-59.18799813,-17.30878534,170.48082938,-163.35495162,-43.28025744,48.31702533
-176.53614367,65.59048778,-167.45973191,-162.59338122,157.75767220,68.59130193
58.25936862,57.38069967,-45.19954293,-167.64778999,3.71107999,4.42578191
26.31264226,-0.11787177,0.74566461,1.95687881

>  <Name>
1fyp_lig

>  <RI>
0

>  <Rbt.Current_Directory>
/home/itssahil/PROJECTS/Mol_Feturizer/New_Systems/rnas/1fyp

>  <Rbt.Executable>
rbdock ($Id: //depot/dev/client3/rdock/2013.1/src/exe/rbdock.cxx#4 $)

>  <Rbt.Library>
libRbt.so (2013.1, Build901 2013/11/27)

>  <Rbt.Parameter_File>
/export/apps/rDock/src/rDock_2013.1_src/data/scripts/dock_solv.prm

>  <Rbt.Receptor>
prm/pocket_docking_3.prm

>  <SCORE>
-62.3889

>  <SCORE.INTER>
-60.4749

>  <SCORE.INTER.CONST>
1

>  <SCORE.INTER.POLAR>
-7.86119

>  <SCORE.INTER.ROT>
14

>  <SCORE.INTER.SOLV>
16.3772

>  <SCORE.INTER.VDW>
-32.505

>  <SCORE.INTER.norm>
-1.43988

>  <SCORE.INTRA>
-2.0097

>  <SCORE.INTRA.DIHEDRAL>
-15.3526

>  <SCORE.INTRA.DIHEDRAL.0>
48.7173

>  <SCORE.INTRA.POLAR>
0.581134

>  <SCORE.INTRA.POLAR.0>
-1.54691

>  <SCORE.INTRA.REPUL>
0

>  <SCORE.INTRA.REPUL.0>
0

>  <SCORE.INTRA.SOLV>
-2.23444

>  <SCORE.INTRA.SOLV.lig_0>
-64.052

>  <SCORE.INTRA.VDW>
4.80795

>  <SCORE.INTRA.VDW.0>
-7.0667

>  <SCORE.INTRA.norm>
-0.0478501

>  <SCORE.RESTR>
0.0957122

>  <SCORE.RESTR.CAVITY>
0.0957122

>  <SCORE.RESTR.norm>
0.00227886

>  <SCORE.SYSTEM>
0

>  <SCORE.SYSTEM.CONST>
0

>  <SCORE.SYSTEM.DIHEDRAL>
0

>  <SCORE.SYSTEM.SOLV>
0

>  <SCORE.SYSTEM.norm>
0

>  <SCORE.heavy>
42

>  <SCORE.norm>
-1.48545

>  <RMSD>
1.158

$$$$
1fyp_lig
 OpenBabel11021811393D
libRbt.so/2013.1/901 2013/11/27
 42 45  0  0  0  0  0  0  0  0999 V2000
    7.0306    6.4632   26.8553 C   0  0  2  0  0  0  0  0  0  0  0  0
    6.2980    7.5463   26.2130 O   0  0  0  0  0  0  0  0  0  0  0  0
    3.3835    8.0769   23.1365 C   0  0  2  0  0  0  0  0  0  0  0  0
    2.6154    8.1074   21.8782 N   0  0  0  0  0  0  0  0  0  0  0  0
    3.5744    4.2240   25.2171 C   0  0  1  0  0  0  0  0  0  0  0  0
    0.9395    0.7629   25.7897 C   0  0  1  0  0  0  0  0  0  0  0  0
    6.7221    6.3921   28.3856 C   0  0  2  0  0  0  0  0  0  0  0  0
    5.2657    6.3826   28.6392 N   0  0  0  0  0  0  0  0  0  0  0  0
    4.7633    8.7267   22.9110 C   0  0  0  0  0  0  0  0  0  0  0  0
    4.1243    2.8247   25.5057 C   0  0  2  0  0  0  0  0  0  0  0  0
    4.4271    2.1677   24.2743 O   0  0  0  0  0  0  0  0  0  0  0  0
   -0.0118    0.2607   24.6610 C   0  0  2  0  0  0  0  0  0  0  0  0
   -0.4774    1.3565   23.7764 N   0  0  0  0  0  0  0  0  0  0  0  0
    7.3961    7.5779   29.1445 C   0  0  1  0  0  0  0  0  0  0  0  0
    7.2404    7.4130   30.5517 O   0  0  0  0  0  0  0  0  0  0  0  0
    5.6192    8.7537   24.2069 C   0  0  2  0  0  0  0  0  0  0  0  0
    6.9409    9.3180   23.8633 N   0  0  0  0  0  0  0  0  0  0  0  0
    2.9391    2.1616   26.2128 C   0  0  2  0  0  0  0  0  0  0  0  0
    1.9636    1.6469   25.2641 O   0  0  0  0  0  0  0  0  0  0  0  0
   -1.2129   -0.5344   25.2595 C   0  0  1  0  0  0  0  0  0  0  0  0
   -0.7392   -1.8030   25.7066 O   0  0  0  0  0  0  0  0  0  0  0  0
    8.9085    7.6813   28.8248 C   0  0  2  0  0  0  0  0  0  0  0  0
    9.4426    8.8329   29.4709 O   0  0  0  0  0  0  0  0  0  0  0  0
    5.7557    7.3394   24.8772 C   0  0  2  0  0  0  0  0  0  0  0  0
    2.3481    3.3298   27.0143 C   0  0  2  0  0  0  0  0  0  0  0  0
    2.6012    4.5138   26.2334 O   0  0  0  0  0  0  0  0  0  0  0  0
   -1.9118    0.1755   26.4585 C   0  0  2  0  0  0  0  0  0  0  0  0
   -2.6696    1.2768   25.9552 O   0  0  0  0  0  0  0  0  0  0  0  0
    9.1316    7.7629   27.2880 C   0  0  2  0  0  0  0  0  0  0  0  0
    8.4739    6.6280   26.6484 O   0  0  0  0  0  0  0  0  0  0  0  0
    4.3846    6.5786   24.9847 C   0  0  2  0  0  0  0  0  0  0  0  0
    4.6630    5.1879   25.2928 O   0  0  0  0  0  0  0  0  0  0  0  0
    2.9703    3.4764   28.4144 C   0  0  0  0  0  0  0  0  0  0  0  0
    3.6536    2.2933   28.7898 O   0  0  0  0  0  0  0  0  0  0  0  0
   -0.8594    0.6750   27.4964 C   0  0  1  0  0  0  0  0  0  0  0  0
    0.1620    1.4671   26.8168 O   0  0  0  0  0  0  0  0  0  0  0  0
   10.6110    7.7243   26.8444 C   0  0  0  0  0  0  0  0  0  0  0  0
   11.3137    8.8703   27.2943 O   0  0  0  0  0  0  0  0  0  0  0  0
    3.5536    6.6323   23.6652 C   0  0  1  0  0  0  0  0  0  0  0  0
    2.2658    6.0690   23.9103 O   0  0  0  0  0  0  0  0  0  0  0  0
   -1.4917    1.5277   28.6262 C   0  0  0  0  0  0  0  0  0  0  0  0
   -0.5150    1.8971   29.6667 N   0  0  0  0  0  0  0  0  0  0  0  0
  1  2  1  1  0  0  0
  1  7  1  0  0  0  0
  1 30  1  0  0  0  0
  3  4  1  6  0  0  0
  3  9  1  0  0  0  0
  3 39  1  0  0  0  0
  5 10  1  0  0  0  0
  5 26  1  0  0  0  0
  5 32  1  1  0  0  0
  6 12  1  0  0  0  0
  6 36  1  0  0  0  0
  6 19  1  6  0  0  0
  7  8  1  6  0  0  0
  7 14  1  0  0  0  0
  9 16  1  0  0  0  0
 10 11  1  6  0  0  0
 10 18  1  0  0  0  0
 12 13  1  1  0  0  0
 12 20  1  0  0  0  0
 14 15  1  1  0  0  0
 14 22  1  0  0  0  0
 16 17  1  6  0  0  0
 16 24  1  0  0  0  0
 18 19  1  6  0  0  0
 18 25  1  0  0  0  0
 20 21  1  1  0  0  0
 20 27  1  0  0  0  0
 22 23  1  1  0  0  0
 22 29  1  0  0  0  0
 24  2  1  1  0  0  0
 24 31  1  0  0  0  0
 25 26  1  0  0  0  0
 25 33  1  1  0  0  0
 27 28  1  6  0  0  0
 27 35  1  0  0  0  0
 29 30  1  0  0  0  0
 29 37  1  1  0  0  0
 31 32  1  6  0  0  0
 31 39  1  0  0  0  0
 33 34  1  0  0  0  0
 35 36  1  0  0  0  0
 35 41  1  1  0  0  0
 37 38  1  0  0  0  0
 39 40  1  1  0  0  0
 41 42  1  0  0  0  0
M  END
>  <CHROM.1>
-141.91967530,-155.11598291,65.11400506,-84.04868732,-82.74553155,-162.90629844
-59.69664919,-58.94886736,167.76012202,-178.56296857,-174.73750902,64.40741177
-16.91444013,-72.93773602,-65.34976237,-169.51318492,176.86130429,64.17993731
174.95079019,-172.66124190,-68.15403450,-50.88064499,3.85091377,4.70728385
26.25854232,-0.27758015,0.65743816,2.11282810

>  <Name>
1fyp_lig

>  <RI>
0

>  <Rbt.Current_Directory>
/home/itssahil/PROJECTS/Mol_Feturizer/New_Systems/rnas/1fyp

>  <Rbt.Executable>
rbdock ($Id: //depot/dev/client3/rdock/2013.1/src/exe/rbdock.cxx#4 $)

>  <Rbt.Library>
libRbt.so (2013.1, Build901 2013/11/27)

>  <Rbt.Parameter_File>
/export/apps/rDock/src/rDock_2013.1_src/data/scripts/dock_solv.prm

>  <Rbt.Receptor>
prm/pocket_docking_3.prm

>  <SCORE>
-49.7686

>  <SCORE.INTER>
-43.3313

>  <SCORE.INTER.CONST>
1

>  <SCORE.INTER.POLAR>
-4.92078

>  <SCORE.INTER.ROT>
14

>  <SCORE.INTER.SOLV>
16.946

>  <SCORE.INTER.VDW>
-31.0669

>  <SCORE.INTER.norm>
-1.0317

>  <SCORE.INTRA>
-6.49885

>  <SCORE.INTRA.DIHEDRAL>
-29.2414

>  <SCORE.INTRA.DIHEDRAL.0>
48.7173

>  <SCORE.INTRA.POLAR>
1.14314

>  <SCORE.INTRA.POLAR.0>
-1.54691

>  <SCORE.INTRA.REPUL>
0.0232342

>  <SCORE.INTRA.REPUL.0>
0

>  <SCORE.INTRA.SOLV>
-1.99046

>  <SCORE.INTRA.SOLV.lig_0>
-64.052

>  <SCORE.INTRA.VDW>
5.11422

>  <SCORE.INTRA.VDW.0>
-7.0667

>  <SCORE.INTRA.norm>
-0.154735

>  <SCORE.RESTR>
0.0615449

>  <SCORE.RESTR.CAVITY>
0.0615449

>  <SCORE.RESTR.norm>
0.00146535

>  <SCORE.SYSTEM>
0

>  <SCORE.SYSTEM.CONST>
0

>  <SCORE.SYSTEM.DIHEDRAL>
0

>  <SCORE.SYSTEM.SOLV>
0

>  <SCORE.SYSTEM.norm>
0

>  <SCORE.heavy>
42

>  <SCORE.norm>
-1.18497

>  <RMSD>
1.206

$$$$
1fyp_lig
 OpenBabel11021811393D
libRbt.so/2013.1/901 2013/11/27
 42 45  0  0  0  0  0  0  0  0999 V2000
    6.9335    6.1855   27.2839 C   0  0  2  0  0  0  0  0  0  0  0  0
    5.9413    7.0841   26.7091 O   0  0  0  0  0  0  0  0  0  0  0  0
    3.5962    7.8933   23.2326 C   0  0  2  0  0  0  0  0  0  0  0  0
    3.0514    8.0259   21.8687 N   0  0  0  0  0  0  0  0  0  0  0  0
    3.3272    3.9261   25.1542 C   0  0  1  0  0  0  0  0  0  0  0  0
    0.7113    0.3390   25.2148 C   0  0  1  0  0  0  0  0  0  0  0  0
    6.7228    6.0089   28.8223 C   0  0  2  0  0  0  0  0  0  0  0  0
    5.3215    5.6560   29.1346 N   0  0  0  0  0  0  0  0  0  0  0  0
    5.0059    8.5153   23.2844 C   0  0  0  0  0  0  0  0  0  0  0  0
    3.8082    2.4882   25.3656 C   0  0  2  0  0  0  0  0  0  0  0  0
    4.1673    1.9154   24.1076 O   0  0  0  0  0  0  0  0  0  0  0  0
    0.1122   -0.2947   23.9223 C   0  0  2  0  0  0  0  0  0  0  0  0
   -0.3750    0.7232   22.9596 N   0  0  0  0  0  0  0  0  0  0  0  0
    7.1405    7.3005   29.5927 C   0  0  1  0  0  0  0  0  0  0  0  0
    7.0941    7.0710   30.9987 O   0  0  0  0  0  0  0  0  0  0  0  0
    5.6319    8.4352   24.7036 C   0  0  2  0  0  0  0  0  0  0  0  0
    7.0027    8.9810   24.6239 N   0  0  0  0  0  0  0  0  0  0  0  0
    2.5572    1.8207   25.9435 C   0  0  2  0  0  0  0  0  0  0  0  0
    1.6282    1.4189   24.8986 O   0  0  0  0  0  0  0  0  0  0  0  0
   -1.0062   -1.3233   24.2747 C   0  0  1  0  0  0  0  0  0  0  0  0
   -0.3931   -2.4939   24.8107 O   0  0  0  0  0  0  0  0  0  0  0  0
    8.5713    7.7593   29.2153 C   0  0  2  0  0  0  0  0  0  0  0  0
    8.8556    8.9878   29.8776 O   0  0  0  0  0  0  0  0  0  0  0  0
    5.6277    6.9779   25.2907 C   0  0  2  0  0  0  0  0  0  0  0  0
    1.9563    2.9470   26.7961 C   0  0  2  0  0  0  0  0  0  0  0  0
    2.3007    4.1761   26.1277 O   0  0  0  0  0  0  0  0  0  0  0  0
   -2.0480   -0.8008   25.3099 C   0  0  2  0  0  0  0  0  0  0  0  0
   -2.8913    0.1538   24.6633 O   0  0  0  0  0  0  0  0  0  0  0  0
    8.6963    7.9264   27.6743 C   0  0  2  0  0  0  0  0  0  0  0  0
    8.2884    6.6852   27.0240 O   0  0  0  0  0  0  0  0  0  0  0  0
    4.2443    6.2525   25.1168 C   0  0  2  0  0  0  0  0  0  0  0  0
    4.4413    4.8375   25.3728 O   0  0  0  0  0  0  0  0  0  0  0  0
    2.4910    2.9618   28.2392 C   0  0  0  0  0  0  0  0  0  0  0  0
    1.9163    4.0242   28.9799 O   0  0  0  0  0  0  0  0  0  0  0  0
   -1.3335   -0.1473   26.5334 C   0  0  1  0  0  0  0  0  0  0  0  0
   -0.3716    0.8470   26.0659 O   0  0  0  0  0  0  0  0  0  0  0  0
   10.1220    8.2423   27.1696 C   0  0  0  0  0  0  0  0  0  0  0  0
   10.5916    9.4740   27.6907 O   0  0  0  0  0  0  0  0  0  0  0  0
    3.6483    6.4138   23.6839 C   0  0  1  0  0  0  0  0  0  0  0  0
    2.3276    5.8742   23.6725 O   0  0  0  0  0  0  0  0  0  0  0  0
   -2.3253    0.5302   27.5134 C   0  0  0  0  0  0  0  0  0  0  0  0
   -1.6394    1.2297   28.6148 N   0  0  0  0  0  0  0  0  0  0  0  0
  1  2  1  1  0  0  0
  1  7  1  0  0  0  0
  1 30  1  0  0  0  0
  3  4  1  6  0  0  0
  3  9  1  0  0  0  0
  3 39  1  0  0  0  0
  5 10  1  0  0  0  0
  5 26  1  0  0  0  0
  5 32  1  1  0  0  0
  6 12  1  0  0  0  0
  6 36  1  0  0  0  0
  6 19  1  6  0  0  0
  7  8  1  6  0  0  0
  7 14  1  0  0  0  0
  9 16  1  0  0  0  0
 10 11  1  6  0  0  0
 10 18  1  0  0  0  0
 12 13  1  6  0  0  0
 12 20  1  0  0  0  0
 14 15  1  1  0  0  0
 14 22  1  0  0  0  0
 16 17  1  6  0  0  0
 16 24  1  0  0  0  0
 18 19  1  6  0  0  0
 18 25  1  0  0  0  0
 20 21  1  1  0  0  0
 20 27  1  0  0  0  0
 22 23  1  1  0  0  0
 22 29  1  0  0  0  0
 24  2  1  1  0  0  0
 24 31  1  0  0  0  0
 25 26  1  0  0  0  0
 25 33  1  1  0  0  0
 27 28  1  6  0  0  0
 27 35  1  0  0  0  0
 29 30  1  0  0  0  0
 29 37  1  1  0  0  0
 31 32  1  6  0  0  0
 31 39  1  0  0  0  0
 33 34  1  0  0  0  0
 35 36  1  0  0  0  0
 35 41  1  1  0  0  0
 37 38  1  0  0  0  0
 39 40  1  1  0  0  0
 41 42  1  0  0  0  0
M  END
>  <CHROM.1>
-156.07663279,-133.43277425,68.56697513,-43.42648600,84.86868668,-160.92407890
-72.54278823,-44.68210731,155.69909407,-161.63081575,-47.04101249,-175.11484508
179.47990665,-66.19543331,-62.01363542,-174.41487337,174.90658534,-168.77393312
-175.83204849,-53.89965260,65.61288156,-71.00456653,3.60474521,4.41612380
26.14746325,-0.10230671,0.75748481,1.97631942

>  <Name>
1fyp_lig

>  <RI>
0

>  <Rbt.Current_Directory>
/home/itssahil/PROJECTS/Mol_Feturizer/New_Systems/rnas/1fyp

>  <Rbt.Executable>
rbdock ($Id: //depot/dev/client3/rdock/2013.1/src/exe/rbdock.cxx#4 $)

>  <Rbt.Library>
libRbt.so (2013.1, Build901 2013/11/27)

>  <Rbt.Parameter_File>
/export/apps/rDock/src/rDock_2013.1_src/data/scripts/dock_solv.prm

>  <Rbt.Receptor>
prm/pocket_docking_3.prm

>  <SCORE>
-61.9774

>  <SCORE.INTER>
-54.4136

>  <SCORE.INTER.CONST>
1

>  <SCORE.INTER.POLAR>
-7.13408

>  <SCORE.INTER.ROT>
14

>  <SCORE.INTER.SOLV>
17.0251

>  <SCORE.INTER.VDW>
-31.1039

>  <SCORE.INTER.norm>
-1.29556

>  <SCORE.INTRA>
-7.60124

>  <SCORE.INTRA.DIHEDRAL>
-28.3966

>  <SCORE.INTRA.DIHEDRAL.0>
48.7173

>  <SCORE.INTRA.POLAR>
1.25046

>  <SCORE.INTRA.POLAR.0>
-1.54691

>  <SCORE.INTRA.REPUL>
0

>  <SCORE.INTRA.REPUL.0>
0

>  <SCORE.INTRA.SOLV>
-2.33405

>  <SCORE.INTRA.SOLV.lig_0>
-64.052

>  <SCORE.INTRA.VDW>
3.51252

>  <SCORE.INTRA.VDW.0>
-7.0667

>  <SCORE.INTRA.norm>
-0.180982

>  <SCORE.RESTR>
0.0374075

>  <SCORE.RESTR.CAVITY>
0.0374075

>  <SCORE.RESTR.norm>
0.000890656

>  <SCORE.SYSTEM>
0

>  <SCORE.SYSTEM.CONST>
0

>  <SCORE.SYSTEM.DIHEDRAL>
0

>  <SCORE.SYSTEM.SOLV>
0

>  <SCORE.SYSTEM.norm>
0

>  <SCORE.heavy>
42

>  <SCORE.norm>
-1.47565

>  <RMSD>
1.222

$$$$
1fyp_lig
 OpenBabel11021811393D
libRbt.so/2013.1/901 2013/11/27
 42 45  0  0  0  0  0  0  0  0999 V2000
    6.3838    5.7257   27.5078 C   0  0  2  0  0  0  0  0  0  0  0  0
    5.5664    6.7446   26.8628 O   0  0  0  0  0  0  0  0  0  0  0  0
    3.7157    7.8840   23.1862 C   0  0  2  0  0  0  0  0  0  0  0  0
    3.3430    8.1097   21.7774 N   0  0  0  0  0  0  0  0  0  0  0  0
    2.7631    3.9613   25.2630 C   0  0  1  0  0  0  0  0  0  0  0  0
    0.2565    0.3731   24.9297 C   0  0  1  0  0  0  0  0  0  0  0  0
    6.2331    5.7706   29.0625 C   0  0  2  0  0  0  0  0  0  0  0  0
    4.8103    5.7604   29.4639 N   0  0  0  0  0  0  0  0  0  0  0  0
    5.1636    8.3609   23.4165 C   0  0  0  0  0  0  0  0  0  0  0  0
    3.0641    2.4614   25.2041 C   0  0  2  0  0  0  0  0  0  0  0  0
    3.0273    2.0204   23.8462 O   0  0  0  0  0  0  0  0  0  0  0  0
   -0.9543    0.3587   23.9474 C   0  0  2  0  0  0  0  0  0  0  0  0
   -2.0049    1.3371   24.3210 N   0  0  0  0  0  0  0  0  0  0  0  0
    6.9540    7.0217   29.6552 C   0  0  1  0  0  0  0  0  0  0  0  0
    6.9450    6.9656   31.0795 O   0  0  0  0  0  0  0  0  0  0  0  0
    5.6152    8.1776   24.8912 C   0  0  2  0  0  0  0  0  0  0  0  0
    7.0322    8.5866   24.9835 N   0  0  0  0  0  0  0  0  0  0  0  0
    1.9015    1.8763   26.0105 C   0  0  2  0  0  0  0  0  0  0  0  0
    0.7029    1.7275   25.1994 O   0  0  0  0  0  0  0  0  0  0  0  0
   -1.5417   -1.0798   23.8105 C   0  0  1  0  0  0  0  0  0  0  0  0
   -0.6400   -1.8658   23.0342 O   0  0  0  0  0  0  0  0  0  0  0  0
    8.4237    7.1210   29.1754 C   0  0  2  0  0  0  0  0  0  0  0  0
    8.9949    8.3272   29.6731 O   0  0  0  0  0  0  0  0  0  0  0  0
    5.4058    6.7116   25.4155 C   0  0  2  0  0  0  0  0  0  0  0  0
    1.6914    2.9439   27.0933 C   0  0  2  0  0  0  0  0  0  0  0  0
    2.0443    4.2007   26.4836 O   0  0  0  0  0  0  0  0  0  0  0  0
   -1.7738   -1.8046   25.1709 C   0  0  2  0  0  0  0  0  0  0  0  0
   -2.9077   -1.2171   25.8110 O   0  0  0  0  0  0  0  0  0  0  0  0
    8.4886    7.0848   27.6221 C   0  0  2  0  0  0  0  0  0  0  0  0
    7.7948    5.8940   27.1421 O   0  0  0  0  0  0  0  0  0  0  0  0
    3.9879    6.1326   25.0627 C   0  0  2  0  0  0  0  0  0  0  0  0
    4.0187    4.6982   25.2819 O   0  0  0  0  0  0  0  0  0  0  0  0
    2.5487    2.7059   28.3492 C   0  0  0  0  0  0  0  0  0  0  0  0
    3.0235    1.3716   28.3912 O   0  0  0  0  0  0  0  0  0  0  0  0
   -0.5155   -1.6824   26.0854 C   0  0  1  0  0  0  0  0  0  0  0  0
   -0.1190   -0.2808   26.1893 O   0  0  0  0  0  0  0  0  0  0  0  0
    9.9161    7.0324   27.0335 C   0  0  0  0  0  0  0  0  0  0  0  0
    9.8877    6.9858   25.6170 O   0  0  0  0  0  0  0  0  0  0  0  0
    3.5751    6.3941   23.5809 C   0  0  1  0  0  0  0  0  0  0  0  0
    2.2185    5.9890   23.4038 O   0  0  0  0  0  0  0  0  0  0  0  0
   -0.7538   -2.2474   27.5091 C   0  0  0  0  0  0  0  0  0  0  0  0
   -1.9435   -1.6638   28.1548 N   0  0  0  0  0  0  0  0  0  0  0  0
  1  2  1  6  0  0  0
  1  7  1  0  0  0  0
  1 30  1  0  0  0  0
  3  4  1  6  0  0  0
  3  9  1  0  0  0  0
  3 39  1  0  0  0  0
  5 10  1  0  0  0  0
  5 26  1  0  0  0  0
  5 32  1  1  0  0  0
  6 12  1  0  0  0  0
  6 36  1  0  0  0  0
  6 19  1  1  0  0  0
  7  8  1  6  0  0  0
  7 14  1  0  0  0  0
  9 16  1  0  0  0  0
 10 11  1  6  0  0  0
 10 18  1  0  0  0  0
 12 13  1  1  0  0  0
 12 20  1  0  0  0  0
 14 15  1  1  0  0  0
 14 22  1  0  0  0  0
 16 17  1  6  0  0  0
 16 24  1  0  0  0  0
 18 19  1  6  0  0  0
 18 25  1  0  0  0  0
 20 21  1  6  0  0  0
 20 27  1  0  0  0  0
 22 23  1  6  0  0  0
 22 29  1  0  0  0  0
 24  2  1  1  0  0  0
 24 31  1  0  0  0  0
 25 26  1  0  0  0  0
 25 33  1  1  0  0  0
 27 28  1  1  0  0  0
 27 35  1  0  0  0  0
 29 30  1  0  0  0  0
 29 37  1  1  0  0  0
 31 32  1  6  0  0  0
 31 39  1  0  0  0  0
 33 34  1  0  0  0  0
 35 36  1  0  0  0  0
 35 41  1  1  0  0  0
 37 38  1  0  0  0  0
 39 40  1  1  0  0  0
 41 42  1  0  0  0  0
M  END
>  <CHROM.1>
-169.88948100,-134.18572863,73.28043972,74.21585664,-63.81686876,65.85841750
-170.90926121,69.29590789,113.06400500,-174.78754932,-175.22793667,177.02002103
-17.55873039,-43.56614108,179.30850502,168.85849787,167.59651649,-172.88717876
-53.21786228,60.87771913,73.35827506,-109.63877290,3.38507350,3.92190742
26.10061972,-0.24559556,0.74500105,2.13769615

>  <Name>
1fyp_lig

>  <RI>
0

>  <Rbt.Current_Directory>
/home/itssahil/PROJECTS/Mol_Feturizer/New_Systems/rnas/1fyp

>  <Rbt.Executable>
rbdock ($Id: //depot/dev/client3/rdock/2013.1/src/exe/rbdock.cxx#4 $)

>  <Rbt.Library>
libRbt.so (2013.1, Build901 2013/11/27)

>  <Rbt.Parameter_File>
/export/apps/rDock/src/rDock_2013.1_src/data/scripts/dock_solv.prm

>  <Rbt.Receptor>
prm/pocket_docking_2.prm

>  <SCORE>
-52.0565

>  <SCORE.INTER>
-46.3523

>  <SCORE.INTER.CONST>
1

>  <SCORE.INTER.POLAR>
-4.81649

>  <SCORE.INTER.ROT>
14

>  <SCORE.INTER.SOLV>
20.7841

>  <SCORE.INTER.VDW>
-34.708

>  <SCORE.INTER.norm>
-1.10363

>  <SCORE.INTRA>
-6.90708

>  <SCORE.INTRA.DIHEDRAL>
-23.1388

>  <SCORE.INTRA.DIHEDRAL.0>
48.7173

>  <SCORE.INTRA.POLAR>
0.775894

>  <SCORE.INTRA.POLAR.0>
-1.54691

>  <SCORE.INTRA.REPUL>
0.0215079

>  <SCORE.INTRA.REPUL.0>
0

>  <SCORE.INTRA.SOLV>
-1.53227

>  <SCORE.INTRA.SOLV.lig_0>
-64.052

>  <SCORE.INTRA.VDW>
2.68286

>  <SCORE.INTRA.VDW.0>
-7.0667

>  <SCORE.INTRA.norm>
-0.164454

>  <SCORE.RESTR>
1.20294

>  <SCORE.RESTR.CAVITY>
1.20294

>  <SCORE.RESTR.norm>
0.0286414

>  <SCORE.SYSTEM>
0

>  <SCORE.SYSTEM.CONST>
0

>  <SCORE.SYSTEM.DIHEDRAL>
0

>  <SCORE.SYSTEM.SOLV>
0

>  <SCORE.SYSTEM.norm>
0

>  <SCORE.heavy>
42

>  <SCORE.norm>
-1.23944

>  <RMSD>
1.223

$$$$
1fyp_lig
 OpenBabel11021811393D
libRbt.so/2013.1/901 2013/11/27
 42 45  0  0  0  0  0  0  0  0999 V2000
    6.5136    5.8397   27.3675 C   0  0  2  0  0  0  0  0  0  0  0  0
    5.6134    6.8014   26.7454 O   0  0  0  0  0  0  0  0  0  0  0  0
    3.6772    7.9148   23.1050 C   0  0  2  0  0  0  0  0  0  0  0  0
    3.2720    8.1309   21.7038 N   0  0  0  0  0  0  0  0  0  0  0  0
    2.7831    4.0459   25.4857 C   0  0  1  0  0  0  0  0  0  0  0  0
   -0.1647    0.8250   26.3496 C   0  0  1  0  0  0  0  0  0  0  0  0
    6.4797    5.9491   28.9260 C   0  0  2  0  0  0  0  0  0  0  0  0
    5.0927    5.9102   29.4363 N   0  0  0  0  0  0  0  0  0  0  0  0
    5.1295    8.3947   23.2988 C   0  0  0  0  0  0  0  0  0  0  0  0
    2.9777    2.5503   25.2230 C   0  0  2  0  0  0  0  0  0  0  0  0
    2.5458    2.2384   23.8980 O   0  0  0  0  0  0  0  0  0  0  0  0
    0.1201   -0.5343   25.6409 C   0  0  2  0  0  0  0  0  0  0  0  0
    0.1654   -0.4101   24.1635 N   0  0  0  0  0  0  0  0  0  0  0  0
    7.1978    7.2483   29.4081 C   0  0  1  0  0  0  0  0  0  0  0  0
    7.2989    7.2556   30.8298 O   0  0  0  0  0  0  0  0  0  0  0  0
    5.6152    8.2215   24.7639 C   0  0  2  0  0  0  0  0  0  0  0  0
    7.0334    8.6325   24.8208 N   0  0  0  0  0  0  0  0  0  0  0  0
    2.0530    1.9249   26.2709 C   0  0  2  0  0  0  0  0  0  0  0  0
    0.6715    1.8850   25.8166 O   0  0  0  0  0  0  0  0  0  0  0  0
   -0.9071   -1.6198   26.0877 C   0  0  1  0  0  0  0  0  0  0  0  0
   -0.5965   -2.0162   27.4218 O   0  0  0  0  0  0  0  0  0  0  0  0
    8.6224    7.3742   28.8123 C   0  0  2  0  0  0  0  0  0  0  0  0
    9.1858    8.6195   29.2132 O   0  0  0  0  0  0  0  0  0  0  0  0
    5.4195    6.7587   25.3025 C   0  0  2  0  0  0  0  0  0  0  0  0
    2.2048    2.8927   27.4527 C   0  0  2  0  0  0  0  0  0  0  0  0
    2.4413    4.1906   26.8736 O   0  0  0  0  0  0  0  0  0  0  0  0
   -2.3912   -1.1441   26.0533 C   0  0  2  0  0  0  0  0  0  0  0  0
   -2.8105   -1.0626   24.6901 O   0  0  0  0  0  0  0  0  0  0  0  0
    8.5705    7.2708   27.2615 C   0  0  2  0  0  0  0  0  0  0  0  0
    7.8858    6.0376   26.8871 O   0  0  0  0  0  0  0  0  0  0  0  0
    3.9945    6.1760   24.9863 C   0  0  2  0  0  0  0  0  0  0  0  0
    4.0320    4.7431   25.2140 O   0  0  0  0  0  0  0  0  0  0  0  0
    3.3608    2.5158   28.3962 C   0  0  0  0  0  0  0  0  0  0  0  0
    3.5890    3.5391   29.3493 O   0  0  0  0  0  0  0  0  0  0  0  0
   -2.5440    0.2447   26.7479 C   0  0  1  0  0  0  0  0  0  0  0  0
   -1.5786    1.1840   26.1840 O   0  0  0  0  0  0  0  0  0  0  0  0
    9.9503    7.2389   26.5670 C   0  0  0  0  0  0  0  0  0  0  0  0
   10.8188    6.3074   27.1896 O   0  0  0  0  0  0  0  0  0  0  0  0
    3.5475    6.4274   23.5127 C   0  0  1  0  0  0  0  0  0  0  0  0
    2.1876    6.0198   23.3695 O   0  0  0  0  0  0  0  0  0  0  0  0
   -3.9699    0.8344   26.5986 C   0  0  0  0  0  0  0  0  0  0  0  0
   -4.3326    1.0814   25.1913 N   0  0  0  0  0  0  0  0  0  0  0  0
  1  2  1  6  0  0  0
  1  7  1  0  0  0  0
  1 30  1  0  0  0  0
  3  4  1  6  0  0  0
  3  9  1  0  0  0  0
  3 39  1  0  0  0  0
  5 10  1  0  0  0  0
  5 26  1  0  0  0  0
  5 32  1  1  0  0  0
  6 12  1  0  0  0  0
  6 36  1  0  0  0  0
  6 19  1  6  0  0  0
  7  8  1  6  0  0  0
  7 14  1  0  0  0  0
  9 16  1  0  0  0  0
 10 11  1  6  0  0  0
 10 18  1  0  0  0  0
 12 13  1  6  0  0  0
 12 20  1  0  0  0  0
 14 15  1  1  0  0  0
 14 22  1  0  0  0  0
 16 17  1  6  0  0  0
 16 24  1  0  0  0  0
 18 19  1  6  0  0  0
 18 25  1  0  0  0  0
 20 21  1  1  0  0  0
 20 27  1  0  0  0  0
 22 23  1  6  0  0  0
 22 29  1  0  0  0  0
 24  2  1  1  0  0  0
 24 31  1  0  0  0  0
 25 26  1  0  0  0  0
 25 33  1  1  0  0  0
 27 28  1  6  0  0  0
 27 35  1  0  0  0  0
 29 30  1  0  0  0  0
 29 37  1  1  0  0  0
 31 32  1  6  0  0  0
 31 39  1  0  0  0  0
 33 34  1  0  0  0  0
 35 36  1  0  0  0  0
 35 41  1  6  0  0  0
 37 38  1  0  0  0  0
 39 40  1  1  0  0  0
 41 42  1  0  0  0  0
M  END
>  <CHROM.1>
-174.26411868,-130.33694991,-50.37938451,-64.27223990,-169.37100367,-145.46521649
-59.80718423,-41.93111010,151.77325418,-78.00802345,54.56725906,178.52005452
171.19240208,-52.08308783,47.86692609,157.17114662,161.01045571,61.64065975
-62.08705056,175.96148741,63.71926177,51.49973610,3.35699770,4.19876720,26.25450324
-0.27394067,0.63503758,2.19163447

>  <Name>
1fyp_lig

>  <RI>
0

>  <Rbt.Current_Directory>
/home/itssahil/PROJECTS/Mol_Feturizer/New_Systems/rnas/1fyp

>  <Rbt.Executable>
rbdock ($Id: //depot/dev/client3/rdock/2013.1/src/exe/rbdock.cxx#4 $)

>  <Rbt.Library>
libRbt.so (2013.1, Build901 2013/11/27)

>  <Rbt.Parameter_File>
/export/apps/rDock/src/rDock_2013.1_src/data/scripts/dock_solv.prm

>  <Rbt.Receptor>
prm/pocket_docking_2.prm

>  <SCORE>
-54.7451

>  <SCORE.INTER>
-43.056

>  <SCORE.INTER.CONST>
1

>  <SCORE.INTER.POLAR>
-4.02848

>  <SCORE.INTER.ROT>
14

>  <SCORE.INTER.SOLV>
18.5692

>  <SCORE.INTER.VDW>
-34.3988

>  <SCORE.INTER.norm>
-1.02514

>  <SCORE.INTRA>
-12.1562

>  <SCORE.INTRA.DIHEDRAL>
-28.8138

>  <SCORE.INTRA.DIHEDRAL.0>
48.7173

>  <SCORE.INTRA.POLAR>
0.0795015

>  <SCORE.INTRA.POLAR.0>
-1.54691

>  <SCORE.INTRA.REPUL>
0

>  <SCORE.INTRA.REPUL.0>
0

>  <SCORE.INTRA.SOLV>
0.00885118

>  <SCORE.INTRA.SOLV.lig_0>
-64.052

>  <SCORE.INTRA.VDW>
1.97598

>  <SCORE.INTRA.VDW.0>
-7.0667

>  <SCORE.INTRA.norm>
-0.289433

>  <SCORE.RESTR>
0.467053

>  <SCORE.RESTR.CAVITY>
0.467053

>  <SCORE.RESTR.norm>
0.0111203

>  <SCORE.SYSTEM>
0

>  <SCORE.SYSTEM.CONST>
0

>  <SCORE.SYSTEM.DIHEDRAL>
0

>  <SCORE.SYSTEM.SOLV>
0

>  <SCORE.SYSTEM.norm>
0

>  <SCORE.heavy>
42

>  <SCORE.norm>
-1.30345

>  <RMSD>
1.230

$$$$
1fyp_lig
 OpenBabel11021811393D
libRbt.so/2013.1/901 2013/11/27
 42 45  0  0  0  0  0  0  0  0999 V2000
    6.2396    5.7938   27.6138 C   0  0  2  0  0  0  0  0  0  0  0  0
    5.2801    6.6612   26.9436 O   0  0  0  0  0  0  0  0  0  0  0  0
    3.3640    7.5509   23.2317 C   0  0  2  0  0  0  0  0  0  0  0  0
    2.9693    7.6860   21.8174 N   0  0  0  0  0  0  0  0  0  0  0  0
    2.4955    3.7947   25.7711 C   0  0  1  0  0  0  0  0  0  0  0  0
   -0.4504    0.4839   25.5335 C   0  0  1  0  0  0  0  0  0  0  0  0
    6.3346    6.1167   29.1399 C   0  0  2  0  0  0  0  0  0  0  0  0
    4.9954    6.1491   29.7655 N   0  0  0  0  0  0  0  0  0  0  0  0
    4.8078    8.0607   23.4123 C   0  0  0  0  0  0  0  0  0  0  0  0
    2.5325    2.4388   25.0614 C   0  0  2  0  0  0  0  0  0  0  0  0
    1.8875    2.5469   23.7919 O   0  0  0  0  0  0  0  0  0  0  0  0
   -0.2042   -0.0175   24.0778 C   0  0  2  0  0  0  0  0  0  0  0  0
   -0.3199    1.0671   23.0725 N   0  0  0  0  0  0  0  0  0  0  0  0
    7.0759    7.4696   29.3770 C   0  0  1  0  0  0  0  0  0  0  0  0
    7.2950    7.6724   30.7708 O   0  0  0  0  0  0  0  0  0  0  0  0
    5.2817    7.9731   24.8888 C   0  0  2  0  0  0  0  0  0  0  0  0
    6.6937    8.4063   24.9361 N   0  0  0  0  0  0  0  0  0  0  0  0
    1.7262    1.5601   26.0217 C   0  0  2  0  0  0  0  0  0  0  0  0
    0.2940    1.6995   25.8073 O   0  0  0  0  0  0  0  0  0  0  0  0
   -1.1469   -1.2119   23.7347 C   0  0  1  0  0  0  0  0  0  0  0  0
   -0.6850   -2.3683   24.4297 O   0  0  0  0  0  0  0  0  0  0  0  0
    8.4444    7.5116   28.6519 C   0  0  2  0  0  0  0  0  0  0  0  0
    9.0253    8.7999   28.8294 O   0  0  0  0  0  0  0  0  0  0  0  0
    5.1006    6.5386   25.5034 C   0  0  2  0  0  0  0  0  0  0  0  0
    2.1250    2.1293   27.3904 C   0  0  2  0  0  0  0  0  0  0  0  0
    2.3739    3.5324   27.1783 O   0  0  0  0  0  0  0  0  0  0  0  0
   -2.6391   -0.9757   24.1188 C   0  0  2  0  0  0  0  0  0  0  0  0
   -3.2032   -0.0422   23.1963 O   0  0  0  0  0  0  0  0  0  0  0  0
    8.2646    7.1958   27.1399 C   0  0  2  0  0  0  0  0  0  0  0  0
    7.5647    5.9231   26.9971 O   0  0  0  0  0  0  0  0  0  0  0  0
    3.6867    5.9200   25.2063 C   0  0  2  0  0  0  0  0  0  0  0  0
    3.7413    4.5020   25.5110 O   0  0  0  0  0  0  0  0  0  0  0  0
    3.3744    1.4541   27.9835 C   0  0  0  0  0  0  0  0  0  0  0  0
    3.7008    2.0137   29.2437 O   0  0  0  0  0  0  0  0  0  0  0  0
   -2.7564   -0.4309   25.5762 C   0  0  1  0  0  0  0  0  0  0  0  0
   -1.8834    0.7285   25.7382 O   0  0  0  0  0  0  0  0  0  0  0  0
    9.5819    7.0679   26.3428 C   0  0  0  0  0  0  0  0  0  0  0  0
   10.1213    8.3414   26.0318 O   0  0  0  0  0  0  0  0  0  0  0  0
    3.2504    6.0858   23.7174 C   0  0  1  0  0  0  0  0  0  0  0  0
    1.8976    5.6522   23.5844 O   0  0  0  0  0  0  0  0  0  0  0  0
   -4.2062   -0.0283   25.9492 C   0  0  0  0  0  0  0  0  0  0  0  0
   -4.2554    0.9106   27.0846 N   0  0  0  0  0  0  0  0  0  0  0  0
  1  2  1  6  0  0  0
  1  7  1  0  0  0  0
  1 30  1  0  0  0  0
  3  4  1  6  0  0  0
  3  9  1  0  0  0  0
  3 39  1  0  0  0  0
  5 10  1  0  0  0  0
  5 26  1  0  0  0  0
  5 32  1  1  0  0  0
  6 12  1  0  0  0  0
  6 36  1  0  0  0  0
  6 19  1  6  0  0  0
  7  8  1  6  0  0  0
  7 14  1  0  0  0  0
  9 16  1  0  0  0  0
 10 11  1  6  0  0  0
 10 18  1  0  0  0  0
 12 13  1  6  0  0  0
 12 20  1  0  0  0  0
 14 15  1  1  0  0  0
 14 22  1  0  0  0  0
 16 17  1  6  0  0  0
 16 24  1  0  0  0  0
 18 19  1  6  0  0  0
 18 25  1  0  0  0  0
 20 21  1  1  0  0  0
 20 27  1  0  0  0  0
 22 23  1  6  0  0  0
 22 29  1  0  0  0  0
 24  2  1  1  0  0  0
 24 31  1  0  0  0  0
 25 26  1  0  0  0  0
 25 33  1  6  0  0  0
 27 28  1  6  0  0  0
 27 35  1  0  0  0  0
 29 30  1  0  0  0  0
 29 37  1  6  0  0  0
 31 32  1  6  0  0  0
 31 39  1  0  0  0  0
 33 34  1  0  0  0  0
 35 36  1  0  0  0  0
 35 41  1  6  0  0  0
 37 38  1  0  0  0  0
 39 40  1  1  0  0  0
 41 42  1  0  0  0  0
M  END
>  <CHROM.1>
177.52104517,-127.13153703,176.45369359,60.55711364,148.32637873,102.68019337
65.46179146,-31.60605716,124.11628997,-75.09666247,-43.81942398,-55.83389507
179.97923529,178.78555606,-78.70148880,158.90506661,137.58280982,75.83313169
-159.17605262,-55.02347448,163.61742398,-112.21315893,3.09074722,4.11228243
25.96552995,-0.13059147,0.69873978,2.07795676

>  <Name>
1fyp_lig

>  <RI>
0

>  <Rbt.Current_Directory>
/home/itssahil/PROJECTS/Mol_Feturizer/New_Systems/rnas/1fyp

>  <Rbt.Executable>
rbdock ($Id: //depot/dev/client3/rdock/2013.1/src/exe/rbdock.cxx#4 $)

>  <Rbt.Library>
libRbt.so (2013.1, Build901 2013/11/27)

>  <Rbt.Parameter_File>
/export/apps/rDock/src/rDock_2013.1_src/data/scripts/dock_solv.prm

>  <Rbt.Receptor>
prm/blind_docking_40.prm

>  <SCORE>
-52.6324

>  <SCORE.INTER>
-51.4935

>  <SCORE.INTER.CONST>
1

>  <SCORE.INTER.POLAR>
-6.3494

>  <SCORE.INTER.ROT>
14

>  <SCORE.INTER.SOLV>
19.9945

>  <SCORE.INTER.VDW>
-32.7625

>  <SCORE.INTER.norm>
-1.22604

>  <SCORE.INTRA>
-2.23978

>  <SCORE.INTRA.DIHEDRAL>
-10.2519

>  <SCORE.INTRA.DIHEDRAL.0>
48.7173

>  <SCORE.INTRA.POLAR>
0.0915434

>  <SCORE.INTRA.POLAR.0>
-1.54691

>  <SCORE.INTRA.REPUL>
0

>  <SCORE.INTRA.REPUL.0>
0

>  <SCORE.INTRA.SOLV>
-1.08124

>  <SCORE.INTRA.SOLV.lig_0>
-64.052

>  <SCORE.INTRA.VDW>
3.11554

>  <SCORE.INTRA.VDW.0>
-7.0667

>  <SCORE.INTRA.norm>
-0.0533281

>  <SCORE.RESTR>
1.10091

>  <SCORE.RESTR.CAVITY>
1.10091

>  <SCORE.RESTR.norm>
0.0262121

>  <SCORE.SYSTEM>
0

>  <SCORE.SYSTEM.CONST>
0

>  <SCORE.SYSTEM.DIHEDRAL>
0

>  <SCORE.SYSTEM.SOLV>
0

>  <SCORE.SYSTEM.norm>
0

>  <SCORE.heavy>
42

>  <SCORE.norm>
-1.25315

>  <RMSD>
1.271

$$$$
1fyp_lig
 OpenBabel11021811393D
libRbt.so/2013.1/901 2013/11/27
 42 45  0  0  0  0  0  0  0  0999 V2000
    6.5670    5.7531   27.2249 C   0  0  2  0  0  0  0  0  0  0  0  0
    5.8248    6.8473   26.6132 O   0  0  0  0  0  0  0  0  0  0  0  0
    3.7431    8.0144   23.0712 C   0  0  2  0  0  0  0  0  0  0  0  0
    3.2745    8.2404   21.6914 N   0  0  0  0  0  0  0  0  0  0  0  0
    2.8277    4.1523   25.3284 C   0  0  1  0  0  0  0  0  0  0  0  0
   -0.1732    0.8786   25.7575 C   0  0  1  0  0  0  0  0  0  0  0  0
    6.4635    5.7923   28.7837 C   0  0  2  0  0  0  0  0  0  0  0  0
    5.0567    5.9017   29.2251 N   0  0  0  0  0  0  0  0  0  0  0  0
    5.2180    8.4477   23.1894 C   0  0  0  0  0  0  0  0  0  0  0  0
    3.0207    2.6626   25.0329 C   0  0  2  0  0  0  0  0  0  0  0  0
    2.6838    2.3988   23.6704 O   0  0  0  0  0  0  0  0  0  0  0  0
    0.2490   -0.3879   24.9520 C   0  0  2  0  0  0  0  0  0  0  0  0
    0.4512   -0.1066   23.5096 N   0  0  0  0  0  0  0  0  0  0  0  0
    7.3072    6.9684   29.3677 C   0  0  1  0  0  0  0  0  0  0  0  0
    7.3323    6.8961   30.7910 O   0  0  0  0  0  0  0  0  0  0  0  0
    5.7716    8.2623   24.6287 C   0  0  2  0  0  0  0  0  0  0  0  0
    7.2033    8.6275   24.6122 N   0  0  0  0  0  0  0  0  0  0  0  0
    2.0125    2.0200   25.9895 C   0  0  2  0  0  0  0  0  0  0  0  0
    0.6680    2.0163   25.4338 O   0  0  0  0  0  0  0  0  0  0  0  0
   -0.7712   -1.5482   25.1661 C   0  0  1  0  0  0  0  0  0  0  0  0
   -0.5919   -2.0729   26.4799 O   0  0  0  0  0  0  0  0  0  0  0  0
    8.7664    6.9446   28.8474 C   0  0  2  0  0  0  0  0  0  0  0  0
    9.4545    8.0901   29.3403 O   0  0  0  0  0  0  0  0  0  0  0  0
    5.5567    6.8077   25.1821 C   0  0  2  0  0  0  0  0  0  0  0  0
    2.0897    2.9483   27.2096 C   0  0  2  0  0  0  0  0  0  0  0  0
    2.3862    4.2595   26.6912 O   0  0  0  0  0  0  0  0  0  0  0  0
   -2.2623   -1.1214   25.0106 C   0  0  2  0  0  0  0  0  0  0  0  0
   -2.5321   -0.9102   23.6238 O   0  0  0  0  0  0  0  0  0  0  0  0
    8.7852    6.9216   27.2926 C   0  0  2  0  0  0  0  0  0  0  0  0
    7.9768    5.8018   26.8211 O   0  0  0  0  0  0  0  0  0  0  0  0
    4.0996    6.2705   24.9406 C   0  0  2  0  0  0  0  0  0  0  0  0
    4.1027    4.8376   25.1716 O   0  0  0  0  0  0  0  0  0  0  0  0
    3.1675    2.5239   28.2230 C   0  0  0  0  0  0  0  0  0  0  0  0
    2.8290    1.2911   28.8338 O   0  0  0  0  0  0  0  0  0  0  0  0
   -2.5533    0.1802   25.8204 C   0  0  1  0  0  0  0  0  0  0  0  0
   -1.5749    1.2057   25.4686 O   0  0  0  0  0  0  0  0  0  0  0  0
   10.1860    6.7516   26.6634 C   0  0  0  0  0  0  0  0  0  0  0  0
   11.0063    7.8788   26.9205 O   0  0  0  0  0  0  0  0  0  0  0  0
    3.5867    6.5328   23.4906 C   0  0  1  0  0  0  0  0  0  0  0  0
    2.2090    6.1689   23.4180 O   0  0  0  0  0  0  0  0  0  0  0  0
   -3.9791    0.7344   25.5696 C   0  0  0  0  0  0  0  0  0  0  0  0
   -5.0301   -0.1592   26.0889 N   0  0  0  0  0  0  0  0  0  0  0  0
  1  2  1  6  0  0  0
  1  7  1  0  0  0  0
  1 30  1  0  0  0  0
  3  4  1  6  0  0  0
  3  9  1  0  0  0  0
  3 39  1  0  0  0  0
  5 10  1  0  0  0  0
  5 26  1  0  0  0  0
  5 32  1  1  0  0  0
  6 12  1  0  0  0  0
  6 36  1  0  0  0  0
  6 19  1  6  0  0  0
  7  8  1  6  0  0  0
  7 14  1  0  0  0  0
  9 16  1  0  0  0  0
 10 11  1  6  0  0  0
 10 18  1  0  0  0  0
 12 13  1  6  0  0  0
 12 20  1  0  0  0  0
 14 15  1  1  0  0  0
 14 22  1  0  0  0  0
 16 17  1  6  0  0  0
 16 24  1  0  0  0  0
 18 19  1  6  0  0  0
 18 25  1  0  0  0  0
 20 21  1  1  0  0  0
 20 27  1  0  0  0  0
 22 23  1  6  0  0  0
 22 29  1  0  0  0  0
 24  2  1  1  0  0  0
 24 31  1  0  0  0  0
 25 26  1  0  0  0  0
 25 33  1  1  0  0  0
 27 28  1  6  0  0  0
 27 35  1  0  0  0  0
 29 30  1  0  0  0  0
 29 37  1  1  0  0  0
 31 32  1  6  0  0  0
 31 39  1  0  0  0  0
 33 34  1  0  0  0  0
 35 36  1  0  0  0  0
 35 41  1  6  0  0  0
 37 38  1  0  0  0  0
 39 40  1  1  0  0  0
 41 42  1  0  0  0  0
M  END
>  <CHROM.1>
-166.43559667,-138.97950454,67.43316076,-70.23661781,173.56202433,-71.38348182
60.94585743,59.64636352,145.44533238,-74.94127655,59.33034152,-174.19768938
-67.05128678,177.05757604,-66.39664745,165.42822248,158.86604729,60.94369203
66.69421602,-158.78774927,70.29117850,-39.55087365,3.39074775,4.12574906
25.98457079,-0.25933696,0.63755441,2.22704716

>  <Name>
1fyp_lig

>  <RI>
0

>  <Rbt.Current_Directory>
/home/itssahil/PROJECTS/Mol_Feturizer/New_Systems/rnas/1fyp

>  <Rbt.Executable>
rbdock ($Id: //depot/dev/client3/rdock/2013.1/src/exe/rbdock.cxx#4 $)

>  <Rbt.Library>
libRbt.so (2013.1, Build901 2013/11/27)

>  <Rbt.Parameter_File>
/export/apps/rDock/src/rDock_2013.1_src/data/scripts/dock_solv.prm

>  <Rbt.Receptor>
prm/pocket_docking_4.prm

>  <SCORE>
-57.4144

>  <SCORE.INTER>
-45.7811

>  <SCORE.INTER.CONST>
1

>  <SCORE.INTER.POLAR>
-4.88238

>  <SCORE.INTER.ROT>
14

>  <SCORE.INTER.SOLV>
18.1895

>  <SCORE.INTER.VDW>
-33.2426

>  <SCORE.INTER.norm>
-1.09003

>  <SCORE.INTRA>
-11.6333

>  <SCORE.INTRA.DIHEDRAL>
-28.6505

>  <SCORE.INTRA.DIHEDRAL.0>
48.7173

>  <SCORE.INTRA.POLAR>
0.515088

>  <SCORE.INTRA.POLAR.0>
-1.54691

>  <SCORE.INTRA.REPUL>
0

>  <SCORE.INTRA.REPUL.0>
0

>  <SCORE.INTRA.SOLV>
-1.70883

>  <SCORE.INTRA.SOLV.lig_0>
-64.052

>  <SCORE.INTRA.VDW>
1.79507

>  <SCORE.INTRA.VDW.0>
-7.0667

>  <SCORE.INTRA.norm>
-0.276983

>  <SCORE.RESTR>
0

>  <SCORE.RESTR.CAVITY>
0

>  <SCORE.RESTR.norm>
0

>  <SCORE.SYSTEM>
0

>  <SCORE.SYSTEM.CONST>
0

>  <SCORE.SYSTEM.DIHEDRAL>
0

>  <SCORE.SYSTEM.SOLV>
0

>  <SCORE.SYSTEM.norm>
0

>  <SCORE.heavy>
42

>  <SCORE.norm>
-1.36701

>  <RMSD>
1.283

$$$$
1fyp_lig
 OpenBabel11021811393D
libRbt.so/2013.1/901 2013/11/27
 42 45  0  0  0  0  0  0  0  0999 V2000
    6.6737    6.0725   27.2767 C   0  0  2  0  0  0  0  0  0  0  0  0
    5.6563    6.9430   26.7027 O   0  0  0  0  0  0  0  0  0  0  0  0
    3.5797    8.0385   23.1350 C   0  0  2  0  0  0  0  0  0  0  0  0
    3.1061    8.2266   21.7513 N   0  0  0  0  0  0  0  0  0  0  0  0
    2.5726    4.3022   25.5894 C   0  0  1  0  0  0  0  0  0  0  0  0
   -0.3079    0.9620   25.7942 C   0  0  1  0  0  0  0  0  0  0  0  0
    6.6285    6.0917   28.8386 C   0  0  2  0  0  0  0  0  0  0  0  0
    5.2588    5.8471   29.3385 N   0  0  0  0  0  0  0  0  0  0  0  0
    5.0677    8.4315   23.2257 C   0  0  0  0  0  0  0  0  0  0  0  0
    2.7122    2.7899   25.3969 C   0  0  2  0  0  0  0  0  0  0  0  0
    2.3294    2.4409   24.0660 O   0  0  0  0  0  0  0  0  0  0  0  0
    0.0000    0.2795   24.4266 C   0  0  2  0  0  0  0  0  0  0  0  0
   -0.1616    1.2035   23.2775 N   0  0  0  0  0  0  0  0  0  0  0  0
    7.1742    7.4443   29.3942 C   0  0  1  0  0  0  0  0  0  0  0  0
    7.2757    7.3872   30.8149 O   0  0  0  0  0  0  0  0  0  0  0  0
    5.6280    8.2835   24.6667 C   0  0  2  0  0  0  0  0  0  0  0  0
    7.0698    8.6048   24.6257 N   0  0  0  0  0  0  0  0  0  0  0  0
    1.7123    2.2495   26.4228 C   0  0  2  0  0  0  0  0  0  0  0  0
    0.3532    2.2495   25.9037 O   0  0  0  0  0  0  0  0  0  0  0  0
   -0.8588   -1.0096   24.2431 C   0  0  1  0  0  0  0  0  0  0  0  0
   -0.3407   -2.0254   25.0993 O   0  0  0  0  0  0  0  0  0  0  0  0
    8.5698    7.7845   28.8139 C   0  0  2  0  0  0  0  0  0  0  0  0
    8.9689    9.0682   29.2847 O   0  0  0  0  0  0  0  0  0  0  0  0
    5.3748    6.8578   25.2762 C   0  0  2  0  0  0  0  0  0  0  0  0
    1.8516    3.2591   27.5707 C   0  0  2  0  0  0  0  0  0  0  0  0
    2.1729    4.5200   26.9520 O   0  0  0  0  0  0  0  0  0  0  0  0
   -2.3707   -0.8192   24.5716 C   0  0  2  0  0  0  0  0  0  0  0  0
   -2.9721   -0.0619   23.5202 O   0  0  0  0  0  0  0  0  0  0  0  0
    8.5293    7.7599   27.2596 C   0  0  2  0  0  0  0  0  0  0  0  0
    8.0083    6.4711   26.8151 O   0  0  0  0  0  0  0  0  0  0  0  0
    3.9003    6.3559   25.0661 C   0  0  2  0  0  0  0  0  0  0  0  0
    3.8628    4.9333   25.3510 O   0  0  0  0  0  0  0  0  0  0  0  0
    2.9441    2.8733   28.5838 C   0  0  0  0  0  0  0  0  0  0  0  0
    4.2086    3.3646   28.1746 O   0  0  0  0  0  0  0  0  0  0  0  0
   -2.5528   -0.0853   25.9364 C   0  0  1  0  0  0  0  0  0  0  0  0
   -1.7575    1.1394   25.9447 O   0  0  0  0  0  0  0  0  0  0  0  0
    9.9006    7.9434   26.5719 C   0  0  0  0  0  0  0  0  0  0  0  0
   10.2784    9.3092   26.5329 O   0  0  0  0  0  0  0  0  0  0  0  0
    3.3829    6.5791   23.6111 C   0  0  1  0  0  0  0  0  0  0  0  0
    1.9944    6.2542   23.5627 O   0  0  0  0  0  0  0  0  0  0  0  0
   -4.0325    0.2707   26.2312 C   0  0  0  0  0  0  0  0  0  0  0  0
   -4.4720    1.4850   25.5203 N   0  0  0  0  0  0  0  0  0  0  0  0
  1  2  1  6  0  0  0
  1  7  1  0  0  0  0
  1 30  1  0  0  0  0
  3  4  1  6  0  0  0
  3  9  1  0  0  0  0
  3 39  1  0  0  0  0
  5 10  1  0  0  0  0
  5 26  1  0  0  0  0
  5 32  1  1  0  0  0
  6 12  1  0  0  0  0
  6 36  1  0  0  0  0
  6 19  1  6  0  0  0
  7  8  1  6  0  0  0
  7 14  1  0  0  0  0
  9 16  1  0  0  0  0
 10 11  1  6  0  0  0
 10 18  1  0  0  0  0
 12 13  1  6  0  0  0
 12 20  1  0  0  0  0
 14 15  1  1  0  0  0
 14 22  1  0  0  0  0
 16 17  1  6  0  0  0
 16 24  1  0  0  0  0
 18 19  1  6  0  0  0
 18 25  1  0  0  0  0
 20 21  1  1  0  0  0
 20 27  1  0  0  0  0
 22 23  1  6  0  0  0
 22 29  1  0  0  0  0
 24  2  1  1  0  0  0
 24 31  1  0  0  0  0
 25 26  1  0  0  0  0
 25 33  1  1  0  0  0
 27 28  1  6  0  0  0
 27 35  1  0  0  0  0
 29 30  1  0  0  0  0
 29 37  1  6  0  0  0
 31 32  1  6  0  0  0
 31 39  1  0  0  0  0
 33 34  1  0  0  0  0
 35 36  1  0  0  0  0
 35 41  1  6  0  0  0
 37 38  1  0  0  0  0
 39 40  1  1  0  0  0
 41 42  1  0  0  0  0
M  END
>  <CHROM.1>
-168.19561092,-121.70596566,-63.85238529,-74.57428886,-59.09868232,113.36744353
-60.42848769,-43.24733197,118.26017942,-87.48080265,65.40469336,-63.97670816
86.89544217,171.61883251,-79.97151647,163.30348077,161.09733623,-165.81753765
-80.07387214,15.06789964,165.02960517,104.19447186,3.26061295,4.53590121
25.97943643,-0.17737273,0.67985555,2.12838723

>  <Name>
1fyp_lig

>  <RI>
0

>  <Rbt.Current_Directory>
/home/itssahil/PROJECTS/Mol_Feturizer/New_Systems/rnas/1fyp

>  <Rbt.Executable>
rbdock ($Id: //depot/dev/client3/rdock/2013.1/src/exe/rbdock.cxx#4 $)

>  <Rbt.Library>
libRbt.so (2013.1, Build901 2013/11/27)

>  <Rbt.Parameter_File>
/export/apps/rDock/src/rDock_2013.1_src/data/scripts/dock_solv.prm

>  <Rbt.Receptor>
prm/pocket_docking_4.prm

>  <SCORE>
-53.8855

>  <SCORE.INTER>
-53.5674

>  <SCORE.INTER.CONST>
1

>  <SCORE.INTER.POLAR>
-6.56783

>  <SCORE.INTER.ROT>
14

>  <SCORE.INTER.SOLV>
17.8245

>  <SCORE.INTER.VDW>
-32.6936

>  <SCORE.INTER.norm>
-1.27541

>  <SCORE.INTRA>
-0.318153

>  <SCORE.INTRA.DIHEDRAL>
-8.67568

>  <SCORE.INTRA.DIHEDRAL.0>
48.7173

>  <SCORE.INTRA.POLAR>
-0.0754194

>  <SCORE.INTRA.POLAR.0>
-1.54691

>  <SCORE.INTRA.REPUL>
0

>  <SCORE.INTRA.REPUL.0>
0

>  <SCORE.INTRA.SOLV>
1.43381

>  <SCORE.INTRA.SOLV.lig_0>
-64.052

>  <SCORE.INTRA.VDW>
3.55921

>  <SCORE.INTRA.VDW.0>
-7.0667

>  <SCORE.INTRA.norm>
-0.00757508

>  <SCORE.RESTR>
0

>  <SCORE.RESTR.CAVITY>
0

>  <SCORE.RESTR.norm>
0

>  <SCORE.SYSTEM>
0

>  <SCORE.SYSTEM.CONST>
0

>  <SCORE.SYSTEM.DIHEDRAL>
0

>  <SCORE.SYSTEM.SOLV>
0

>  <SCORE.SYSTEM.norm>
0

>  <SCORE.heavy>
42

>  <SCORE.norm>
-1.28299

>  <RMSD>
1.286

$$$$
1fyp_lig
 OpenBabel11021811393D
libRbt.so/2013.1/901 2013/11/27
 42 45  0  0  0  0  0  0  0  0999 V2000
    6.7817    5.9134   27.7759 C   0  0  2  0  0  0  0  0  0  0  0  0
    5.8785    6.9021   27.2022 O   0  0  0  0  0  0  0  0  0  0  0  0
    3.0323    7.6839   24.1154 C   0  0  2  0  0  0  0  0  0  0  0  0
    2.1527    7.6470   22.9324 N   0  0  0  0  0  0  0  0  0  0  0  0
    2.6098    4.3291   26.6203 C   0  0  1  0  0  0  0  0  0  0  0  0
    1.2013    0.8434   25.4403 C   0  0  1  0  0  0  0  0  0  0  0  0
    6.6071    5.8097   29.3254 C   0  0  2  0  0  0  0  0  0  0  0  0
    5.1867    5.6303   29.6942 N   0  0  0  0  0  0  0  0  0  0  0  0
    4.4917    7.4501   23.6768 C   0  0  0  0  0  0  0  0  0  0  0  0
    3.6577    3.6315   25.7489 C   0  0  2  0  0  0  0  0  0  0  0  0
    3.5326    4.0821   24.3995 O   0  0  0  0  0  0  0  0  0  0  0  0
    0.4344    0.1863   24.2523 C   0  0  2  0  0  0  0  0  0  0  0  0
   -0.0518    1.1816   23.2657 N   0  0  0  0  0  0  0  0  0  0  0  0
    7.1965    7.0677   30.0368 C   0  0  1  0  0  0  0  0  0  0  0  0
    7.1744    6.8884   31.4507 O   0  0  0  0  0  0  0  0  0  0  0  0
    5.4807    7.5031   24.8733 C   0  0  2  0  0  0  0  0  0  0  0  0
    6.8295    7.1884   24.3584 N   0  0  0  0  0  0  0  0  0  0  0  0
    3.2502    2.1619   25.8845 C   0  0  2  0  0  0  0  0  0  0  0  0
    2.1729    1.8139   24.9707 O   0  0  0  0  0  0  0  0  0  0  0  0
   -0.7297   -0.7128   24.7718 C   0  0  1  0  0  0  0  0  0  0  0  0
   -0.1708   -1.8980   25.3343 O   0  0  0  0  0  0  0  0  0  0  0  0
    8.6561    7.3467   29.5984 C   0  0  2  0  0  0  0  0  0  0  0  0
    9.1020    8.5542   30.2083 O   0  0  0  0  0  0  0  0  0  0  0  0
    5.0737    6.5379   26.0442 C   0  0  2  0  0  0  0  0  0  0  0  0
    2.7663    2.0950   27.3397 C   0  0  2  0  0  0  0  0  0  0  0  0
    2.2078    3.3907   27.6311 O   0  0  0  0  0  0  0  0  0  0  0  0
   -1.6239   -0.0342   25.8533 C   0  0  2  0  0  0  0  0  0  0  0  0
   -2.4396    0.9502   25.2160 O   0  0  0  0  0  0  0  0  0  0  0  0
    8.7443    7.4509   28.0494 C   0  0  2  0  0  0  0  0  0  0  0  0
    8.1746    6.2455   27.4558 O   0  0  0  0  0  0  0  0  0  0  0  0
    3.5503    6.6375   26.4175 C   0  0  2  0  0  0  0  0  0  0  0  0
    3.2134    5.4959   27.2480 O   0  0  0  0  0  0  0  0  0  0  0  0
    3.8934    1.7686   28.3356 C   0  0  0  0  0  0  0  0  0  0  0  0
    3.3762    1.5877   29.6423 O   0  0  0  0  0  0  0  0  0  0  0  0
   -0.7472    0.6276   26.9614 C   0  0  1  0  0  0  0  0  0  0  0  0
    0.2480    1.4997   26.3436 O   0  0  0  0  0  0  0  0  0  0  0  0
   10.1778    7.5847   27.4888 C   0  0  0  0  0  0  0  0  0  0  0  0
   10.9139    6.3863   27.6659 O   0  0  0  0  0  0  0  0  0  0  0  0
    2.6156    6.6287   25.1682 C   0  0  1  0  0  0  0  0  0  0  0  0
    1.2793    6.8934   25.5926 O   0  0  0  0  0  0  0  0  0  0  0  0
   -1.5838    1.4523   27.9729 C   0  0  0  0  0  0  0  0  0  0  0  0
   -2.5834    0.6306   28.6791 N   0  0  0  0  0  0  0  0  0  0  0  0
  1  2  1  1  0  0  0
  1  7  1  0  0  0  0
  1 30  1  0  0  0  0
  3  4  1  6  0  0  0
  3  9  1  0  0  0  0
  3 39  1  0  0  0  0
  5 10  1  0  0  0  0
  5 26  1  0  0  0  0
  5 32  1  1  0  0  0
  6 12  1  0  0  0  0
  6 36  1  0  0  0  0
  6 19  1  6  0  0  0
  7  8  1  6  0  0  0
  7 14  1  0  0  0  0
  9 16  1  0  0  0  0
 10 11  1  6  0  0  0
 10 18  1  0  0  0  0
 12 13  1  6  0  0  0
 12 20  1  0  0  0  0
 14 15  1  1  0  0  0
 14 22  1  0  0  0  0
 16 17  1  6  0  0  0
 16 24  1  0  0  0  0
 18 19  1  6  0  0  0
 18 25  1  0  0  0  0
 20 21  1  1  0  0  0
 20 27  1  0  0  0  0
 22 23  1  1  0  0  0
 22 29  1  0  0  0  0
 24  2  1  1  0  0  0
 24 31  1  0  0  0  0
 25 26  1  0  0  0  0
 25 33  1  1  0  0  0
 27 28  1  6  0  0  0
 27 35  1  0  0  0  0
 29 30  1  0  0  0  0
 29 37  1  1  0  0  0
 31 32  1  1  0  0  0
 31 39  1  0  0  0  0
 33 34  1  0  0  0  0
 35 36  1  0  0  0  0
 35 41  1  1  0  0  0
 37 38  1  0  0  0  0
 39 40  1  1  0  0  0
 41 42  1  0  0  0  0
M  END
>  <CHROM.1>
-130.85750702,-119.11154764,-176.12281746,-81.93610422,-59.66062892,65.69093755
-73.19204934,161.21169577,-145.28987094,-159.65190013,-175.94171598,63.15462528
-174.21099340,-31.94338452,68.92523582,-96.84199735,70.04422534,65.42315111
60.13198794,-61.74438942,178.63657062,-161.55604104,3.60520946,4.30394423
26.71509978,-0.19053340,0.66805870,2.21221614

>  <Name>
1fyp_lig

>  <RI>
0

>  <Rbt.Current_Directory>
/home/itssahil/PROJECTS/Mol_Feturizer/New_Systems/rnas/1fyp

>  <Rbt.Executable>
rbdock ($Id: //depot/dev/client3/rdock/2013.1/src/exe/rbdock.cxx#4 $)

>  <Rbt.Library>
libRbt.so (2013.1, Build901 2013/11/27)

>  <Rbt.Parameter_File>
/export/apps/rDock/src/rDock_2013.1_src/data/scripts/dock_solv.prm

>  <Rbt.Receptor>
prm/pocket_docking_2.prm

>  <SCORE>
-39.7938

>  <SCORE.INTER>
-38.1245

>  <SCORE.INTER.CONST>
1

>  <SCORE.INTER.POLAR>
-5.02925

>  <SCORE.INTER.ROT>
14

>  <SCORE.INTER.SOLV>
17.2852

>  <SCORE.INTER.VDW>
-27.3472

>  <SCORE.INTER.norm>
-0.907726

>  <SCORE.INTRA>
-3.32262

>  <SCORE.INTRA.DIHEDRAL>
-15.9715

>  <SCORE.INTRA.DIHEDRAL.0>
48.7173

>  <SCORE.INTRA.POLAR>
0.215454

>  <SCORE.INTRA.POLAR.0>
-1.54691

>  <SCORE.INTRA.REPUL>
0

>  <SCORE.INTRA.REPUL.0>
0

>  <SCORE.INTRA.SOLV>
-1.06948

>  <SCORE.INTRA.SOLV.lig_0>
-64.052

>  <SCORE.INTRA.VDW>
4.46531

>  <SCORE.INTRA.VDW.0>
-7.0667

>  <SCORE.INTRA.norm>
-0.0791101

>  <SCORE.RESTR>
1.65331

>  <SCORE.RESTR.CAVITY>
1.65331

>  <SCORE.RESTR.norm>
0.0393645

>  <SCORE.SYSTEM>
0

>  <SCORE.SYSTEM.CONST>
0

>  <SCORE.SYSTEM.DIHEDRAL>
0

>  <SCORE.SYSTEM.SOLV>
0

>  <SCORE.SYSTEM.norm>
0

>  <SCORE.heavy>
42

>  <SCORE.norm>
-0.947472

>  <RMSD>
1.301

$$$$
1fyp_lig
 OpenBabel11021811393D
libRbt.so/2013.1/901 2013/11/27
 42 45  0  0  0  0  0  0  0  0999 V2000
    6.4167    5.5670   27.1951 C   0  0  2  0  0  0  0  0  0  0  0  0
    5.6282    6.6509   26.6244 O   0  0  0  0  0  0  0  0  0  0  0  0
    3.5193    7.9120   23.1311 C   0  0  2  0  0  0  0  0  0  0  0  0
    3.0373    8.1706   21.7617 N   0  0  0  0  0  0  0  0  0  0  0  0
    2.6070    4.0428   25.5060 C   0  0  1  0  0  0  0  0  0  0  0  0
   -0.5239    1.0382   26.3464 C   0  0  1  0  0  0  0  0  0  0  0  0
    6.2752    5.5136   28.7504 C   0  0  2  0  0  0  0  0  0  0  0  0
    4.8547    5.5206   29.1602 N   0  0  0  0  0  0  0  0  0  0  0  0
    5.0005    8.3256   23.2401 C   0  0  0  0  0  0  0  0  0  0  0  0
    2.5733    2.6494   24.8729 C   0  0  2  0  0  0  0  0  0  0  0  0
    1.8872    2.7101   23.6219 O   0  0  0  0  0  0  0  0  0  0  0  0
   -0.1184   -0.4062   25.9217 C   0  0  2  0  0  0  0  0  0  0  0  0
    0.0992   -0.5322   24.4599 N   0  0  0  0  0  0  0  0  0  0  0  0
    7.0375    6.7000   29.4192 C   0  0  1  0  0  0  0  0  0  0  0  0
    7.0338    6.5502   30.8367 O   0  0  0  0  0  0  0  0  0  0  0  0
    5.5687    8.1053   24.6688 C   0  0  2  0  0  0  0  0  0  0  0  0
    7.0044    8.4540   24.6424 N   0  0  0  0  0  0  0  0  0  0  0  0
    1.7731    1.8539   25.9079 C   0  0  2  0  0  0  0  0  0  0  0  0
    0.3396    2.0316   25.7347 O   0  0  0  0  0  0  0  0  0  0  0  0
   -1.1605   -1.4486   26.4321 C   0  0  1  0  0  0  0  0  0  0  0  0
   -1.0001   -1.5976   27.8412 O   0  0  0  0  0  0  0  0  0  0  0  0
    8.5073    6.7857   28.9368 C   0  0  2  0  0  0  0  0  0  0  0  0
    9.1181    7.9382   29.5089 O   0  0  0  0  0  0  0  0  0  0  0  0
    5.3429    6.6427   25.1961 C   0  0  2  0  0  0  0  0  0  0  0  0
    2.2394    2.4831   27.2281 C   0  0  2  0  0  0  0  0  0  0  0  0
    2.5272    3.8628   26.9291 O   0  0  0  0  0  0  0  0  0  0  0  0
   -2.6427   -1.0579   26.1485 C   0  0  2  0  0  0  0  0  0  0  0  0
   -2.8986   -1.2291   24.7536 O   0  0  0  0  0  0  0  0  0  0  0  0
    8.5633    6.8503   27.3840 C   0  0  2  0  0  0  0  0  0  0  0  0
    7.8304    5.7157   26.8314 O   0  0  0  0  0  0  0  0  0  0  0  0
    3.8768    6.1275   24.9616 C   0  0  2  0  0  0  0  0  0  0  0  0
    3.8655    4.6904   25.1644 O   0  0  0  0  0  0  0  0  0  0  0  0
    3.4861    1.7980   27.8155 C   0  0  0  0  0  0  0  0  0  0  0  0
    3.9491    2.4893   28.9624 O   0  0  0  0  0  0  0  0  0  0  0  0
   -2.9164    0.4194   26.5692 C   0  0  1  0  0  0  0  0  0  0  0  0
   -1.9175    1.2952   25.9627 O   0  0  0  0  0  0  0  0  0  0  0  0
    9.9856    6.7930   26.7833 C   0  0  0  0  0  0  0  0  0  0  0  0
   10.6397    8.0462   26.8882 O   0  0  0  0  0  0  0  0  0  0  0  0
    3.3501    6.4244   23.5232 C   0  0  1  0  0  0  0  0  0  0  0  0
    1.9674    6.0781   23.4599 O   0  0  0  0  0  0  0  0  0  0  0  0
   -4.3303    0.9057   26.1599 C   0  0  0  0  0  0  0  0  0  0  0  0
   -5.2950   -0.2028   26.0424 N   0  0  0  0  0  0  0  0  0  0  0  0
  1  2  1  1  0  0  0
  1  7  1  0  0  0  0
  1 30  1  0  0  0  0
  3  4  1  6  0  0  0
  3  9  1  0  0  0  0
  3 39  1  0  0  0  0
  5 10  1  0  0  0  0
  5 26  1  0  0  0  0
  5 32  1  1  0  0  0
  6 12  1  0  0  0  0
  6 36  1  0  0  0  0
  6 19  1  6  0  0  0
  7  8  1  6  0  0  0
  7 14  1  0  0  0  0
  9 16  1  0  0  0  0
 10 11  1  6  0  0  0
 10 18  1  0  0  0  0
 12 13  1  6  0  0  0
 12 20  1  0  0  0  0
 14 15  1  1  0  0  0
 14 22  1  0  0  0  0
 16 17  1  6  0  0  0
 16 24  1  0  0  0  0
 18 19  1  6  0  0  0
 18 25  1  0  0  0  0
 20 21  1  1  0  0  0
 20 27  1  0  0  0  0
 22 23  1  1  0  0  0
 22 29  1  0  0  0  0
 24  2  1  1  0  0  0
 24 31  1  0  0  0  0
 25 26  1  0  0  0  0
 25 33  1  6  0  0  0
 27 28  1  6  0  0  0
 27 35  1  0  0  0  0
 29 30  1  0  0  0  0
 29 37  1  1  0  0  0
 31 32  1  6  0  0  0
 31 39  1  0  0  0  0
 33 34  1  0  0  0  0
 35 36  1  0  0  0  0
 35 41  1  6  0  0  0
 37 38  1  0  0  0  0
 39 40  1  1  0  0  0
 41 42  1  0  0  0  0
M  END
>  <CHROM.1>
-163.58195766,-136.20960947,-154.48964300,79.19010834,175.45602019,-77.70191830
57.22831120,124.39429151,161.10858589,-52.81042220,-62.18348802,58.93135005
174.56968370,173.62585516,-78.19031714,157.06455151,145.92376649,162.52815329
26.03723751,-160.96684094,166.33467849,-157.44471047,3.17195059,4.05669759
26.23676566,-0.30076026,0.59218854,2.23102802

>  <Name>
1fyp_lig

>  <RI>
0

>  <Rbt.Current_Directory>
/home/itssahil/PROJECTS/Mol_Feturizer/New_Systems/rnas/1fyp

>  <Rbt.Executable>
rbdock ($Id: //depot/dev/client3/rdock/2013.1/src/exe/rbdock.cxx#4 $)

>  <Rbt.Library>
libRbt.so (2013.1, Build901 2013/11/27)

>  <Rbt.Parameter_File>
/export/apps/rDock/src/rDock_2013.1_src/data/scripts/dock_solv.prm

>  <Rbt.Receptor>
prm/pocket_docking_2.prm

>  <SCORE>
-42.2544

>  <SCORE.INTER>
-33.4903

>  <SCORE.INTER.CONST>
1

>  <SCORE.INTER.POLAR>
-2.58415

>  <SCORE.INTER.ROT>
14

>  <SCORE.INTER.SOLV>
17.2605

>  <SCORE.INTER.VDW>
-32.3999

>  <SCORE.INTER.norm>
-0.797389

>  <SCORE.INTRA>
-9.4972

>  <SCORE.INTRA.DIHEDRAL>
-18.7099

>  <SCORE.INTRA.DIHEDRAL.0>
48.7173

>  <SCORE.INTRA.POLAR>
-0.562004

>  <SCORE.INTRA.POLAR.0>
-1.54691

>  <SCORE.INTRA.REPUL>
0

>  <SCORE.INTRA.REPUL.0>
0

>  <SCORE.INTRA.SOLV>
-0.295579

>  <SCORE.INTRA.SOLV.lig_0>
-64.052

>  <SCORE.INTRA.VDW>
1.91636

>  <SCORE.INTRA.VDW.0>
-7.0667

>  <SCORE.INTRA.norm>
-0.226124

>  <SCORE.RESTR>
0.733121

>  <SCORE.RESTR.CAVITY>
0.733121

>  <SCORE.RESTR.norm>
0.0174553

>  <SCORE.SYSTEM>
0

>  <SCORE.SYSTEM.CONST>
0

>  <SCORE.SYSTEM.DIHEDRAL>
0

>  <SCORE.SYSTEM.SOLV>
0

>  <SCORE.SYSTEM.norm>
0

>  <SCORE.heavy>
42

>  <SCORE.norm>
-1.00606

>  <RMSD>
1.302

$$$$
1fyp_lig
 OpenBabel11021811393D
libRbt.so/2013.1/901 2013/11/27
 42 45  0  0  0  0  0  0  0  0999 V2000
    6.6820    5.7708   27.1804 C   0  0  2  0  0  0  0  0  0  0  0  0
    5.7321    6.7063   26.5932 O   0  0  0  0  0  0  0  0  0  0  0  0
    3.6736    7.8042   23.0157 C   0  0  2  0  0  0  0  0  0  0  0  0
    3.2263    8.0227   21.6277 N   0  0  0  0  0  0  0  0  0  0  0  0
    2.9232    3.8716   25.2369 C   0  0  1  0  0  0  0  0  0  0  0  0
   -0.0681    0.7593   26.0156 C   0  0  1  0  0  0  0  0  0  0  0  0
    6.5501    5.7224   28.7368 C   0  0  2  0  0  0  0  0  0  0  0  0
    5.1463    5.5115   29.1497 N   0  0  0  0  0  0  0  0  0  0  0  0
    5.1186    8.3175   23.1757 C   0  0  0  0  0  0  0  0  0  0  0  0
    3.1971    2.3938   24.9459 C   0  0  2  0  0  0  0  0  0  0  0  0
    2.8815    2.1094   23.5824 O   0  0  0  0  0  0  0  0  0  0  0  0
    0.1787   -0.7402   25.6669 C   0  0  2  0  0  0  0  0  0  0  0  0
    0.3530   -0.9673   24.2115 N   0  0  0  0  0  0  0  0  0  0  0  0
    7.1148    7.0258   29.3835 C   0  0  1  0  0  0  0  0  0  0  0  0
    7.1344    6.9016   30.8034 O   0  0  0  0  0  0  0  0  0  0  0  0
    5.6471    8.1434   24.6258 C   0  0  2  0  0  0  0  0  0  0  0  0
    7.0561    8.5882   24.6492 N   0  0  0  0  0  0  0  0  0  0  0  0
    2.2200    1.7001   25.8990 C   0  0  2  0  0  0  0  0  0  0  0  0
    0.8803    1.6233   25.3369 O   0  0  0  0  0  0  0  0  0  0  0  0
   -0.9544   -1.6400   26.2498 C   0  0  1  0  0  0  0  0  0  0  0  0
   -0.7820   -1.7280   27.6626 O   0  0  0  0  0  0  0  0  0  0  0  0
    8.5526    7.3347   28.8962 C   0  0  2  0  0  0  0  0  0  0  0  0
    8.9732    8.5790   29.4472 O   0  0  0  0  0  0  0  0  0  0  0  0
    5.5010    6.6716   25.1556 C   0  0  2  0  0  0  0  0  0  0  0  0
    2.2414    2.6338   27.1174 C   0  0  2  0  0  0  0  0  0  0  0  0
    2.4699    3.9579   26.5973 O   0  0  0  0  0  0  0  0  0  0  0  0
   -2.3941   -1.1140   25.9659 C   0  0  2  0  0  0  0  0  0  0  0  0
   -2.6940   -1.3334   24.5866 O   0  0  0  0  0  0  0  0  0  0  0  0
    8.5983    7.3807   27.3425 C   0  0  2  0  0  0  0  0  0  0  0  0
    8.0545    6.1351   26.8109 O   0  0  0  0  0  0  0  0  0  0  0  0
    4.0826    6.0572   24.8715 C   0  0  2  0  0  0  0  0  0  0  0  0
    4.1605    4.6237   25.0847 O   0  0  0  0  0  0  0  0  0  0  0  0
    3.3353    2.2698   28.1369 C   0  0  0  0  0  0  0  0  0  0  0  0
    2.8942    2.5163   29.4606 O   0  0  0  0  0  0  0  0  0  0  0  0
   -2.5064    0.4043   26.3069 C   0  0  1  0  0  0  0  0  0  0  0  0
   -1.4354    1.1378   25.6381 O   0  0  0  0  0  0  0  0  0  0  0  0
   10.0119    7.5390   26.7394 C   0  0  0  0  0  0  0  0  0  0  0  0
   10.7818    6.3618   26.9160 O   0  0  0  0  0  0  0  0  0  0  0  0
    3.5906    6.3106   23.4126 C   0  0  1  0  0  0  0  0  0  0  0  0
    2.2376    5.8714   23.3015 O   0  0  0  0  0  0  0  0  0  0  0  0
   -3.8710    1.0112   25.8912 C   0  0  0  0  0  0  0  0  0  0  0  0
   -4.8963   -0.0202   25.6507 N   0  0  0  0  0  0  0  0  0  0  0  0
  1  2  1  1  0  0  0
  1  7  1  0  0  0  0
  1 30  1  0  0  0  0
  3  4  1  6  0  0  0
  3  9  1  0  0  0  0
  3 39  1  0  0  0  0
  5 10  1  0  0  0  0
  5 26  1  0  0  0  0
  5 32  1  1  0  0  0
  6 12  1  0  0  0  0
  6 36  1  0  0  0  0
  6 19  1  6  0  0  0
  7  8  1  6  0  0  0
  7 14  1  0  0  0  0
  9 16  1  0  0  0  0
 10 11  1  6  0  0  0
 10 18  1  0  0  0  0
 12 13  1  6  0  0  0
 12 20  1  0  0  0  0
 14 15  1  1  0  0  0
 14 22  1  0  0  0  0
 16 17  1  6  0  0  0
 16 24  1  0  0  0  0
 18 19  1  6  0  0  0
 18 25  1  0  0  0  0
 20 21  1  1  0  0  0
 20 27  1  0  0  0  0
 22 23  1  1  0  0  0
 22 29  1  0  0  0  0
 24  2  1  1  0  0  0
 24 31  1  0  0  0  0
 25 26  1  0  0  0  0
 25 33  1  1  0  0  0
 27 28  1  6  0  0  0
 27 35  1  0  0  0  0
 29 30  1  0  0  0  0
 29 37  1  1  0  0  0
 31 32  1  6  0  0  0
 31 39  1  0  0  0  0
 33 34  1  0  0  0  0
 35 36  1  0  0  0  0
 35 41  1  6  0  0  0
 37 38  1  0  0  0  0
 39 40  1  1  0  0  0
 41 42  1  0  0  0  0
M  END
>  <CHROM.1>
-166.54778963,-129.68928623,-61.65994742,-146.74347700,-62.13540468,21.70663349
-77.12079047,102.52272370,167.95152702,-77.94150605,-172.28740789,-68.43688587
-144.90066105,49.67429976,70.26235766,163.81614864,159.83328838,60.66743864
17.33014862,-58.72216360,65.46224798,-54.97190646,3.36670296,4.04179625,26.13268025
-0.26935622,0.64682819,2.17581503

>  <Name>
1fyp_lig

>  <RI>
0

>  <Rbt.Current_Directory>
/home/itssahil/PROJECTS/Mol_Feturizer/New_Systems/rnas/1fyp

>  <Rbt.Executable>
rbdock ($Id: //depot/dev/client3/rdock/2013.1/src/exe/rbdock.cxx#4 $)

>  <Rbt.Library>
libRbt.so (2013.1, Build901 2013/11/27)

>  <Rbt.Parameter_File>
/export/apps/rDock/src/rDock_2013.1_src/data/scripts/dock_solv.prm

>  <Rbt.Receptor>
prm/pocket_docking_2.prm

>  <SCORE>
-52.654

>  <SCORE.INTER>
-48.6831

>  <SCORE.INTER.CONST>
1

>  <SCORE.INTER.POLAR>
-5.53451

>  <SCORE.INTER.ROT>
14

>  <SCORE.INTER.SOLV>
19.4786

>  <SCORE.INTER.VDW>
-33.4332

>  <SCORE.INTER.norm>
-1.15912

>  <SCORE.INTRA>
-4.20265

>  <SCORE.INTRA.DIHEDRAL>
-19.7558

>  <SCORE.INTRA.DIHEDRAL.0>
48.7173

>  <SCORE.INTRA.POLAR>
0.847161

>  <SCORE.INTRA.POLAR.0>
-1.54691

>  <SCORE.INTRA.REPUL>
0.00637236

>  <SCORE.INTRA.REPUL.0>
0

>  <SCORE.INTRA.SOLV>
-1.95636

>  <SCORE.INTRA.SOLV.lig_0>
-64.052

>  <SCORE.INTRA.VDW>
3.74123

>  <SCORE.INTRA.VDW.0>
-7.0667

>  <SCORE.INTRA.norm>
-0.100063

>  <SCORE.RESTR>
0.231733

>  <SCORE.RESTR.CAVITY>
0.231733

>  <SCORE.RESTR.norm>
0.00551744

>  <SCORE.SYSTEM>
0

>  <SCORE.SYSTEM.CONST>
0

>  <SCORE.SYSTEM.DIHEDRAL>
0

>  <SCORE.SYSTEM.SOLV>
0

>  <SCORE.SYSTEM.norm>
0

>  <SCORE.heavy>
42

>  <SCORE.norm>
-1.25367

>  <RMSD>
1.316

$$$$
1fyp_lig
 OpenBabel11021811393D
libRbt.so/2013.1/901 2013/11/27
 42 45  0  0  0  0  0  0  0  0999 V2000
    6.1115    5.2955   27.3343 C   0  0  2  0  0  0  0  0  0  0  0  0
    5.1886    6.2545   26.7420 O   0  0  0  0  0  0  0  0  0  0  0  0
    3.2430    7.4439   23.1308 C   0  0  2  0  0  0  0  0  0  0  0  0
    2.8419    7.7022   21.7355 N   0  0  0  0  0  0  0  0  0  0  0  0
    2.5410    3.4871   25.6268 C   0  0  1  0  0  0  0  0  0  0  0  0
    0.0745    0.2921   25.4539 C   0  0  1  0  0  0  0  0  0  0  0  0
    6.0949    5.3738   28.8949 C   0  0  2  0  0  0  0  0  0  0  0  0
    4.7151    5.3025   29.4208 N   0  0  0  0  0  0  0  0  0  0  0  0
    4.6744    7.9693   23.3587 C   0  0  0  0  0  0  0  0  0  0  0  0
    2.7094    1.9925   25.3409 C   0  0  2  0  0  0  0  0  0  0  0  0
    2.0334    1.6596   24.1278 O   0  0  0  0  0  0  0  0  0  0  0  0
   -0.7077    0.9482   24.2754 C   0  0  2  0  0  0  0  0  0  0  0  0
   -1.6807    1.9696   24.7338 N   0  0  0  0  0  0  0  0  0  0  0  0
    6.7981    6.6748   29.3940 C   0  0  1  0  0  0  0  0  0  0  0  0
    6.9163    6.6560   30.8143 O   0  0  0  0  0  0  0  0  0  0  0  0
    5.1537    7.7542   24.8203 C   0  0  2  0  0  0  0  0  0  0  0  0
    6.5550    8.2152   24.9083 N   0  0  0  0  0  0  0  0  0  0  0  0
    2.0192    1.3616   26.5533 C   0  0  2  0  0  0  0  0  0  0  0  0
    0.5766    1.2927   26.3777 O   0  0  0  0  0  0  0  0  0  0  0  0
   -1.3981   -0.1378   23.3939 C   0  0  1  0  0  0  0  0  0  0  0  0
   -0.3966   -0.8043   22.6282 O   0  0  0  0  0  0  0  0  0  0  0  0
    8.2131    6.8354   28.7839 C   0  0  2  0  0  0  0  0  0  0  0  0
    8.7614    8.0815   29.2026 O   0  0  0  0  0  0  0  0  0  0  0  0
    5.0088    6.2641   25.2967 C   0  0  2  0  0  0  0  0  0  0  0  0
    2.3799    2.3439   27.6763 C   0  0  2  0  0  0  0  0  0  0  0  0
    2.4738    3.6398   27.0537 O   0  0  0  0  0  0  0  0  0  0  0  0
   -2.1855   -1.2104   24.2060 C   0  0  2  0  0  0  0  0  0  0  0  0
   -3.3815   -0.6122   24.7084 O   0  0  0  0  0  0  0  0  0  0  0  0
    8.1440    6.7615   27.2321 C   0  0  2  0  0  0  0  0  0  0  0  0
    7.4745    5.5250   26.8415 O   0  0  0  0  0  0  0  0  0  0  0  0
    3.6096    5.6421   24.9425 C   0  0  2  0  0  0  0  0  0  0  0  0
    3.6992    4.2035   25.1119 O   0  0  0  0  0  0  0  0  0  0  0  0
    3.7048    1.9970   28.3784 C   0  0  0  0  0  0  0  0  0  0  0  0
    3.5865    0.7915   29.1134 O   0  0  0  0  0  0  0  0  0  0  0  0
   -1.3211   -1.7582   25.3838 C   0  0  1  0  0  0  0  0  0  0  0  0
   -0.8012   -0.6432   26.1706 O   0  0  0  0  0  0  0  0  0  0  0  0
    9.5155    6.7655   26.5208 C   0  0  0  0  0  0  0  0  0  0  0  0
    9.4711    7.5191   25.3209 O   0  0  0  0  0  0  0  0  0  0  0  0
    3.1660    5.9371   23.4760 C   0  0  1  0  0  0  0  0  0  0  0  0
    1.8238    5.4853   23.3026 O   0  0  0  0  0  0  0  0  0  0  0  0
   -2.1149   -2.7085   26.3166 C   0  0  0  0  0  0  0  0  0  0  0  0
   -1.6082   -2.6918   27.7008 N   0  0  0  0  0  0  0  0  0  0  0  0
  1  2  1  6  0  0  0
  1  7  1  0  0  0  0
  1 30  1  0  0  0  0
  3  4  1  6  0  0  0
  3  9  1  0  0  0  0
  3 39  1  0  0  0  0
  5 10  1  0  0  0  0
  5 26  1  0  0  0  0
  5 32  1  1  0  0  0
  6 12  1  0  0  0  0
  6 36  1  0  0  0  0
  6 19  1  1  0  0  0
  7  8  1  6  0  0  0
  7 14  1  0  0  0  0
  9 16  1  0  0  0  0
 10 11  1  6  0  0  0
 10 18  1  0  0  0  0
 12 13  1  1  0  0  0
 12 20  1  0  0  0  0
 14 15  1  1  0  0  0
 14 22  1  0  0  0  0
 16 17  1  6  0  0  0
 16 24  1  0  0  0  0
 18 19  1  6  0  0  0
 18 25  1  0  0  0  0
 20 21  1  1  0  0  0
 20 27  1  0  0  0  0
 22 23  1  6  0  0  0
 22 29  1  0  0  0  0
 24  2  1  1  0  0  0
 24 31  1  0  0  0  0
 25 26  1  0  0  0  0
 25 33  1  6  0  0  0
 27 28  1  1  0  0  0
 27 35  1  0  0  0  0
 29 30  1  0  0  0  0
 29 37  1  6  0  0  0
 31 32  1  6  0  0  0
 31 39  1  0  0  0  0
 33 34  1  0  0  0  0
 35 36  1  0  0  0  0
 35 41  1  1  0  0  0
 37 38  1  0  0  0  0
 39 40  1  1  0  0  0
 41 42  1  0  0  0  0
M  END
>  <CHROM.1>
-176.12857218,-130.79480444,-177.17866778,49.43735576,174.72221754,-83.88271823
-69.85918486,-24.87626049,73.74584699,-119.09017810,-82.51862039,178.06512982
-67.84166897,174.66209369,-142.21208433,143.93500156,163.70628724,-169.90033346
-151.30332432,-35.56166887,-178.86241604,168.67439226,3.17864607,3.68113753
26.01102259,-0.27907555,0.71314154,2.21490447

>  <Name>
1fyp_lig

>  <RI>
0

>  <Rbt.Current_Directory>
/home/itssahil/PROJECTS/Mol_Feturizer/New_Systems/rnas/1fyp

>  <Rbt.Executable>
rbdock ($Id: //depot/dev/client3/rdock/2013.1/src/exe/rbdock.cxx#4 $)

>  <Rbt.Library>
libRbt.so (2013.1, Build901 2013/11/27)

>  <Rbt.Parameter_File>
/export/apps/rDock/src/rDock_2013.1_src/data/scripts/dock_solv.prm

>  <Rbt.Receptor>
prm/pocket_docking_3.prm

>  <SCORE>
-56.351

>  <SCORE.INTER>
-52.8299

>  <SCORE.INTER.CONST>
1

>  <SCORE.INTER.POLAR>
-6.36238

>  <SCORE.INTER.ROT>
14

>  <SCORE.INTER.SOLV>
22.7977

>  <SCORE.INTER.VDW>
-34.5446

>  <SCORE.INTER.norm>
-1.25785

>  <SCORE.INTRA>
-3.52106

>  <SCORE.INTRA.DIHEDRAL>
-12.3563

>  <SCORE.INTRA.DIHEDRAL.0>
48.7173

>  <SCORE.INTRA.POLAR>
0.28659

>  <SCORE.INTRA.POLAR.0>
-1.54691

>  <SCORE.INTRA.REPUL>
0

>  <SCORE.INTRA.REPUL.0>
0

>  <SCORE.INTRA.SOLV>
-1.38135

>  <SCORE.INTRA.SOLV.lig_0>
-64.052

>  <SCORE.INTRA.VDW>
2.37336

>  <SCORE.INTRA.VDW.0>
-7.0667

>  <SCORE.INTRA.norm>
-0.0838349

>  <SCORE.RESTR>
0

>  <SCORE.RESTR.CAVITY>
0

>  <SCORE.RESTR.norm>
0

>  <SCORE.SYSTEM>
0

>  <SCORE.SYSTEM.CONST>
0

>  <SCORE.SYSTEM.DIHEDRAL>
0

>  <SCORE.SYSTEM.SOLV>
0

>  <SCORE.SYSTEM.norm>
0

>  <SCORE.heavy>
42

>  <SCORE.norm>
-1.34169

>  <RMSD>
1.334

$$$$
1fyp_lig
 OpenBabel11021811393D
libRbt.so/2013.1/901 2013/11/27
 42 45  0  0  0  0  0  0  0  0999 V2000
    6.3259    5.2090   27.2612 C   0  0  2  0  0  0  0  0  0  0  0  0
    5.3469    6.1485   26.7310 O   0  0  0  0  0  0  0  0  0  0  0  0
    3.6294    7.8033   23.1880 C   0  0  2  0  0  0  0  0  0  0  0  0
    3.2978    8.2123   21.8106 N   0  0  0  0  0  0  0  0  0  0  0  0
    2.5121    3.7274   25.3149 C   0  0  1  0  0  0  0  0  0  0  0  0
   -0.3437    0.5244   26.5430 C   0  0  1  0  0  0  0  0  0  0  0  0
    6.3563    5.2348   28.8234 C   0  0  2  0  0  0  0  0  0  0  0  0
    4.9980    5.0897   29.3887 N   0  0  0  0  0  0  0  0  0  0  0  0
    5.0921    8.1802   23.4969 C   0  0  0  0  0  0  0  0  0  0  0  0
    2.6802    2.2112   25.1859 C   0  0  2  0  0  0  0  0  0  0  0  0
    2.1558    1.7781   23.9302 O   0  0  0  0  0  0  0  0  0  0  0  0
   -0.1237   -0.7775   25.7137 C   0  0  2  0  0  0  0  0  0  0  0  0
   -0.2424   -0.5513   24.2526 N   0  0  0  0  0  0  0  0  0  0  0  0
    7.0227    6.5463   29.3450 C   0  0  1  0  0  0  0  0  0  0  0  0
    7.1872    6.4852   30.7596 O   0  0  0  0  0  0  0  0  0  0  0  0
    5.5030    7.8018   24.9461 C   0  0  2  0  0  0  0  0  0  0  0  0
    6.9347    8.1292   25.1095 N   0  0  0  0  0  0  0  0  0  0  0  0
    1.8272    1.7008   26.3505 C   0  0  2  0  0  0  0  0  0  0  0  0
    0.4173    1.6337   25.9980 O   0  0  0  0  0  0  0  0  0  0  0  0
   -1.0838   -1.9099   26.1923 C   0  0  1  0  0  0  0  0  0  0  0  0
   -0.6242   -2.3912   27.4535 O   0  0  0  0  0  0  0  0  0  0  0  0
    8.4098    6.7848   28.6976 C   0  0  2  0  0  0  0  0  0  0  0  0
    8.9211    8.0378   29.1419 O   0  0  0  0  0  0  0  0  0  0  0  0
    5.2162    6.2954   25.2878 C   0  0  2  0  0  0  0  0  0  0  0  0
    2.0657    2.7763   27.4196 C   0  0  2  0  0  0  0  0  0  0  0  0
    2.2682    4.0093   26.7023 O   0  0  0  0  0  0  0  0  0  0  0  0
   -2.5678   -1.4605   26.3530 C   0  0  2  0  0  0  0  0  0  0  0  0
   -3.1351   -1.2934   25.0527 O   0  0  0  0  0  0  0  0  0  0  0  0
    8.2939    6.7596   27.1471 C   0  0  2  0  0  0  0  0  0  0  0  0
    7.6621    5.5103   26.7350 O   0  0  0  0  0  0  0  0  0  0  0  0
    3.7815    5.8304   24.8455 C   0  0  2  0  0  0  0  0  0  0  0  0
    3.7427    4.3803   24.8918 O   0  0  0  0  0  0  0  0  0  0  0  0
    3.2824    2.4784   28.3137 C   0  0  0  0  0  0  0  0  0  0  0  0
    3.1091    3.0360   29.6047 O   0  0  0  0  0  0  0  0  0  0  0  0
   -2.6584   -0.1258   27.1561 C   0  0  1  0  0  0  0  0  0  0  0  0
   -1.7710    0.8677   26.5578 O   0  0  0  0  0  0  0  0  0  0  0  0
    9.6406    6.8433   26.3945 C   0  0  0  0  0  0  0  0  0  0  0  0
   10.2646    8.1005   26.5938 O   0  0  0  0  0  0  0  0  0  0  0  0
    3.4131    6.2854   23.3992 C   0  0  1  0  0  0  0  0  0  0  0  0
    2.0438    5.9691   23.1532 O   0  0  0  0  0  0  0  0  0  0  0  0
   -4.0984    0.4463   27.2045 C   0  0  0  0  0  0  0  0  0  0  0  0
   -4.4662    1.1516   25.9635 N   0  0  0  0  0  0  0  0  0  0  0  0
  1  2  1  6  0  0  0
  1  7  1  0  0  0  0
  1 30  1  0  0  0  0
  3  4  1  6  0  0  0
  3  9  1  0  0  0  0
  3 39  1  0  0  0  0
  5 10  1  0  0  0  0
  5 26  1  0  0  0  0
  5 32  1  1  0  0  0
  6 12  1  0  0  0  0
  6 36  1  0  0  0  0
  6 19  1  6  0  0  0
  7  8  1  1  0  0  0
  7 14  1  0  0  0  0
  9 16  1  0  0  0  0
 10 11  1  6  0  0  0
 10 18  1  0  0  0  0
 12 13  1  6  0  0  0
 12 20  1  0  0  0  0
 14 15  1  1  0  0  0
 14 22  1  0  0  0  0
 16 17  1  6  0  0  0
 16 24  1  0  0  0  0
 18 19  1  6  0  0  0
 18 25  1  0  0  0  0
 20 21  1  1  0  0  0
 20 27  1  0  0  0  0
 22 23  1  6  0  0  0
 22 29  1  0  0  0  0
 24  2  1  1  0  0  0
 24 31  1  0  0  0  0
 25 26  1  0  0  0  0
 25 33  1  6  0  0  0
 27 28  1  6  0  0  0
 27 35  1  0  0  0  0
 29 30  1  0  0  0  0
 29 37  1  6  0  0  0
 31 32  1  6  0  0  0
 31 39  1  0  0  0  0
 33 34  1  0  0  0  0
 35 36  1  0  0  0  0
 35 41  1  6  0  0  0
 37 38  1  0  0  0  0
 39 40  1  1  0  0  0
 41 42  1  0  0  0  0
M  END
>  <CHROM.1>
177.73984971,-121.08953544,69.94310905,-164.50559777,174.60555568,-120.42111029
59.47851330,-37.87936121,143.36813048,-80.69455803,62.41327793,60.82202660
-150.96673864,-70.27294274,-66.30034210,143.84386767,175.92877829,-90.73473129
-79.39472258,-168.58143256,74.75614790,-123.72750130,3.15023718,3.89971542
26.30187098,-0.30478899,0.62060749,2.17189383

>  <Name>
1fyp_lig

>  <RI>
0

>  <Rbt.Current_Directory>
/home/itssahil/PROJECTS/Mol_Feturizer/New_Systems/rnas/1fyp

>  <Rbt.Executable>
rbdock ($Id: //depot/dev/client3/rdock/2013.1/src/exe/rbdock.cxx#4 $)

>  <Rbt.Library>
libRbt.so (2013.1, Build901 2013/11/27)

>  <Rbt.Parameter_File>
/export/apps/rDock/src/rDock_2013.1_src/data/scripts/dock_solv.prm

>  <Rbt.Receptor>
prm/pocket_docking_2.prm

>  <SCORE>
-59.3097

>  <SCORE.INTER>
-56.2805

>  <SCORE.INTER.CONST>
1

>  <SCORE.INTER.POLAR>
-6.93847

>  <SCORE.INTER.ROT>
14

>  <SCORE.INTER.SOLV>
17.7179

>  <SCORE.INTER.VDW>
-33.2314

>  <SCORE.INTER.norm>
-1.34001

>  <SCORE.INTRA>
-3.88773

>  <SCORE.INTRA.DIHEDRAL>
-13.882

>  <SCORE.INTRA.DIHEDRAL.0>
48.7173

>  <SCORE.INTRA.POLAR>
0.525746

>  <SCORE.INTRA.POLAR.0>
-1.54691

>  <SCORE.INTRA.REPUL>
0.000933929

>  <SCORE.INTRA.REPUL.0>
0

>  <SCORE.INTRA.SOLV>
0.21486

>  <SCORE.INTRA.SOLV.lig_0>
-64.052

>  <SCORE.INTRA.VDW>
1.15362

>  <SCORE.INTRA.VDW.0>
-7.0667

>  <SCORE.INTRA.norm>
-0.0925651

>  <SCORE.RESTR>
0.858521

>  <SCORE.RESTR.CAVITY>
0.858521

>  <SCORE.RESTR.norm>
0.020441

>  <SCORE.SYSTEM>
0

>  <SCORE.SYSTEM.CONST>
0

>  <SCORE.SYSTEM.DIHEDRAL>
0

>  <SCORE.SYSTEM.SOLV>
0

>  <SCORE.SYSTEM.norm>
0

>  <SCORE.heavy>
42

>  <SCORE.norm>
-1.41214

>  <RMSD>
1.340

$$$$
1fyp_lig
 OpenBabel11021811393D
libRbt.so/2013.1/901 2013/11/27
 42 45  0  0  0  0  0  0  0  0999 V2000
    6.6110    5.8780   27.9093 C   0  0  2  0  0  0  0  0  0  0  0  0
    5.6228    6.7891   27.3477 O   0  0  0  0  0  0  0  0  0  0  0  0
    3.2146    7.5815   23.9106 C   0  0  2  0  0  0  0  0  0  0  0  0
    2.4743    7.5349   22.6362 N   0  0  0  0  0  0  0  0  0  0  0  0
    2.2682    4.4178   26.5235 C   0  0  1  0  0  0  0  0  0  0  0  0
    1.0513    0.6099   25.2386 C   0  0  1  0  0  0  0  0  0  0  0  0
    6.7225    6.0394   29.4597 C   0  0  2  0  0  0  0  0  0  0  0  0
    5.3928    5.9743   30.1026 N   0  0  0  0  0  0  0  0  0  0  0  0
    4.6912    7.2159   23.6596 C   0  0  0  0  0  0  0  0  0  0  0  0
    3.3794    3.5336   25.9515 C   0  0  2  0  0  0  0  0  0  0  0  0
    3.5716    3.8423   24.5705 O   0  0  0  0  0  0  0  0  0  0  0  0
    0.3363    0.1998   23.9150 C   0  0  2  0  0  0  0  0  0  0  0  0
   -0.3020    1.3504   23.2301 N   0  0  0  0  0  0  0  0  0  0  0  0
    7.4380    7.3763   29.8296 C   0  0  1  0  0  0  0  0  0  0  0  0
    7.6742    7.4353   31.2341 O   0  0  0  0  0  0  0  0  0  0  0  0
    5.5396    7.2714   24.9595 C   0  0  2  0  0  0  0  0  0  0  0  0
    6.9088    6.8285   24.6241 N   0  0  0  0  0  0  0  0  0  0  0  0
    2.7889    2.1324   26.1311 C   0  0  2  0  0  0  0  0  0  0  0  0
    1.8778    1.7881   25.0504 O   0  0  0  0  0  0  0  0  0  0  0  0
   -0.6883   -0.9484   24.1697 C   0  0  1  0  0  0  0  0  0  0  0  0
    0.0327   -2.1578   24.3953 O   0  0  0  0  0  0  0  0  0  0  0  0
    8.7940    7.5265   29.0953 C   0  0  2  0  0  0  0  0  0  0  0  0
    9.3496    8.8018   29.4012 O   0  0  0  0  0  0  0  0  0  0  0  0
    4.9278    6.4128   26.1243 C   0  0  2  0  0  0  0  0  0  0  0  0
    2.0264    2.2718   27.4561 C   0  0  2  0  0  0  0  0  0  0  0  0
    1.5730    3.6383   27.5098 O   0  0  0  0  0  0  0  0  0  0  0  0
   -1.6265   -0.7049   25.3905 C   0  0  2  0  0  0  0  0  0  0  0  0
   -2.5793    0.2994   25.0380 O   0  0  0  0  0  0  0  0  0  0  0  0
    8.5977    7.3687   27.5608 C   0  0  2  0  0  0  0  0  0  0  0  0
    7.9234    6.1025   27.2926 O   0  0  0  0  0  0  0  0  0  0  0  0
    3.3846    6.6456   26.3102 C   0  0  2  0  0  0  0  0  0  0  0  0
    2.8667    5.5852   27.1551 O   0  0  0  0  0  0  0  0  0  0  0  0
    2.8934    1.9533   28.6872 C   0  0  0  0  0  0  0  0  0  0  0  0
    3.0274    3.0925   29.5189 O   0  0  0  0  0  0  0  0  0  0  0  0
   -0.8058   -0.2546   26.6388 C   0  0  1  0  0  0  0  0  0  0  0  0
    0.0518    0.8721   26.2815 O   0  0  0  0  0  0  0  0  0  0  0  0
    9.9050    7.3565   26.7375 C   0  0  0  0  0  0  0  0  0  0  0  0
   10.7296    6.2608   27.0967 O   0  0  0  0  0  0  0  0  0  0  0  0
    2.5994    6.6268   24.9620 C   0  0  1  0  0  0  0  0  0  0  0  0
    1.2489    7.0134   25.2117 O   0  0  0  0  0  0  0  0  0  0  0  0
   -1.7075    0.1546   27.8315 C   0  0  0  0  0  0  0  0  0  0  0  0
   -2.7252    1.1514   27.4522 N   0  0  0  0  0  0  0  0  0  0  0  0
  1  2  1  6  0  0  0
  1  7  1  0  0  0  0
  1 30  1  0  0  0  0
  3  4  1  6  0  0  0
  3  9  1  0  0  0  0
  3 39  1  0  0  0  0
  5 10  1  0  0  0  0
  5 26  1  0  0  0  0
  5 32  1  1  0  0  0
  6 12  1  0  0  0  0
  6 36  1  0  0  0  0
  6 19  1  6  0  0  0
  7  8  1  1  0  0  0
  7 14  1  0  0  0  0
  9 16  1  0  0  0  0
 10 11  1  6  0  0  0
 10 18  1  0  0  0  0
 12 13  1  1  0  0  0
 12 20  1  0  0  0  0
 14 15  1  1  0  0  0
 14 22  1  0  0  0  0
 16 17  1  6  0  0  0
 16 24  1  0  0  0  0
 18 19  1  6  0  0  0
 18 25  1  0  0  0  0
 20 21  1  1  0  0  0
 20 27  1  0  0  0  0
 22 23  1  6  0  0  0
 22 29  1  0  0  0  0
 24  2  1  1  0  0  0
 24 31  1  0  0  0  0
 25 26  1  0  0  0  0
 25 33  1  1  0  0  0
 27 28  1  6  0  0  0
 27 35  1  0  0  0  0
 29 30  1  0  0  0  0
 29 37  1  6  0  0  0
 31 32  1  1  0  0  0
 31 39  1  0  0  0  0
 33 34  1  0  0  0  0
 35 36  1  0  0  0  0
 35 41  1  1  0  0  0
 37 38  1  0  0  0  0
 39 40  1  1  0  0  0
 41 42  1  0  0  0  0
M  END
>  <CHROM.1>
-151.70187471,-105.26045991,60.75535701,-163.09268416,66.03327094,171.25639305
60.06238285,-179.75992217,-167.92589271,-168.94790810,174.84801985,-60.04627016
117.21371556,86.98233526,61.95514786,-95.80253400,75.23312348,-170.20666952
-52.31518914,-57.78047939,-55.02574733,-53.93075280,3.49964043,4.26679345
26.53300912,-0.13743898,0.69947788,2.12490359

>  <Name>
1fyp_lig

>  <RI>
0

>  <Rbt.Current_Directory>
/home/itssahil/PROJECTS/Mol_Feturizer/New_Systems/rnas/1fyp

>  <Rbt.Executable>
rbdock ($Id: //depot/dev/client3/rdock/2013.1/src/exe/rbdock.cxx#4 $)

>  <Rbt.Library>
libRbt.so (2013.1, Build901 2013/11/27)

>  <Rbt.Parameter_File>
/export/apps/rDock/src/rDock_2013.1_src/data/scripts/dock_solv.prm

>  <Rbt.Receptor>
prm/pocket_docking_2.prm

>  <SCORE>
-44.91

>  <SCORE.INTER>
-44.5911

>  <SCORE.INTER.CONST>
1

>  <SCORE.INTER.POLAR>
-6.07216

>  <SCORE.INTER.ROT>
14

>  <SCORE.INTER.SOLV>
17.619

>  <SCORE.INTER.VDW>
-28.2932

>  <SCORE.INTER.norm>
-1.06169

>  <SCORE.INTRA>
-2.28256

>  <SCORE.INTRA.DIHEDRAL>
-21.5991

>  <SCORE.INTRA.DIHEDRAL.0>
48.7173

>  <SCORE.INTRA.POLAR>
0.820604

>  <SCORE.INTRA.POLAR.0>
-1.54691

>  <SCORE.INTRA.REPUL>
0.0734193

>  <SCORE.INTRA.REPUL.0>
0

>  <SCORE.INTRA.SOLV>
0.78892

>  <SCORE.INTRA.SOLV.lig_0>
-64.052

>  <SCORE.INTRA.VDW>
4.96536

>  <SCORE.INTRA.VDW.0>
-7.0667

>  <SCORE.INTRA.norm>
-0.0543466

>  <SCORE.RESTR>
1.96367

>  <SCORE.RESTR.CAVITY>
1.96367

>  <SCORE.RESTR.norm>
0.0467539

>  <SCORE.SYSTEM>
0

>  <SCORE.SYSTEM.CONST>
0

>  <SCORE.SYSTEM.DIHEDRAL>
0

>  <SCORE.SYSTEM.SOLV>
0

>  <SCORE.SYSTEM.norm>
0

>  <SCORE.heavy>
42

>  <SCORE.norm>
-1.06928

>  <RMSD>
1.349

$$$$
1fyp_lig
 OpenBabel11021811393D
libRbt.so/2013.1/901 2013/11/27
 42 45  0  0  0  0  0  0  0  0999 V2000
    7.0631    6.6177   26.9885 C   0  0  2  0  0  0  0  0  0  0  0  0
    6.2369    7.6085   26.3116 O   0  0  0  0  0  0  0  0  0  0  0  0
    3.6551    8.0580   22.9392 C   0  0  2  0  0  0  0  0  0  0  0  0
    3.0222    8.0595   21.6074 N   0  0  0  0  0  0  0  0  0  0  0  0
    3.6572    4.2439   25.1009 C   0  0  1  0  0  0  0  0  0  0  0  0
    1.0650    0.6943   25.4533 C   0  0  1  0  0  0  0  0  0  0  0  0
    6.7626    6.5727   28.5214 C   0  0  2  0  0  0  0  0  0  0  0  0
    5.3128    6.4426   28.7801 N   0  0  0  0  0  0  0  0  0  0  0  0
    5.0457    8.7172   22.8470 C   0  0  0  0  0  0  0  0  0  0  0  0
    4.1857    2.8546   25.4675 C   0  0  2  0  0  0  0  0  0  0  0  0
    4.6157    2.1802   24.2844 O   0  0  0  0  0  0  0  0  0  0  0  0
    0.3147    0.0812   24.2317 C   0  0  2  0  0  0  0  0  0  0  0  0
   -0.1244    1.1088   23.2563 N   0  0  0  0  0  0  0  0  0  0  0  0
    7.3287    7.8393   29.2364 C   0  0  1  0  0  0  0  0  0  0  0  0
    7.1888    7.7102   30.6491 O   0  0  0  0  0  0  0  0  0  0  0  0
    5.7615    8.7747   24.2243 C   0  0  2  0  0  0  0  0  0  0  0  0
    7.1074    9.3459   24.0101 N   0  0  0  0  0  0  0  0  0  0  0  0
    2.9403    2.1926   26.0634 C   0  0  2  0  0  0  0  0  0  0  0  0
    2.0691    1.6533   25.0306 O   0  0  0  0  0  0  0  0  0  0  0  0
   -0.8813   -0.8033   24.7010 C   0  0  1  0  0  0  0  0  0  0  0  0
   -0.3627   -2.0130   25.2500 O   0  0  0  0  0  0  0  0  0  0  0  0
    8.8258    8.0656   28.9083 C   0  0  2  0  0  0  0  0  0  0  0  0
    9.2556    9.2818   29.5123 O   0  0  0  0  0  0  0  0  0  0  0  0
    5.8385    7.3734   24.9305 C   0  0  2  0  0  0  0  0  0  0  0  0
    2.2630    3.3684   26.7811 C   0  0  2  0  0  0  0  0  0  0  0  0
    2.5846    4.5416   26.0090 O   0  0  0  0  0  0  0  0  0  0  0  0
   -1.7880   -0.1296   25.7752 C   0  0  2  0  0  0  0  0  0  0  0  0
   -2.5657    0.8867   25.1404 O   0  0  0  0  0  0  0  0  0  0  0  0
    9.0403    8.1132   27.3688 C   0  0  2  0  0  0  0  0  0  0  0  0
    8.4860    6.9027   26.7711 O   0  0  0  0  0  0  0  0  0  0  0  0
    4.4698    6.6013   24.9083 C   0  0  2  0  0  0  0  0  0  0  0  0
    4.7255    5.2188   25.2687 O   0  0  0  0  0  0  0  0  0  0  0  0
    2.7401    3.5439   28.2337 C   0  0  0  0  0  0  0  0  0  0  0  0
    1.9097    4.4556   28.9314 O   0  0  0  0  0  0  0  0  0  0  0  0
   -0.9258    0.4877   26.9197 C   0  0  1  0  0  0  0  0  0  0  0  0
    0.1034    1.3511   26.3473 O   0  0  0  0  0  0  0  0  0  0  0  0
   10.5172    8.1907   26.9217 C   0  0  0  0  0  0  0  0  0  0  0  0
   11.0857    9.4500   27.2387 O   0  0  0  0  0  0  0  0  0  0  0  0
    3.7805    6.6243   23.5087 C   0  0  1  0  0  0  0  0  0  0  0  0
    2.4787    6.0528   23.6284 O   0  0  0  0  0  0  0  0  0  0  0  0
   -1.7700    1.3078   27.9286 C   0  0  0  0  0  0  0  0  0  0  0  0
   -0.9854    1.7398   29.0994 N   0  0  0  0  0  0  0  0  0  0  0  0
  1  2  1  6  0  0  0
  1  7  1  0  0  0  0
  1 30  1  0  0  0  0
  3  4  1  6  0  0  0
  3  9  1  0  0  0  0
  3 39  1  0  0  0  0
  5 10  1  0  0  0  0
  5 26  1  0  0  0  0
  5 32  1  1  0  0  0
  6 12  1  0  0  0  0
  6 36  1  0  0  0  0
  6 19  1  6  0  0  0
  7  8  1  6  0  0  0
  7 14  1  0  0  0  0
  9 16  1  0  0  0  0
 10 11  1  6  0  0  0
 10 18  1  0  0  0  0
 12 13  1  6  0  0  0
 12 20  1  0  0  0  0
 14 15  1  1  0  0  0
 14 22  1  0  0  0  0
 16 17  1  6  0  0  0
 16 24  1  0  0  0  0
 18 19  1  6  0  0  0
 18 25  1  0  0  0  0
 20 21  1  1  0  0  0
 20 27  1  0  0  0  0
 22 23  1  1  0  0  0
 22 29  1  0  0  0  0
 24  2  1  1  0  0  0
 24 31  1  0  0  0  0
 25 26  1  0  0  0  0
 25 33  1  1  0  0  0
 27 28  1  6  0  0  0
 27 35  1  0  0  0  0
 29 30  1  0  0  0  0
 29 37  1  1  0  0  0
 31 32  1  6  0  0  0
 31 39  1  0  0  0  0
 33 34  1  0  0  0  0
 35 36  1  0  0  0  0
 35 41  1  1  0  0  0
 37 38  1  0  0  0  0
 39 40  1  1  0  0  0
 41 42  1  0  0  0  0
M  END
>  <CHROM.1>
-148.70105829,-146.91500761,-177.15658365,-86.03499067,92.30772843,69.34144866
177.91363400,59.97064021,163.45700634,-173.56183227,-49.66614256,-61.41709936
-168.39236299,-49.97330417,-69.84617158,-169.67804851,176.77709868,169.79107481
172.49821696,-176.03813881,72.76031271,-43.68942553,3.86098806,4.80748306
26.09066040,-0.14215669,0.73280599,1.95782494

>  <Name>
1fyp_lig

>  <RI>
0

>  <Rbt.Current_Directory>
/home/itssahil/PROJECTS/Mol_Feturizer/New_Systems/rnas/1fyp

>  <Rbt.Executable>
rbdock ($Id: //depot/dev/client3/rdock/2013.1/src/exe/rbdock.cxx#4 $)

>  <Rbt.Library>
libRbt.so (2013.1, Build901 2013/11/27)

>  <Rbt.Parameter_File>
/export/apps/rDock/src/rDock_2013.1_src/data/scripts/dock_solv.prm

>  <Rbt.Receptor>
prm/pocket_docking_6.prm

>  <SCORE>
-70.5112

>  <SCORE.INTER>
-61.1858

>  <SCORE.INTER.CONST>
1

>  <SCORE.INTER.POLAR>
-8.27785

>  <SCORE.INTER.ROT>
14

>  <SCORE.INTER.SOLV>
18.3047

>  <SCORE.INTER.VDW>
-32.2326

>  <SCORE.INTER.norm>
-1.45681

>  <SCORE.INTRA>
-9.38125

>  <SCORE.INTRA.DIHEDRAL>
-29.2185

>  <SCORE.INTRA.DIHEDRAL.0>
48.7173

>  <SCORE.INTRA.POLAR>
1.00644

>  <SCORE.INTRA.POLAR.0>
-1.54691

>  <SCORE.INTRA.REPUL>
0

>  <SCORE.INTRA.REPUL.0>
0

>  <SCORE.INTRA.SOLV>
-2.62607

>  <SCORE.INTRA.SOLV.lig_0>
-64.052

>  <SCORE.INTRA.VDW>
3.11913

>  <SCORE.INTRA.VDW.0>
-7.0667

>  <SCORE.INTRA.norm>
-0.223363

>  <SCORE.RESTR>
0.0559082

>  <SCORE.RESTR.CAVITY>
0.0559082

>  <SCORE.RESTR.norm>
0.00133115

>  <SCORE.SYSTEM>
0

>  <SCORE.SYSTEM.CONST>
0

>  <SCORE.SYSTEM.DIHEDRAL>
0

>  <SCORE.SYSTEM.SOLV>
0

>  <SCORE.SYSTEM.norm>
0

>  <SCORE.heavy>
42

>  <SCORE.norm>
-1.67884

>  <RMSD>
1.354

$$$$
1fyp_lig
 OpenBabel11021811393D
libRbt.so/2013.1/901 2013/11/27
 42 45  0  0  0  0  0  0  0  0999 V2000
    7.3675    6.1205   27.0666 C   0  0  2  0  0  0  0  0  0  0  0  0
    6.2419    6.9075   26.5807 O   0  0  0  0  0  0  0  0  0  0  0  0
    4.0130    8.0775   23.1305 C   0  0  2  0  0  0  0  0  0  0  0  0
    3.4771    8.2906   21.7734 N   0  0  0  0  0  0  0  0  0  0  0  0
    3.0733    4.3127   25.5471 C   0  0  1  0  0  0  0  0  0  0  0  0
   -0.0041    1.1804   26.3427 C   0  0  1  0  0  0  0  0  0  0  0  0
    7.1873    5.7309   28.5692 C   0  0  2  0  0  0  0  0  0  0  0  0
    5.8626    5.1204   28.8098 N   0  0  0  0  0  0  0  0  0  0  0  0
    5.5084    8.4519   23.1561 C   0  0  0  0  0  0  0  0  0  0  0  0
    3.2085    2.7976   25.3744 C   0  0  2  0  0  0  0  0  0  0  0  0
    2.8129    2.4309   24.0521 O   0  0  0  0  0  0  0  0  0  0  0  0
    0.4876   -0.1883   25.7805 C   0  0  2  0  0  0  0  0  0  0  0  0
    0.8011   -0.1316   24.3318 N   0  0  0  0  0  0  0  0  0  0  0  0
    7.3872    6.9726   29.4935 C   0  0  1  0  0  0  0  0  0  0  0  0
    7.3780    6.5736   30.8618 O   0  0  0  0  0  0  0  0  0  0  0  0
    6.1341    8.2771   24.5668 C   0  0  2  0  0  0  0  0  0  0  0  0
    7.5762    8.5822   24.4621 N   0  0  0  0  0  0  0  0  0  0  0  0
    2.2171    2.2735   26.4169 C   0  0  2  0  0  0  0  0  0  0  0  0
    0.8533    2.2688   25.9103 O   0  0  0  0  0  0  0  0  0  0  0  0
   -0.5395   -1.3193   26.0948 C   0  0  1  0  0  0  0  0  0  0  0  0
   -0.4612   -1.6296   27.4845 O   0  0  0  0  0  0  0  0  0  0  0  0
    8.7239    7.6993   29.2012 C   0  0  2  0  0  0  0  0  0  0  0  0
    8.8027    8.8704   30.0081 O   0  0  0  0  0  0  0  0  0  0  0  0
    5.8925    6.8459   25.1681 C   0  0  2  0  0  0  0  0  0  0  0  0
    2.3688    3.2987   27.5493 C   0  0  2  0  0  0  0  0  0  0  0  0
    2.6865    4.5502   26.9101 O   0  0  0  0  0  0  0  0  0  0  0  0
   -2.0162   -0.9490   25.7602 C   0  0  2  0  0  0  0  0  0  0  0  0
   -2.1772   -0.9614   24.3408 O   0  0  0  0  0  0  0  0  0  0  0  0
    8.8211    8.0660   27.6932 C   0  0  2  0  0  0  0  0  0  0  0  0
    8.6225    6.8610   26.8942 O   0  0  0  0  0  0  0  0  0  0  0  0
    4.4038    6.3640   25.0212 C   0  0  2  0  0  0  0  0  0  0  0  0
    4.3624    4.9380   25.2881 O   0  0  0  0  0  0  0  0  0  0  0  0
    3.4698    2.9250   28.5576 C   0  0  0  0  0  0  0  0  0  0  0  0
    3.2269    1.6476   29.1204 O   0  0  0  0  0  0  0  0  0  0  0  0
   -2.3776    0.4574   26.3311 C   0  0  1  0  0  0  0  0  0  0  0  0
   -1.3806    1.4331   25.8992 O   0  0  0  0  0  0  0  0  0  0  0  0
   10.1762    8.6670   27.2577 C   0  0  0  0  0  0  0  0  0  0  0  0
   10.0131    9.5844   26.1894 O   0  0  0  0  0  0  0  0  0  0  0  0
    3.8211    6.6138   23.5954 C   0  0  1  0  0  0  0  0  0  0  0  0
    2.4280    6.3057   23.6083 O   0  0  0  0  0  0  0  0  0  0  0  0
   -3.7825    0.9399   25.8876 C   0  0  0  0  0  0  0  0  0  0  0  0
   -4.8524    0.0136   26.3003 N   0  0  0  0  0  0  0  0  0  0  0  0
  1  2  1  1  0  0  0
  1  7  1  0  0  0  0
  1 30  1  0  0  0  0
  3  4  1  6  0  0  0
  3  9  1  0  0  0  0
  3 39  1  0  0  0  0
  5 10  1  0  0  0  0
  5 26  1  0  0  0  0
  5 32  1  1  0  0  0
  6 12  1  0  0  0  0
  6 36  1  0  0  0  0
  6 19  1  6  0  0  0
  7  8  1  6  0  0  0
  7 14  1  0  0  0  0
  9 16  1  0  0  0  0
 10 11  1  6  0  0  0
 10 18  1  0  0  0  0
 12 13  1  6  0  0  0
 12 20  1  0  0  0  0
 14 15  1  1  0  0  0
 14 22  1  0  0  0  0
 16 17  1  6  0  0  0
 16 24  1  0  0  0  0
 18 19  1  6  0  0  0
 18 25  1  0  0  0  0
 20 21  1  1  0  0  0
 20 27  1  0  0  0  0
 22 23  1  1  0  0  0
 22 29  1  0  0  0  0
 24  2  1  1  0  0  0
 24 31  1  0  0  0  0
 25 26  1  0  0  0  0
 25 33  1  1  0  0  0
 27 28  1  6  0  0  0
 27 35  1  0  0  0  0
 29 30  1  0  0  0  0
 29 37  1  1  0  0  0
 31 32  1  6  0  0  0
 31 39  1  0  0  0  0
 33 34  1  0  0  0  0
 35 36  1  0  0  0  0
 35 41  1  6  0  0  0
 37 38  1  0  0  0  0
 39 40  1  1  0  0  0
 41 42  1  0  0  0  0
M  END
>  <CHROM.1>
-151.74887557,-115.33474969,-47.25935485,-46.24034137,-59.09005442,67.12043527
64.46503260,-152.46009173,144.49487089,-66.41942408,56.72925995,68.21090788
-57.19837246,176.86458299,-148.86191297,164.75219717,162.85502224,-175.90317072
58.67572825,61.93010119,156.54213588,-48.61331851,3.60970833,4.39884639,26.25487572
-0.28448053,0.65698014,2.16222343

>  <Name>
1fyp_lig

>  <RI>
0

>  <Rbt.Current_Directory>
/home/itssahil/PROJECTS/Mol_Feturizer/New_Systems/rnas/1fyp

>  <Rbt.Executable>
rbdock ($Id: //depot/dev/client3/rdock/2013.1/src/exe/rbdock.cxx#4 $)

>  <Rbt.Library>
libRbt.so (2013.1, Build901 2013/11/27)

>  <Rbt.Parameter_File>
/export/apps/rDock/src/rDock_2013.1_src/data/scripts/dock_solv.prm

>  <Rbt.Receptor>
prm/pocket_docking_4.prm

>  <SCORE>
-49.0379

>  <SCORE.INTER>
-41.969

>  <SCORE.INTER.CONST>
1

>  <SCORE.INTER.POLAR>
-4.67469

>  <SCORE.INTER.ROT>
14

>  <SCORE.INTER.SOLV>
14.4284

>  <SCORE.INTER.VDW>
-30.1398

>  <SCORE.INTER.norm>
-0.999262

>  <SCORE.INTRA>
-7.06886

>  <SCORE.INTRA.DIHEDRAL>
-23.1685

>  <SCORE.INTRA.DIHEDRAL.0>
48.7173

>  <SCORE.INTRA.POLAR>
0.684482

>  <SCORE.INTRA.POLAR.0>
-1.54691

>  <SCORE.INTRA.REPUL>
0

>  <SCORE.INTRA.REPUL.0>
0

>  <SCORE.INTRA.SOLV>
-1.06227

>  <SCORE.INTRA.SOLV.lig_0>
-64.052

>  <SCORE.INTRA.VDW>
2.71926

>  <SCORE.INTRA.VDW.0>
-7.0667

>  <SCORE.INTRA.norm>
-0.168306

>  <SCORE.RESTR>
0

>  <SCORE.RESTR.CAVITY>
0

>  <SCORE.RESTR.norm>
0

>  <SCORE.SYSTEM>
0

>  <SCORE.SYSTEM.CONST>
0

>  <SCORE.SYSTEM.DIHEDRAL>
0

>  <SCORE.SYSTEM.SOLV>
0

>  <SCORE.SYSTEM.norm>
0

>  <SCORE.heavy>
42

>  <SCORE.norm>
-1.16757

>  <RMSD>
1.372

$$$$
1fyp_lig
 OpenBabel11021811393D
libRbt.so/2013.1/901 2013/11/27
 42 45  0  0  0  0  0  0  0  0999 V2000
    6.4178    5.4238   27.1317 C   0  0  2  0  0  0  0  0  0  0  0  0
    5.5221    6.4350   26.5862 O   0  0  0  0  0  0  0  0  0  0  0  0
    3.8058    8.0380   23.0189 C   0  0  2  0  0  0  0  0  0  0  0  0
    3.4724    8.4235   21.6352 N   0  0  0  0  0  0  0  0  0  0  0  0
    2.6823    4.0181   25.2977 C   0  0  1  0  0  0  0  0  0  0  0  0
   -0.3070    0.9282   26.4642 C   0  0  1  0  0  0  0  0  0  0  0  0
    6.1655    5.1986   28.6574 C   0  0  2  0  0  0  0  0  0  0  0  0
    4.7327    4.9630   28.9350 N   0  0  0  0  0  0  0  0  0  0  0  0
    5.2735    8.4060   23.3144 C   0  0  0  0  0  0  0  0  0  0  0  0
    2.6194    2.5740   24.7934 C   0  0  2  0  0  0  0  0  0  0  0  0
    1.8232    2.5164   23.6092 O   0  0  0  0  0  0  0  0  0  0  0  0
    0.1241   -0.4525   25.8819 C   0  0  2  0  0  0  0  0  0  0  0  0
    0.2611   -0.4323   24.4051 N   0  0  0  0  0  0  0  0  0  0  0  0
    6.6867    6.4103   29.4919 C   0  0  1  0  0  0  0  0  0  0  0  0
    6.5955    6.1232   30.8851 O   0  0  0  0  0  0  0  0  0  0  0  0
    5.6870    8.0516   24.7690 C   0  0  2  0  0  0  0  0  0  0  0  0
    7.1226    8.3677   24.9199 N   0  0  0  0  0  0  0  0  0  0  0  0
    1.9305    1.8635   25.9617 C   0  0  2  0  0  0  0  0  0  0  0  0
    0.4841    2.0087   25.9045 O   0  0  0  0  0  0  0  0  0  0  0  0
   -0.8493   -1.5796   26.3459 C   0  0  1  0  0  0  0  0  0  0  0  0
   -0.6026   -1.8531   27.7235 O   0  0  0  0  0  0  0  0  0  0  0  0
    8.1598    6.7513   29.1546 C   0  0  2  0  0  0  0  0  0  0  0  0
    8.5443    7.9174   29.8765 O   0  0  0  0  0  0  0  0  0  0  0  0
    5.3866    6.5551   25.1410 C   0  0  2  0  0  0  0  0  0  0  0  0
    2.5005    2.6120   27.1747 C   0  0  2  0  0  0  0  0  0  0  0  0
    2.7334    3.9632   26.7323 O   0  0  0  0  0  0  0  0  0  0  0  0
   -2.3583   -1.2247   26.1818 C   0  0  2  0  0  0  0  0  0  0  0  0
   -2.6882   -1.2749   24.7928 O   0  0  0  0  0  0  0  0  0  0  0  0
    8.3259    6.9751   27.6247 C   0  0  2  0  0  0  0  0  0  0  0  0
    7.8171    5.8073   26.9126 O   0  0  0  0  0  0  0  0  0  0  0  0
    3.9454    6.0961   24.7139 C   0  0  2  0  0  0  0  0  0  0  0  0
    3.8923    4.6477   24.7885 O   0  0  0  0  0  0  0  0  0  0  0  0
    3.8078    1.9957   27.7037 C   0  0  0  0  0  0  0  0  0  0  0  0
    3.5959    0.6676   28.1497 O   0  0  0  0  0  0  0  0  0  0  0  0
   -2.6593    0.1944   26.7561 C   0  0  1  0  0  0  0  0  0  0  0  0
   -1.7287    1.1630   26.1830 O   0  0  0  0  0  0  0  0  0  0  0  0
    9.7830    7.1801   27.1535 C   0  0  0  0  0  0  0  0  0  0  0  0
    9.8653    7.2249   25.7391 O   0  0  0  0  0  0  0  0  0  0  0  0
    3.5753    6.5267   23.2606 C   0  0  1  0  0  0  0  0  0  0  0  0
    2.2018    6.2195   23.0264 O   0  0  0  0  0  0  0  0  0  0  0  0
   -4.1108    0.6589   26.4724 C   0  0  0  0  0  0  0  0  0  0  0  0
   -4.3126    1.0485   25.0651 N   0  0  0  0  0  0  0  0  0  0  0  0
  1  2  1  1  0  0  0
  1  7  1  0  0  0  0
  1 30  1  0  0  0  0
  3  4  1  6  0  0  0
  3  9  1  0  0  0  0
  3 39  1  0  0  0  0
  5 10  1  0  0  0  0
  5 26  1  0  0  0  0
  5 32  1  6  0  0  0
  6 12  1  0  0  0  0
  6 36  1  0  0  0  0
  6 19  1  6  0  0  0
  7  8  1  6  0  0  0
  7 14  1  0  0  0  0
  9 16  1  0  0  0  0
 10 11  1  6  0  0  0
 10 18  1  0  0  0  0
 12 13  1  6  0  0  0
 12 20  1  0  0  0  0
 14 15  1  1  0  0  0
 14 22  1  0  0  0  0
 16 17  1  6  0  0  0
 16 24  1  0  0  0  0
 18 19  1  6  0  0  0
 18 25  1  0  0  0  0
 20 21  1  1  0  0  0
 20 27  1  0  0  0  0
 22 23  1  1  0  0  0
 22 29  1  0  0  0  0
 24  2  1  1  0  0  0
 24 31  1  0  0  0  0
 25 26  1  0  0  0  0
 25 33  1  6  0  0  0
 27 28  1  6  0  0  0
 27 35  1  0  0  0  0
 29 30  1  0  0  0  0
 29 37  1  1  0  0  0
 31 32  1  6  0  0  0
 31 39  1  0  0  0  0
 33 34  1  0  0  0  0
 35 36  1  0  0  0  0
 35 41  1  6  0  0  0
 37 38  1  0  0  0  0
 39 40  1  1  0  0  0
 41 42  1  0  0  0  0
M  END
>  <CHROM.1>
-165.57471033,-125.81724940,-44.67749701,27.74690824,170.58698131,39.61157752
62.21282020,-28.31842282,149.98322487,-51.80545343,-171.31494611,-178.72024155
-62.00516740,-38.08686109,173.34566546,140.57561122,158.06521135,-56.69909631
-74.20896929,49.99835902,178.97269935,163.04139531,3.23708055,3.96399476
26.14817786,-0.33814398,0.61550234,2.24087534

>  <Name>
1fyp_lig

>  <RI>
0

>  <Rbt.Current_Directory>
/home/itssahil/PROJECTS/Mol_Feturizer/New_Systems/rnas/1fyp

>  <Rbt.Executable>
rbdock ($Id: //depot/dev/client3/rdock/2013.1/src/exe/rbdock.cxx#4 $)

>  <Rbt.Library>
libRbt.so (2013.1, Build901 2013/11/27)

>  <Rbt.Parameter_File>
/export/apps/rDock/src/rDock_2013.1_src/data/scripts/dock_solv.prm

>  <Rbt.Receptor>
prm/pocket_docking_2.prm

>  <SCORE>
-56.8473

>  <SCORE.INTER>
-43.6726

>  <SCORE.INTER.CONST>
1

>  <SCORE.INTER.POLAR>
-4.65472

>  <SCORE.INTER.ROT>
14

>  <SCORE.INTER.SOLV>
19.3876

>  <SCORE.INTER.VDW>
-32.9952

>  <SCORE.INTER.norm>
-1.03982

>  <SCORE.INTRA>
-14.14

>  <SCORE.INTRA.DIHEDRAL>
-20.6219

>  <SCORE.INTRA.DIHEDRAL.0>
48.7173

>  <SCORE.INTRA.POLAR>
-1.70561

>  <SCORE.INTRA.POLAR.0>
-1.54691

>  <SCORE.INTRA.REPUL>
0

>  <SCORE.INTRA.REPUL.0>
0

>  <SCORE.INTRA.SOLV>
-0.53139

>  <SCORE.INTRA.SOLV.lig_0>
-64.052

>  <SCORE.INTRA.VDW>
2.23569

>  <SCORE.INTRA.VDW.0>
-7.0667

>  <SCORE.INTRA.norm>
-0.336667

>  <SCORE.RESTR>
0.965281

>  <SCORE.RESTR.CAVITY>
0.965281

>  <SCORE.RESTR.norm>
0.0229829

>  <SCORE.SYSTEM>
0

>  <SCORE.SYSTEM.CONST>
0

>  <SCORE.SYSTEM.DIHEDRAL>
0

>  <SCORE.SYSTEM.SOLV>
0

>  <SCORE.SYSTEM.norm>
0

>  <SCORE.heavy>
42

>  <SCORE.norm>
-1.35351

>  <RMSD>
1.417

$$$$
1fyp_lig
 OpenBabel11021811393D
libRbt.so/2013.1/901 2013/11/27
 42 45  0  0  0  0  0  0  0  0999 V2000
    6.2561    5.5162   27.2224 C   0  0  2  0  0  0  0  0  0  0  0  0
    5.2441    6.4156   26.6845 O   0  0  0  0  0  0  0  0  0  0  0  0
    3.2961    7.7867   23.1396 C   0  0  2  0  0  0  0  0  0  0  0  0
    2.8868    8.1033   21.7588 N   0  0  0  0  0  0  0  0  0  0  0  0
    2.4343    3.7621   25.3395 C   0  0  1  0  0  0  0  0  0  0  0  0
   -0.4103    0.4857   26.3589 C   0  0  1  0  0  0  0  0  0  0  0  0
    6.3046    5.5771   28.7832 C   0  0  2  0  0  0  0  0  0  0  0  0
    4.9580    5.4057   29.3687 N   0  0  0  0  0  0  0  0  0  0  0  0
    4.7479    8.2545   23.3643 C   0  0  0  0  0  0  0  0  0  0  0  0
    2.6554    2.2600   25.1436 C   0  0  2  0  0  0  0  0  0  0  0  0
    2.2058    1.8771   23.8433 O   0  0  0  0  0  0  0  0  0  0  0  0
    0.0772   -0.8924   25.8163 C   0  0  2  0  0  0  0  0  0  0  0  0
    0.2712   -0.8914   24.3457 N   0  0  0  0  0  0  0  0  0  0  0  0
    6.9392    6.9181   29.2679 C   0  0  1  0  0  0  0  0  0  0  0  0
    7.1225    6.8928   30.6812 O   0  0  0  0  0  0  0  0  0  0  0  0
    5.2377    7.9762   24.8117 C   0  0  2  0  0  0  0  0  0  0  0  0
    6.6553    8.3852   24.8950 N   0  0  0  0  0  0  0  0  0  0  0  0
    1.7634    1.6664   26.2374 C   0  0  2  0  0  0  0  0  0  0  0  0
    0.3749    1.5773   25.8124 O   0  0  0  0  0  0  0  0  0  0  0  0
   -0.8852   -2.0365   26.2609 C   0  0  1  0  0  0  0  0  0  0  0  0
   -0.6856   -2.2824   27.6513 O   0  0  0  0  0  0  0  0  0  0  0  0
    8.3110    7.1819   28.5979 C   0  0  2  0  0  0  0  0  0  0  0  0
    8.7913    8.4584   29.0086 O   0  0  0  0  0  0  0  0  0  0  0  0
    5.0465    6.4776   25.2428 C   0  0  2  0  0  0  0  0  0  0  0  0
    1.9166    2.6919   27.3693 C   0  0  2  0  0  0  0  0  0  0  0  0
    2.1151    3.9654   26.7254 O   0  0  0  0  0  0  0  0  0  0  0  0
   -2.3950   -1.7227   26.0329 C   0  0  2  0  0  0  0  0  0  0  0  0
   -2.6692   -1.8027   24.6332 O   0  0  0  0  0  0  0  0  0  0  0  0
    8.1771    7.1195   27.0499 C   0  0  2  0  0  0  0  0  0  0  0  0
    7.5765    5.8439   26.6728 O   0  0  0  0  0  0  0  0  0  0  0  0
    3.6220    5.9163   24.8884 C   0  0  2  0  0  0  0  0  0  0  0  0
    3.6630    4.4707   25.0112 O   0  0  0  0  0  0  0  0  0  0  0  0
    3.0975    2.3834   28.3069 C   0  0  0  0  0  0  0  0  0  0  0  0
    3.2084    3.3676   29.3202 O   0  0  0  0  0  0  0  0  0  0  0  0
   -2.7532   -0.3030   26.5718 C   0  0  1  0  0  0  0  0  0  0  0  0
   -1.8253    0.6800   26.0192 O   0  0  0  0  0  0  0  0  0  0  0  0
    9.5116    7.2251   26.2786 C   0  0  0  0  0  0  0  0  0  0  0  0
   10.5152    6.4198   26.8733 O   0  0  0  0  0  0  0  0  0  0  0  0
    3.1705    6.2733   23.4382 C   0  0  1  0  0  0  0  0  0  0  0  0
    1.8112    5.8741   23.2690 O   0  0  0  0  0  0  0  0  0  0  0  0
   -4.2037    0.1200   26.2248 C   0  0  0  0  0  0  0  0  0  0  0  0
   -4.2613    1.4233   25.5384 N   0  0  0  0  0  0  0  0  0  0  0  0
  1  2  1  6  0  0  0
  1  7  1  0  0  0  0
  1 30  1  0  0  0  0
  3  4  1  6  0  0  0
  3  9  1  0  0  0  0
  3 39  1  0  0  0  0
  5 10  1  0  0  0  0
  5 26  1  0  0  0  0
  5 32  1  1  0  0  0
  6 12  1  0  0  0  0
  6 36  1  0  0  0  0
  6 19  1  6  0  0  0
  7  8  1  1  0  0  0
  7 14  1  0  0  0  0
  9 16  1  0  0  0  0
 10 11  1  6  0  0  0
 10 18  1  0  0  0  0
 12 13  1  6  0  0  0
 12 20  1  0  0  0  0
 14 15  1  1  0  0  0
 14 22  1  0  0  0  0
 16 17  1  6  0  0  0
 16 24  1  0  0  0  0
 18 19  1  6  0  0  0
 18 25  1  0  0  0  0
 20 21  1  1  0  0  0
 20 27  1  0  0  0  0
 22 23  1  6  0  0  0
 22 29  1  0  0  0  0
 24  2  1  1  0  0  0
 24 31  1  0  0  0  0
 25 26  1  0  0  0  0
 25 33  1  1  0  0  0
 27 28  1  6  0  0  0
 27 35  1  0  0  0  0
 29 30  1  0  0  0  0
 29 37  1  6  0  0  0
 31 32  1  6  0  0  0
 31 39  1  0  0  0  0
 33 34  1  0  0  0  0
 35 36  1  0  0  0  0
 35 41  1  6  0  0  0
 37 38  1  0  0  0  0
 39 40  1  1  0  0  0
 41 42  1  0  0  0  0
M  END
>  <CHROM.1>
-179.24422119,-123.59291550,73.32177557,59.47504126,176.09763786,36.68930096
62.77518560,147.83238530,148.72347151,-68.26226333,-176.76761428,56.41889776
179.11558445,65.38910114,43.98980462,152.36867189,168.93548027,65.47280069
-126.33958737,72.12127693,-67.49529507,-100.83921683,3.09686213,3.91367220
26.20178414,-0.34343168,0.63538755,2.26133026

>  <Name>
1fyp_lig

>  <RI>
0

>  <Rbt.Current_Directory>
/home/itssahil/PROJECTS/Mol_Feturizer/New_Systems/rnas/1fyp

>  <Rbt.Executable>
rbdock ($Id: //depot/dev/client3/rdock/2013.1/src/exe/rbdock.cxx#4 $)

>  <Rbt.Library>
libRbt.so (2013.1, Build901 2013/11/27)

>  <Rbt.Parameter_File>
/export/apps/rDock/src/rDock_2013.1_src/data/scripts/dock_solv.prm

>  <Rbt.Receptor>
prm/pocket_docking_2.prm

>  <SCORE>
-53.7157

>  <SCORE.INTER>
-47.7732

>  <SCORE.INTER.CONST>
1

>  <SCORE.INTER.POLAR>
-5.44211

>  <SCORE.INTER.ROT>
14

>  <SCORE.INTER.SOLV>
20.8094

>  <SCORE.INTER.VDW>
-33.5782

>  <SCORE.INTER.norm>
-1.13746

>  <SCORE.INTRA>
-7.10755

>  <SCORE.INTRA.DIHEDRAL>
-21.472

>  <SCORE.INTRA.DIHEDRAL.0>
48.7173

>  <SCORE.INTRA.POLAR>
0.60288

>  <SCORE.INTRA.POLAR.0>
-1.54691

>  <SCORE.INTRA.REPUL>
0

>  <SCORE.INTRA.REPUL.0>
0

>  <SCORE.INTRA.SOLV>
-0.238326

>  <SCORE.INTRA.SOLV.lig_0>
-64.052

>  <SCORE.INTRA.VDW>
1.69783

>  <SCORE.INTRA.VDW.0>
-7.0667

>  <SCORE.INTRA.norm>
-0.169227

>  <SCORE.RESTR>
1.16507

>  <SCORE.RESTR.CAVITY>
1.16507

>  <SCORE.RESTR.norm>
0.0277396

>  <SCORE.SYSTEM>
0

>  <SCORE.SYSTEM.CONST>
0

>  <SCORE.SYSTEM.DIHEDRAL>
0

>  <SCORE.SYSTEM.SOLV>
0

>  <SCORE.SYSTEM.norm>
0

>  <SCORE.heavy>
42

>  <SCORE.norm>
-1.27894

>  <RMSD>
1.428

$$$$
1fyp_lig
 OpenBabel11021811393D
libRbt.so/2013.1/901 2013/11/27
 42 45  0  0  0  0  0  0  0  0999 V2000
    6.6152    5.5979   27.1893 C   0  0  2  0  0  0  0  0  0  0  0  0
    5.5132    6.3852   26.6527 O   0  0  0  0  0  0  0  0  0  0  0  0
    3.5821    7.7495   23.0959 C   0  0  2  0  0  0  0  0  0  0  0  0
    3.1789    8.0626   21.7125 N   0  0  0  0  0  0  0  0  0  0  0  0
    2.6811    3.7224   25.1748 C   0  0  1  0  0  0  0  0  0  0  0  0
   -0.3616    0.6900   26.1099 C   0  0  1  0  0  0  0  0  0  0  0  0
    6.4962    5.4278   28.7381 C   0  0  2  0  0  0  0  0  0  0  0  0
    5.1528    4.9450   29.1230 N   0  0  0  0  0  0  0  0  0  0  0  0
    5.0343    8.2143   23.3245 C   0  0  0  0  0  0  0  0  0  0  0  0
    2.9245    2.2247   24.9712 C   0  0  2  0  0  0  0  0  0  0  0  0
    2.6026    1.8675   23.6265 O   0  0  0  0  0  0  0  0  0  0  0  0
   -0.1150   -0.8221   25.8204 C   0  0  2  0  0  0  0  0  0  0  0  0
    0.0684   -1.1049   24.3759 N   0  0  0  0  0  0  0  0  0  0  0  0
    6.8208    6.7669   29.4712 C   0  0  1  0  0  0  0  0  0  0  0  0
    6.8641    6.5580   30.8806 O   0  0  0  0  0  0  0  0  0  0  0  0
    5.5179    7.9396   24.7747 C   0  0  2  0  0  0  0  0  0  0  0  0
    6.9362    8.3453   24.8620 N   0  0  0  0  0  0  0  0  0  0  0  0
    1.9338    1.6083   25.9626 C   0  0  2  0  0  0  0  0  0  0  0  0
    0.5926    1.5261   25.4049 O   0  0  0  0  0  0  0  0  0  0  0  0
   -1.2533   -1.6974   26.4297 C   0  0  1  0  0  0  0  0  0  0  0  0
   -1.0903   -1.7315   27.8460 O   0  0  0  0  0  0  0  0  0  0  0  0
    8.1800    7.3568   29.0187 C   0  0  2  0  0  0  0  0  0  0  0  0
    8.3732    8.6183   29.6511 O   0  0  0  0  0  0  0  0  0  0  0  0
    5.3212    6.4430   25.2100 C   0  0  2  0  0  0  0  0  0  0  0  0
    1.9748    2.6112   27.1241 C   0  0  2  0  0  0  0  0  0  0  0  0
    2.2301    3.8975   26.5275 O   0  0  0  0  0  0  0  0  0  0  0  0
   -2.6903   -1.1807   26.1164 C   0  0  2  0  0  0  0  0  0  0  0  0
   -2.9816   -1.4522   24.7445 O   0  0  0  0  0  0  0  0  0  0  0  0
    8.2146    7.5090   27.4715 C   0  0  2  0  0  0  0  0  0  0  0  0
    7.9005    6.2230   26.8572 O   0  0  0  0  0  0  0  0  0  0  0  0
    3.8966    5.8841   24.8521 C   0  0  2  0  0  0  0  0  0  0  0  0
    3.9335    4.4388   24.9798 O   0  0  0  0  0  0  0  0  0  0  0  0
    3.0615    2.2853   28.1641 C   0  0  0  0  0  0  0  0  0  0  0  0
    4.3472    2.2872   27.5687 O   0  0  0  0  0  0  0  0  0  0  0  0
   -2.8024    0.3498   26.3984 C   0  0  1  0  0  0  0  0  0  0  0  0
   -1.7258    1.0556   25.7091 O   0  0  0  0  0  0  0  0  0  0  0  0
    9.5768    7.9540   26.8938 C   0  0  0  0  0  0  0  0  0  0  0  0
    9.6041    7.8257   25.4823 O   0  0  0  0  0  0  0  0  0  0  0  0
    3.4516    6.2374   23.3990 C   0  0  1  0  0  0  0  0  0  0  0  0
    2.0918    5.8412   23.2260 O   0  0  0  0  0  0  0  0  0  0  0  0
   -4.1632    0.9422   25.9508 C   0  0  0  0  0  0  0  0  0  0  0  0
   -5.3085    0.2629   26.5831 N   0  0  0  0  0  0  0  0  0  0  0  0
  1  2  1  1  0  0  0
  1  7  1  0  0  0  0
  1 30  1  0  0  0  0
  3  4  1  6  0  0  0
  3  9  1  0  0  0  0
  3 39  1  0  0  0  0
  5 10  1  0  0  0  0
  5 26  1  0  0  0  0
  5 32  1  1  0  0  0
  6 12  1  0  0  0  0
  6 36  1  0  0  0  0
  6 19  1  6  0  0  0
  7  8  1  6  0  0  0
  7 14  1  0  0  0  0
  9 16  1  0  0  0  0
 10 11  1  6  0  0  0
 10 18  1  0  0  0  0
 12 13  1  6  0  0  0
 12 20  1  0  0  0  0
 14 15  1  1  0  0  0
 14 22  1  0  0  0  0
 16 17  1  6  0  0  0
 16 24  1  0  0  0  0
 18 19  1  6  0  0  0
 18 25  1  0  0  0  0
 20 21  1  1  0  0  0
 20 27  1  0  0  0  0
 22 23  1  1  0  0  0
 22 29  1  0  0  0  0
 24  2  1  1  0  0  0
 24 31  1  0  0  0  0
 25 26  1  0  0  0  0
 25 33  1  1  0  0  0
 27 28  1  6  0  0  0
 27 35  1  0  0  0  0
 29 30  1  0  0  0  0
 29 37  1  6  0  0  0
 31 32  1  6  0  0  0
 31 39  1  0  0  0  0
 33 34  1  0  0  0  0
 35 36  1  0  0  0  0
 35 41  1  6  0  0  0
 37 38  1  0  0  0  0
 39 40  1  1  0  0  0
 41 42  1  0  0  0  0
M  END
>  <CHROM.1>
-168.88508434,-116.95959424,66.44817609,-61.05265398,-165.89312099,10.97951338
-56.87569607,-125.05589984,166.11397617,-77.14519654,55.88037683,-82.37123768
59.79402544,-178.28418834,168.88147504,158.34393199,167.56078910,-74.26620931
56.86184134,-177.22853511,-62.89406281,-30.41920892,3.14568714,3.98171424
26.12725525,-0.28035138,0.64993331,2.14556751

>  <Name>
1fyp_lig

>  <RI>
0

>  <Rbt.Current_Directory>
/home/itssahil/PROJECTS/Mol_Feturizer/New_Systems/rnas/1fyp

>  <Rbt.Executable>
rbdock ($Id: //depot/dev/client3/rdock/2013.1/src/exe/rbdock.cxx#4 $)

>  <Rbt.Library>
libRbt.so (2013.1, Build901 2013/11/27)

>  <Rbt.Parameter_File>
/export/apps/rDock/src/rDock_2013.1_src/data/scripts/dock_solv.prm

>  <Rbt.Receptor>
prm/pocket_docking_2.prm

>  <SCORE>
-57.4237

>  <SCORE.INTER>
-49.6159

>  <SCORE.INTER.CONST>
1

>  <SCORE.INTER.POLAR>
-6.27055

>  <SCORE.INTER.ROT>
14

>  <SCORE.INTER.SOLV>
18.0874

>  <SCORE.INTER.VDW>
-31.1379

>  <SCORE.INTER.norm>
-1.18133

>  <SCORE.INTRA>
-9.08872

>  <SCORE.INTRA.DIHEDRAL>
-24.7458

>  <SCORE.INTRA.DIHEDRAL.0>
48.7173

>  <SCORE.INTRA.POLAR>
-0.208956

>  <SCORE.INTRA.POLAR.0>
-1.54691

>  <SCORE.INTRA.REPUL>
0

>  <SCORE.INTRA.REPUL.0>
0

>  <SCORE.INTRA.SOLV>
0.256749

>  <SCORE.INTRA.SOLV.lig_0>
-64.052

>  <SCORE.INTRA.VDW>
3.86624

>  <SCORE.INTRA.VDW.0>
-7.0667

>  <SCORE.INTRA.norm>
-0.216398

>  <SCORE.RESTR>
1.28096

>  <SCORE.RESTR.CAVITY>
1.28096

>  <SCORE.RESTR.norm>
0.0304991

>  <SCORE.SYSTEM>
0

>  <SCORE.SYSTEM.CONST>
0

>  <SCORE.SYSTEM.DIHEDRAL>
0

>  <SCORE.SYSTEM.SOLV>
0

>  <SCORE.SYSTEM.norm>
0

>  <SCORE.heavy>
42

>  <SCORE.norm>
-1.36723

>  <RMSD>
1.444

$$$$
1fyp_lig
 OpenBabel11021811393D
libRbt.so/2013.1/901 2013/11/27
 42 45  0  0  0  0  0  0  0  0999 V2000
    6.3450    5.6899   27.4202 C   0  0  2  0  0  0  0  0  0  0  0  0
    5.4753    6.6930   26.8202 O   0  0  0  0  0  0  0  0  0  0  0  0
    3.3740    7.7767   23.2634 C   0  0  2  0  0  0  0  0  0  0  0  0
    2.9055    7.9823   21.8804 N   0  0  0  0  0  0  0  0  0  0  0  0
    2.5864    3.9036   25.6030 C   0  0  1  0  0  0  0  0  0  0  0  0
   -0.3431    0.6433   26.3701 C   0  0  1  0  0  0  0  0  0  0  0  0
    6.3512    5.7965   28.9792 C   0  0  2  0  0  0  0  0  0  0  0  0
    4.9757    5.8189   29.5207 N   0  0  0  0  0  0  0  0  0  0  0  0
    4.8320    8.2619   23.3886 C   0  0  0  0  0  0  0  0  0  0  0  0
    2.8126    2.4115   25.3456 C   0  0  2  0  0  0  0  0  0  0  0  0
    2.4310    2.0952   24.0063 O   0  0  0  0  0  0  0  0  0  0  0  0
    0.1677   -0.7547   25.9054 C   0  0  2  0  0  0  0  0  0  0  0  0
    0.4783   -0.7966   24.4555 N   0  0  0  0  0  0  0  0  0  0  0  0
    7.1379    7.0607   29.4471 C   0  0  1  0  0  0  0  0  0  0  0  0
    7.2712    7.0596   30.8662 O   0  0  0  0  0  0  0  0  0  0  0  0
    5.3836    8.0999   24.8314 C   0  0  2  0  0  0  0  0  0  0  0  0
    6.8017    8.5152   24.8218 N   0  0  0  0  0  0  0  0  0  0  0  0
    1.8621    1.7706   26.3606 C   0  0  2  0  0  0  0  0  0  0  0  0
    0.4977    1.7104   25.8593 O   0  0  0  0  0  0  0  0  0  0  0  0
   -0.8424   -1.8752   26.3018 C   0  0  1  0  0  0  0  0  0  0  0  0
   -0.7576   -2.0847   27.7098 O   0  0  0  0  0  0  0  0  0  0  0  0
    8.5529    7.1239   28.8194 C   0  0  2  0  0  0  0  0  0  0  0  0
    9.1808    8.3413   29.2096 O   0  0  0  0  0  0  0  0  0  0  0  0
    5.2169    6.6401   25.3878 C   0  0  2  0  0  0  0  0  0  0  0  0
    1.9587    2.7388   27.5479 C   0  0  2  0  0  0  0  0  0  0  0  0
    2.1951    4.0410   26.9785 O   0  0  0  0  0  0  0  0  0  0  0  0
   -2.3248   -1.5509   25.9453 C   0  0  2  0  0  0  0  0  0  0  0  0
   -2.4876   -1.6666   24.5308 O   0  0  0  0  0  0  0  0  0  0  0  0
    8.4615    7.0271   27.2701 C   0  0  2  0  0  0  0  0  0  0  0  0
    7.7136    5.8271   26.9091 O   0  0  0  0  0  0  0  0  0  0  0  0
    3.7810    6.0514   25.1398 C   0  0  2  0  0  0  0  0  0  0  0  0
    3.8331    4.6201   25.3749 O   0  0  0  0  0  0  0  0  0  0  0  0
    3.0874    2.3779   28.5300 C   0  0  0  0  0  0  0  0  0  0  0  0
    4.3175    2.2120   27.8468 O   0  0  0  0  0  0  0  0  0  0  0  0
   -2.7059   -0.1129   26.4157 C   0  0  1  0  0  0  0  0  0  0  0  0
   -1.7238    0.8439   25.9131 O   0  0  0  0  0  0  0  0  0  0  0  0
    9.8224    6.9349   26.5444 C   0  0  0  0  0  0  0  0  0  0  0  0
   10.5811    8.1193   26.7204 O   0  0  0  0  0  0  0  0  0  0  0  0
    3.2673    6.2917   23.6862 C   0  0  1  0  0  0  0  0  0  0  0  0
    1.9037    5.8793   23.6070 O   0  0  0  0  0  0  0  0  0  0  0  0
   -4.1183    0.3165   25.9424 C   0  0  0  0  0  0  0  0  0  0  0  0
   -4.1598    0.6253   24.5016 N   0  0  0  0  0  0  0  0  0  0  0  0
  1  2  1  6  0  0  0
  1  7  1  0  0  0  0
  1 30  1  0  0  0  0
  3  4  1  6  0  0  0
  3  9  1  0  0  0  0
  3 39  1  0  0  0  0
  5 10  1  0  0  0  0
  5 26  1  0  0  0  0
  5 32  1  1  0  0  0
  6 12  1  0  0  0  0
  6 36  1  0  0  0  0
  6 19  1  6  0  0  0
  7  8  1  6  0  0  0
  7 14  1  0  0  0  0
  9 16  1  0  0  0  0
 10 11  1  6  0  0  0
 10 18  1  0  0  0  0
 12 13  1  6  0  0  0
 12 20  1  0  0  0  0
 14 15  1  1  0  0  0
 14 22  1  0  0  0  0
 16 17  1  6  0  0  0
 16 24  1  0  0  0  0
 18 19  1  6  0  0  0
 18 25  1  0  0  0  0
 20 21  1  1  0  0  0
 20 27  1  0  0  0  0
 22 23  1  6  0  0  0
 22 29  1  0  0  0  0
 24  2  1  1  0  0  0
 24 31  1  0  0  0  0
 25 26  1  0  0  0  0
 25 33  1  1  0  0  0
 27 28  1  6  0  0  0
 27 35  1  0  0  0  0
 29 30  1  0  0  0  0
 29 37  1  6  0  0  0
 31 32  1  6  0  0  0
 31 39  1  0  0  0  0
 33 34  1  0  0  0  0
 35 36  1  0  0  0  0
 35 41  1  6  0  0  0
 37 38  1  0  0  0  0
 39 40  1  1  0  0  0
 41 42  1  0  0  0  0
M  END
>  <CHROM.1>
-172.53458167,-133.86215813,60.95306143,171.72108675,-173.01813219,105.06076071
-64.61281911,-33.39737751,152.23468250,-66.40365277,-179.75182611,-172.65424752
51.77451950,-53.10956238,-64.83042389,161.94337326,160.65696127,-179.45166675
-73.49984066,-166.60993745,160.03285465,-63.33447954,3.25373234,4.00665587
26.23558893,-0.33585446,0.64087167,2.28374146

>  <Name>
1fyp_lig

>  <RI>
0

>  <Rbt.Current_Directory>
/home/itssahil/PROJECTS/Mol_Feturizer/New_Systems/rnas/1fyp

>  <Rbt.Executable>
rbdock ($Id: //depot/dev/client3/rdock/2013.1/src/exe/rbdock.cxx#4 $)

>  <Rbt.Library>
libRbt.so (2013.1, Build901 2013/11/27)

>  <Rbt.Parameter_File>
/export/apps/rDock/src/rDock_2013.1_src/data/scripts/dock_solv.prm

>  <Rbt.Receptor>
prm/pocket_docking_2.prm

>  <SCORE>
-60.6092

>  <SCORE.INTER>
-51.6923

>  <SCORE.INTER.CONST>
1

>  <SCORE.INTER.POLAR>
-6.009

>  <SCORE.INTER.ROT>
14

>  <SCORE.INTER.SOLV>
18.4071

>  <SCORE.INTER.VDW>
-33.5006

>  <SCORE.INTER.norm>
-1.23077

>  <SCORE.INTRA>
-9.67643

>  <SCORE.INTRA.DIHEDRAL>
-27.7247

>  <SCORE.INTRA.DIHEDRAL.0>
48.7173

>  <SCORE.INTRA.POLAR>
0.507868

>  <SCORE.INTRA.POLAR.0>
-1.54691

>  <SCORE.INTRA.REPUL>
0.0806914

>  <SCORE.INTRA.REPUL.0>
0

>  <SCORE.INTRA.SOLV>
-0.235795

>  <SCORE.INTRA.SOLV.lig_0>
-64.052

>  <SCORE.INTRA.VDW>
2.1736

>  <SCORE.INTRA.VDW.0>
-7.0667

>  <SCORE.INTRA.norm>
-0.230391

>  <SCORE.RESTR>
0.759517

>  <SCORE.RESTR.CAVITY>
0.759517

>  <SCORE.RESTR.norm>
0.0180837

>  <SCORE.SYSTEM>
0

>  <SCORE.SYSTEM.CONST>
0

>  <SCORE.SYSTEM.DIHEDRAL>
0

>  <SCORE.SYSTEM.SOLV>
0

>  <SCORE.SYSTEM.norm>
0

>  <SCORE.heavy>
42

>  <SCORE.norm>
-1.44308

>  <RMSD>
1.445

$$$$
1fyp_lig
 OpenBabel11021811393D
libRbt.so/2013.1/901 2013/11/27
 42 45  0  0  0  0  0  0  0  0999 V2000
    7.1690    6.0865   27.1211 C   0  0  2  0  0  0  0  0  0  0  0  0
    6.1045    6.9355   26.6031 O   0  0  0  0  0  0  0  0  0  0  0  0
    3.7268    7.8927   23.1867 C   0  0  2  0  0  0  0  0  0  0  0  0
    3.1387    8.0311   21.8416 N   0  0  0  0  0  0  0  0  0  0  0  0
    2.9623    4.1894   25.6795 C   0  0  1  0  0  0  0  0  0  0  0  0
   -0.0910    1.0525   26.4603 C   0  0  1  0  0  0  0  0  0  0  0  0
    7.0090    5.8403   28.6560 C   0  0  2  0  0  0  0  0  0  0  0  0
    5.6429    5.3813   28.9859 N   0  0  0  0  0  0  0  0  0  0  0  0
    5.2115    8.3059   23.1424 C   0  0  0  0  0  0  0  0  0  0  0  0
    3.1473    2.6865   25.4540 C   0  0  2  0  0  0  0  0  0  0  0  0
    2.7847    2.3572   24.1125 O   0  0  0  0  0  0  0  0  0  0  0  0
    0.3025   -0.3701   25.9578 C   0  0  2  0  0  0  0  0  0  0  0  0
    0.5520   -0.4112   24.4962 N   0  0  0  0  0  0  0  0  0  0  0  0
    7.3577    7.1285   29.4652 C   0  0  1  0  0  0  0  0  0  0  0  0
    7.3619    6.8455   30.8622 O   0  0  0  0  0  0  0  0  0  0  0  0
    5.8901    8.2104   24.5362 C   0  0  2  0  0  0  0  0  0  0  0  0
    7.3189    8.5471   24.3667 N   0  0  0  0  0  0  0  0  0  0  0  0
    2.1560    2.0941   26.4593 C   0  0  2  0  0  0  0  0  0  0  0  0
    0.8013    2.0667   25.9294 O   0  0  0  0  0  0  0  0  0  0  0  0
   -0.7668   -1.4242   26.3805 C   0  0  1  0  0  0  0  0  0  0  0  0
   -0.6414   -1.6606   27.7812 O   0  0  0  0  0  0  0  0  0  0  0  0
    8.7446    7.6973   29.0736 C   0  0  2  0  0  0  0  0  0  0  0  0
    8.9618    8.9175   29.7754 O   0  0  0  0  0  0  0  0  0  0  0  0
    5.7082    6.8018   25.2079 C   0  0  2  0  0  0  0  0  0  0  0  0
    2.2574    3.0808   27.6308 C   0  0  2  0  0  0  0  0  0  0  0  0
    2.5463    4.3643   27.0434 O   0  0  0  0  0  0  0  0  0  0  0  0
   -2.2359   -0.9928   26.0883 C   0  0  2  0  0  0  0  0  0  0  0  0
   -2.4620   -1.0753   24.6802 O   0  0  0  0  0  0  0  0  0  0  0  0
    8.8196    7.9284   27.5376 C   0  0  2  0  0  0  0  0  0  0  0  0
    8.4803    6.6867   26.8500 O   0  0  0  0  0  0  0  0  0  0  0  0
    4.2289    6.2761   25.1355 C   0  0  2  0  0  0  0  0  0  0  0  0
    4.2353    4.8629   25.4659 O   0  0  0  0  0  0  0  0  0  0  0  0
    3.3531    2.7038   28.6437 C   0  0  0  0  0  0  0  0  0  0  0  0
    3.2421    1.3437   29.0249 O   0  0  0  0  0  0  0  0  0  0  0  0
   -2.4971    0.4607   26.5917 C   0  0  1  0  0  0  0  0  0  0  0  0
   -1.4713    1.3550   26.0620 O   0  0  0  0  0  0  0  0  0  0  0  0
   10.2078    8.3589   27.0135 C   0  0  0  0  0  0  0  0  0  0  0  0
   10.5976    9.6095   27.5553 O   0  0  0  0  0  0  0  0  0  0  0  0
    3.5908    6.4468   23.7219 C   0  0  1  0  0  0  0  0  0  0  0  0
    2.2078    6.1042   23.7980 O   0  0  0  0  0  0  0  0  0  0  0  0
   -3.8936    0.9939   26.1814 C   0  0  0  0  0  0  0  0  0  0  0  0
   -4.0118    1.2024   24.7269 N   0  0  0  0  0  0  0  0  0  0  0  0
  1  2  1  1  0  0  0
  1  7  1  0  0  0  0
  1 30  1  0  0  0  0
  3  4  1  6  0  0  0
  3  9  1  0  0  0  0
  3 39  1  0  0  0  0
  5 10  1  0  0  0  0
  5 26  1  0  0  0  0
  5 32  1  1  0  0  0
  6 12  1  0  0  0  0
  6 36  1  0  0  0  0
  6 19  1  6  0  0  0
  7  8  1  6  0  0  0
  7 14  1  0  0  0  0
  9 16  1  0  0  0  0
 10 11  1  6  0  0  0
 10 18  1  0  0  0  0
 12 13  1  6  0  0  0
 12 20  1  0  0  0  0
 14 15  1  1  0  0  0
 14 22  1  0  0  0  0
 16 17  1  6  0  0  0
 16 24  1  0  0  0  0
 18 19  1  6  0  0  0
 18 25  1  0  0  0  0
 20 21  1  1  0  0  0
 20 27  1  0  0  0  0
 22 23  1  1  0  0  0
 22 29  1  0  0  0  0
 24  2  1  1  0  0  0
 24 31  1  0  0  0  0
 25 26  1  0  0  0  0
 25 33  1  1  0  0  0
 27 28  1  6  0  0  0
 27 35  1  0  0  0  0
 29 30  1  0  0  0  0
 29 37  1  1  0  0  0
 31 32  1  6  0  0  0
 31 39  1  0  0  0  0
 33 34  1  0  0  0  0
 35 36  1  0  0  0  0
 35 41  1  6  0  0  0
 37 38  1  0  0  0  0
 39 40  1  1  0  0  0
 41 42  1  0  0  0  0
M  END
>  <CHROM.1>
-152.37302395,-122.30440679,-68.49356286,-156.21316967,-65.22700588,122.88144765
53.17076828,68.36983660,153.43041908,-71.36844355,-72.78418126,58.13826914
-49.65350430,-129.42489201,-62.86597170,170.23130255,157.50041073,177.14301352
-67.91369628,-53.61954380,-50.35435223,-82.99888044,3.51761655,4.35431912
26.32799119,-0.30162126,0.64715524,2.21720112

>  <Name>
1fyp_lig

>  <RI>
0

>  <Rbt.Current_Directory>
/home/itssahil/PROJECTS/Mol_Feturizer/New_Systems/rnas/1fyp

>  <Rbt.Executable>
rbdock ($Id: //depot/dev/client3/rdock/2013.1/src/exe/rbdock.cxx#4 $)

>  <Rbt.Library>
libRbt.so (2013.1, Build901 2013/11/27)

>  <Rbt.Parameter_File>
/export/apps/rDock/src/rDock_2013.1_src/data/scripts/dock_solv.prm

>  <Rbt.Receptor>
prm/pocket_docking_5.prm

>  <SCORE>
-50.1998

>  <SCORE.INTER>
-45.5687

>  <SCORE.INTER.CONST>
1

>  <SCORE.INTER.POLAR>
-4.84106

>  <SCORE.INTER.ROT>
14

>  <SCORE.INTER.SOLV>
16.0748

>  <SCORE.INTER.VDW>
-32.5338

>  <SCORE.INTER.norm>
-1.08497

>  <SCORE.INTRA>
-4.63117

>  <SCORE.INTRA.DIHEDRAL>
-18.5048

>  <SCORE.INTRA.DIHEDRAL.0>
48.7173

>  <SCORE.INTRA.POLAR>
0.26578

>  <SCORE.INTRA.POLAR.0>
-1.54691

>  <SCORE.INTRA.REPUL>
0

>  <SCORE.INTRA.REPUL.0>
0

>  <SCORE.INTRA.SOLV>
-0.795467

>  <SCORE.INTRA.SOLV.lig_0>
-64.052

>  <SCORE.INTRA.VDW>
4.11529

>  <SCORE.INTRA.VDW.0>
-7.0667

>  <SCORE.INTRA.norm>
-0.110266

>  <SCORE.RESTR>
0

>  <SCORE.RESTR.CAVITY>
0

>  <SCORE.RESTR.norm>
0

>  <SCORE.SYSTEM>
0

>  <SCORE.SYSTEM.CONST>
0

>  <SCORE.SYSTEM.DIHEDRAL>
0

>  <SCORE.SYSTEM.SOLV>
0

>  <SCORE.SYSTEM.norm>
0

>  <SCORE.heavy>
42

>  <SCORE.norm>
-1.19523

>  <RMSD>
1.445

$$$$
1fyp_lig
 OpenBabel11021811393D
libRbt.so/2013.1/901 2013/11/27
 42 45  0  0  0  0  0  0  0  0999 V2000
    6.7020    5.3526   26.9998 C   0  0  2  0  0  0  0  0  0  0  0  0
    5.7886    6.3670   26.4908 O   0  0  0  0  0  0  0  0  0  0  0  0
    3.7272    7.7970   23.0344 C   0  0  2  0  0  0  0  0  0  0  0  0
    3.2606    8.1172   21.6728 N   0  0  0  0  0  0  0  0  0  0  0  0
    2.7388    3.8465   25.2255 C   0  0  1  0  0  0  0  0  0  0  0  0
   -0.3254    0.7657   26.1829 C   0  0  1  0  0  0  0  0  0  0  0  0
    6.5913    5.2097   28.5521 C   0  0  2  0  0  0  0  0  0  0  0  0
    5.1854    5.0375   28.9758 N   0  0  0  0  0  0  0  0  0  0  0  0
    5.2129    8.1852   23.1721 C   0  0  0  0  0  0  0  0  0  0  0  0
    2.8824    2.3377   25.0095 C   0  0  2  0  0  0  0  0  0  0  0  0
    2.4449    2.0004   23.6926 O   0  0  0  0  0  0  0  0  0  0  0  0
    0.2042   -0.6744   25.9060 C   0  0  2  0  0  0  0  0  0  0  0  0
    0.6036   -0.8743   24.4915 N   0  0  0  0  0  0  0  0  0  0  0  0
    7.2264    6.4411   29.2706 C   0  0  1  0  0  0  0  0  0  0  0  0
    7.2614    6.2245   30.6790 O   0  0  0  0  0  0  0  0  0  0  0  0
    5.7657    7.8997   24.5952 C   0  0  2  0  0  0  0  0  0  0  0  0
    7.2061    8.2292   24.5945 N   0  0  0  0  0  0  0  0  0  0  0  0
    1.9326    1.7771   26.0716 C   0  0  2  0  0  0  0  0  0  0  0  0
    0.5522    1.7710   25.6122 O   0  0  0  0  0  0  0  0  0  0  0  0
   -0.8357   -1.7454   26.3586 C   0  0  1  0  0  0  0  0  0  0  0  0
   -0.8395   -1.7999   27.7835 O   0  0  0  0  0  0  0  0  0  0  0  0
    8.6698    6.7142   28.7782 C   0  0  2  0  0  0  0  0  0  0  0  0
    9.1568    7.8995   29.4001 O   0  0  0  0  0  0  0  0  0  0  0  0
    5.5156    6.4203   25.0611 C   0  0  2  0  0  0  0  0  0  0  0  0
    2.1135    2.7749   27.2240 C   0  0  2  0  0  0  0  0  0  0  0  0
    2.3970    4.0454   26.6066 O   0  0  0  0  0  0  0  0  0  0  0  0
   -2.2911   -1.4625   25.8773 C   0  0  2  0  0  0  0  0  0  0  0  0
   -2.3668   -1.7320   24.4765 O   0  0  0  0  0  0  0  0  0  0  0  0
    8.6943    6.8586   27.2301 C   0  0  2  0  0  0  0  0  0  0  0  0
    8.0845    5.6764   26.6298 O   0  0  0  0  0  0  0  0  0  0  0  0
    4.0447    5.9353   24.7941 C   0  0  2  0  0  0  0  0  0  0  0  0
    4.0122    4.4915   24.9386 O   0  0  0  0  0  0  0  0  0  0  0  0
    3.2522    2.3873   28.1841 C   0  0  0  0  0  0  0  0  0  0  0  0
    4.4934    2.3396   27.5023 O   0  0  0  0  0  0  0  0  0  0  0  0
   -2.6913    0.0181   26.1636 C   0  0  1  0  0  0  0  0  0  0  0  0
   -1.6739    0.9147   25.6218 O   0  0  0  0  0  0  0  0  0  0  0  0
   10.1047    6.9901   26.6131 C   0  0  0  0  0  0  0  0  0  0  0  0
   11.0654    7.3409   27.5946 O   0  0  0  0  0  0  0  0  0  0  0  0
    3.5345    6.2972   23.3647 C   0  0  1  0  0  0  0  0  0  0  0  0
    2.1478    5.9730   23.2763 O   0  0  0  0  0  0  0  0  0  0  0  0
   -4.0689    0.3928   25.5594 C   0  0  0  0  0  0  0  0  0  0  0  0
   -4.2141    1.8441   25.3454 N   0  0  0  0  0  0  0  0  0  0  0  0
  1  2  1  1  0  0  0
  1  7  1  0  0  0  0
  1 30  1  0  0  0  0
  3  4  1  6  0  0  0
  3  9  1  0  0  0  0
  3 39  1  0  0  0  0
  5 10  1  0  0  0  0
  5 26  1  0  0  0  0
  5 32  1  1  0  0  0
  6 12  1  0  0  0  0
  6 36  1  0  0  0  0
  6 19  1  6  0  0  0
  7  8  1  6  0  0  0
  7 14  1  0  0  0  0
  9 16  1  0  0  0  0
 10 11  1  6  0  0  0
 10 18  1  0  0  0  0
 12 13  1  6  0  0  0
 12 20  1  0  0  0  0
 14 15  1  1  0  0  0
 14 22  1  0  0  0  0
 16 17  1  6  0  0  0
 16 24  1  0  0  0  0
 18 19  1  6  0  0  0
 18 25  1  0  0  0  0
 20 21  1  1  0  0  0
 20 27  1  0  0  0  0
 22 23  1  1  0  0  0
 22 29  1  0  0  0  0
 24  2  1  1  0  0  0
 24 31  1  0  0  0  0
 25 26  1  0  0  0  0
 25 33  1  1  0  0  0
 27 28  1  6  0  0  0
 27 35  1  0  0  0  0
 29 30  1  0  0  0  0
 29 37  1  6  0  0  0
 31 32  1  6  0  0  0
 31 39  1  0  0  0  0
 33 34  1  0  0  0  0
 35 36  1  0  0  0  0
 35 41  1  6  0  0  0
 37 38  1  0  0  0  0
 39 40  1  1  0  0  0
 41 42  1  0  0  0  0
M  END
>  <CHROM.1>
-165.42695877,-128.15484123,-56.69946311,57.63660663,-69.67264705,71.00409328
58.09106311,49.60473391,152.35326076,-59.03560604,-177.76302750,179.75725589
60.78348887,-40.86717489,-17.10459765,157.89091772,166.85465621,-72.51961687
-157.11537130,66.73672949,68.26485325,27.05340962,3.42569253,3.90788362,26.07036660
-0.32516828,0.59036271,2.30004237

>  <Name>
1fyp_lig

>  <RI>
0

>  <Rbt.Current_Directory>
/home/itssahil/PROJECTS/Mol_Feturizer/New_Systems/rnas/1fyp

>  <Rbt.Executable>
rbdock ($Id: //depot/dev/client3/rdock/2013.1/src/exe/rbdock.cxx#4 $)

>  <Rbt.Library>
libRbt.so (2013.1, Build901 2013/11/27)

>  <Rbt.Parameter_File>
/export/apps/rDock/src/rDock_2013.1_src/data/scripts/dock_solv.prm

>  <Rbt.Receptor>
prm/pocket_docking_3.prm

>  <SCORE>
-64.9306

>  <SCORE.INTER>
-53.4921

>  <SCORE.INTER.CONST>
1

>  <SCORE.INTER.POLAR>
-6.51182

>  <SCORE.INTER.ROT>
14

>  <SCORE.INTER.SOLV>
18.984

>  <SCORE.INTER.VDW>
-33.2167

>  <SCORE.INTER.norm>
-1.27362

>  <SCORE.INTRA>
-11.4385

>  <SCORE.INTRA.DIHEDRAL>
-23.1637

>  <SCORE.INTRA.DIHEDRAL.0>
48.7173

>  <SCORE.INTRA.POLAR>
-1.04404

>  <SCORE.INTRA.POLAR.0>
-1.54691

>  <SCORE.INTRA.REPUL>
0

>  <SCORE.INTRA.REPUL.0>
0

>  <SCORE.INTRA.SOLV>
0.232544

>  <SCORE.INTRA.SOLV.lig_0>
-64.052

>  <SCORE.INTRA.VDW>
3.57681

>  <SCORE.INTRA.VDW.0>
-7.0667

>  <SCORE.INTRA.norm>
-0.272345

>  <SCORE.RESTR>
0

>  <SCORE.RESTR.CAVITY>
0

>  <SCORE.RESTR.norm>
0

>  <SCORE.SYSTEM>
0

>  <SCORE.SYSTEM.CONST>
0

>  <SCORE.SYSTEM.DIHEDRAL>
0

>  <SCORE.SYSTEM.SOLV>
0

>  <SCORE.SYSTEM.norm>
0

>  <SCORE.heavy>
42

>  <SCORE.norm>
-1.54597

>  <RMSD>
1.461

$$$$
1fyp_lig
 OpenBabel11021811393D
libRbt.so/2013.1/901 2013/11/27
 42 45  0  0  0  0  0  0  0  0999 V2000
    7.1180    6.5563   26.9242 C   0  0  2  0  0  0  0  0  0  0  0  0
    6.4079    7.6218   26.2294 O   0  0  0  0  0  0  0  0  0  0  0  0
    3.6647    7.9998   22.9778 C   0  0  2  0  0  0  0  0  0  0  0  0
    2.9785    7.9995   21.6726 N   0  0  0  0  0  0  0  0  0  0  0  0
    3.9643    4.1616   25.2017 C   0  0  1  0  0  0  0  0  0  0  0  0
    1.3747    0.8305   26.1093 C   0  0  1  0  0  0  0  0  0  0  0  0
    6.7660    6.5318   28.4466 C   0  0  2  0  0  0  0  0  0  0  0  0
    5.3030    6.5339   28.6588 N   0  0  0  0  0  0  0  0  0  0  0  0
    5.0040    8.7532   22.8529 C   0  0  0  0  0  0  0  0  0  0  0  0
    4.5883    2.7984   25.5116 C   0  0  2  0  0  0  0  0  0  0  0  0
    4.8407    2.1007   24.2914 O   0  0  0  0  0  0  0  0  0  0  0  0
    0.3115    0.3474   25.0761 C   0  0  2  0  0  0  0  0  0  0  0  0
   -0.0670    1.4058   24.1083 N   0  0  0  0  0  0  0  0  0  0  0  0
    7.4226    7.7378   29.1886 C   0  0  1  0  0  0  0  0  0  0  0  0
    7.2266    7.6154   30.5951 O   0  0  0  0  0  0  0  0  0  0  0  0
    5.7708    8.8165   24.2021 C   0  0  2  0  0  0  0  0  0  0  0  0
    7.0662    9.4829   23.9543 N   0  0  0  0  0  0  0  0  0  0  0  0
    3.4777    2.1216   26.3196 C   0  0  2  0  0  0  0  0  0  0  0  0
    2.4672    1.5289   25.4571 O   0  0  0  0  0  0  0  0  0  0  0  0
   -0.9420   -0.2344   25.7995 C   0  0  1  0  0  0  0  0  0  0  0  0
   -0.5994   -1.5049   26.3490 O   0  0  0  0  0  0  0  0  0  0  0  0
    8.9438    7.8273   28.9091 C   0  0  2  0  0  0  0  0  0  0  0  0
    9.4637    8.9962   29.5355 O   0  0  0  0  0  0  0  0  0  0  0  0
    5.9689    7.4028   24.8580 C   0  0  2  0  0  0  0  0  0  0  0  0
    2.8901    3.2999   27.1088 C   0  0  2  0  0  0  0  0  0  0  0  0
    3.0452    4.4577   26.2653 O   0  0  0  0  0  0  0  0  0  0  0  0
   -1.4865    0.6642   26.9510 C   0  0  2  0  0  0  0  0  0  0  0  0
   -2.1337    1.7995   26.3738 O   0  0  0  0  0  0  0  0  0  0  0  0
    9.2106    7.8624   27.3775 C   0  0  2  0  0  0  0  0  0  0  0  0
    8.5672    6.7107   26.7535 O   0  0  0  0  0  0  0  0  0  0  0  0
    4.6542    6.5417   24.8640 C   0  0  2  0  0  0  0  0  0  0  0  0
    5.0149    5.1691   25.1681 O   0  0  0  0  0  0  0  0  0  0  0  0
    3.5917    3.5311   28.4590 C   0  0  0  0  0  0  0  0  0  0  0  0
    4.9709    3.7969   28.2725 O   0  0  0  0  0  0  0  0  0  0  0  0
   -0.3283    1.1239   27.8899 C   0  0  1  0  0  0  0  0  0  0  0  0
    0.7424    1.7174   27.0937 O   0  0  0  0  0  0  0  0  0  0  0  0
   10.7019    7.8063   26.9774 C   0  0  0  0  0  0  0  0  0  0  0  0
   11.1753    9.0805   26.5751 O   0  0  0  0  0  0  0  0  0  0  0  0
    3.9076    6.5611   23.4941 C   0  0  1  0  0  0  0  0  0  0  0  0
    2.6522    5.9002   23.6458 O   0  0  0  0  0  0  0  0  0  0  0  0
   -0.7935    2.1489   28.9558 C   0  0  0  0  0  0  0  0  0  0  0  0
   -1.3143    3.3898   28.3542 N   0  0  0  0  0  0  0  0  0  0  0  0
  1  2  1  6  0  0  0
  1  7  1  0  0  0  0
  1 30  1  0  0  0  0
  3  4  1  6  0  0  0
  3  9  1  0  0  0  0
  3 39  1  0  0  0  0
  5 10  1  0  0  0  0
  5 26  1  0  0  0  0
  5 32  1  1  0  0  0
  6 12  1  0  0  0  0
  6 36  1  0  0  0  0
  6 19  1  6  0  0  0
  7  8  1  6  0  0  0
  7 14  1  0  0  0  0
  9 16  1  0  0  0  0
 10 11  1  6  0  0  0
 10 18  1  0  0  0  0
 12 13  1  1  0  0  0
 12 20  1  0  0  0  0
 14 15  1  1  0  0  0
 14 22  1  0  0  0  0
 16 17  1  6  0  0  0
 16 24  1  0  0  0  0
 18 19  1  6  0  0  0
 18 25  1  0  0  0  0
 20 21  1  1  0  0  0
 20 27  1  0  0  0  0
 22 23  1  1  0  0  0
 22 29  1  0  0  0  0
 24  2  1  1  0  0  0
 24 31  1  0  0  0  0
 25 26  1  0  0  0  0
 25 33  1  1  0  0  0
 27 28  1  6  0  0  0
 27 35  1  0  0  0  0
 29 30  1  0  0  0  0
 29 37  1  1  0  0  0
 31 32  1  6  0  0  0
 31 39  1  0  0  0  0
 33 34  1  0  0  0  0
 35 36  1  0  0  0  0
 35 41  1  1  0  0  0
 37 38  1  0  0  0  0
 39 40  1  1  0  0  0
 41 42  1  0  0  0  0
M  END
>  <CHROM.1>
-145.35406049,-158.17200723,68.22649156,166.57422076,-70.33013921,-28.16242208
-53.61232874,63.78394809,178.68566953,175.43667978,59.20115339,-60.34291321
59.52618179,72.42088518,-104.00030061,-178.60274206,178.82515514,82.22682298
-61.46458915,-91.65788681,72.58622220,-46.80628627,4.13669513,4.89457070
26.28999904,-0.26134219,0.66264948,2.05557993

>  <Name>
1fyp_lig

>  <RI>
0

>  <Rbt.Current_Directory>
/home/itssahil/PROJECTS/Mol_Feturizer/New_Systems/rnas/1fyp

>  <Rbt.Executable>
rbdock ($Id: //depot/dev/client3/rdock/2013.1/src/exe/rbdock.cxx#4 $)

>  <Rbt.Library>
libRbt.so (2013.1, Build901 2013/11/27)

>  <Rbt.Parameter_File>
/export/apps/rDock/src/rDock_2013.1_src/data/scripts/dock_solv.prm

>  <Rbt.Receptor>
prm/pocket_docking_3.prm

>  <SCORE>
-61.3455

>  <SCORE.INTER>
-52.6493

>  <SCORE.INTER.CONST>
1

>  <SCORE.INTER.POLAR>
-6.79229

>  <SCORE.INTER.ROT>
14

>  <SCORE.INTER.SOLV>
18.4254

>  <SCORE.INTER.VDW>
-31.5337

>  <SCORE.INTER.norm>
-1.25355

>  <SCORE.INTRA>
-9.61368

>  <SCORE.INTRA.DIHEDRAL>
-26.7194

>  <SCORE.INTRA.DIHEDRAL.0>
48.7173

>  <SCORE.INTRA.POLAR>
0.311261

>  <SCORE.INTRA.POLAR.0>
-1.54691

>  <SCORE.INTRA.REPUL>
0.00313563

>  <SCORE.INTRA.REPUL.0>
0

>  <SCORE.INTRA.SOLV>
0.0131012

>  <SCORE.INTRA.SOLV.lig_0>
-64.052

>  <SCORE.INTRA.VDW>
2.66549

>  <SCORE.INTRA.VDW.0>
-7.0667

>  <SCORE.INTRA.norm>
-0.228897

>  <SCORE.RESTR>
0.917466

>  <SCORE.RESTR.CAVITY>
0.917466

>  <SCORE.RESTR.norm>
0.0218444

>  <SCORE.SYSTEM>
0

>  <SCORE.SYSTEM.CONST>
0

>  <SCORE.SYSTEM.DIHEDRAL>
0

>  <SCORE.SYSTEM.SOLV>
0

>  <SCORE.SYSTEM.norm>
0

>  <SCORE.heavy>
42

>  <SCORE.norm>
-1.46061

>  <RMSD>
1.505

$$$$
1fyp_lig
 OpenBabel11021811393D
libRbt.so/2013.1/901 2013/11/27
 42 45  0  0  0  0  0  0  0  0999 V2000
    6.4376    5.6711   28.0537 C   0  0  2  0  0  0  0  0  0  0  0  0
    5.5545    6.5822   27.3380 O   0  0  0  0  0  0  0  0  0  0  0  0
    3.8948    7.5601   23.5262 C   0  0  2  0  0  0  0  0  0  0  0  0
    3.5994    7.7323   22.0918 N   0  0  0  0  0  0  0  0  0  0  0  0
    2.8977    3.7044   25.7905 C   0  0  1  0  0  0  0  0  0  0  0  0
   -0.1883    0.7145   26.1611 C   0  0  1  0  0  0  0  0  0  0  0  0
    6.3441    5.8796   29.5997 C   0  0  2  0  0  0  0  0  0  0  0  0
    4.9391    5.8599   30.0594 N   0  0  0  0  0  0  0  0  0  0  0  0
    5.3159    8.0790   23.8231 C   0  0  0  0  0  0  0  0  0  0  0  0
    3.0977    2.3461   25.1132 C   0  0  2  0  0  0  0  0  0  0  0  0
    2.6767    2.4256   23.7508 O   0  0  0  0  0  0  0  0  0  0  0  0
    0.0269   -0.7985   25.8518 C   0  0  2  0  0  0  0  0  0  0  0  0
    0.2129   -1.0652   24.4046 N   0  0  0  0  0  0  0  0  0  0  0  0
    7.0338    7.2140   30.0236 C   0  0  1  0  0  0  0  0  0  0  0  0
    7.0811    7.3132   31.4447 O   0  0  0  0  0  0  0  0  0  0  0  0
    5.6854    7.9533   25.3265 C   0  0  2  0  0  0  0  0  0  0  0  0
    7.0851    8.3992   25.4862 N   0  0  0  0  0  0  0  0  0  0  0  0
    2.1662    1.4476   25.9314 C   0  0  2  0  0  0  0  0  0  0  0  0
    0.7884    1.5392   25.4735 O   0  0  0  0  0  0  0  0  0  0  0  0
   -1.1341   -1.6569   26.4421 C   0  0  1  0  0  0  0  0  0  0  0  0
   -0.9806   -1.7143   27.8587 O   0  0  0  0  0  0  0  0  0  0  0  0
    8.4789    7.3155   29.4744 C   0  0  2  0  0  0  0  0  0  0  0  0
    9.0175    8.5893   29.8151 O   0  0  0  0  0  0  0  0  0  0  0  0
    5.4787    6.4998   25.8858 C   0  0  2  0  0  0  0  0  0  0  0  0
    2.3067    2.0376   27.3415 C   0  0  2  0  0  0  0  0  0  0  0  0
    2.5448    3.4468   27.1590 O   0  0  0  0  0  0  0  0  0  0  0  0
   -2.5574   -1.1044   26.1277 C   0  0  2  0  0  0  0  0  0  0  0  0
   -2.8461   -1.3503   24.7505 O   0  0  0  0  0  0  0  0  0  0  0  0
    8.4865    7.1126   27.9326 C   0  0  2  0  0  0  0  0  0  0  0  0
    7.8255    5.8514   27.6130 O   0  0  0  0  0  0  0  0  0  0  0  0
    4.0970    5.8758   25.4717 C   0  0  2  0  0  0  0  0  0  0  0  0
    4.1471    4.4502   25.7393 O   0  0  0  0  0  0  0  0  0  0  0  0
    3.4563    1.4068   28.1474 C   0  0  0  0  0  0  0  0  0  0  0  0
    3.3401    1.7215   29.5240 O   0  0  0  0  0  0  0  0  0  0  0  0
   -2.6377    0.4241   26.4305 C   0  0  1  0  0  0  0  0  0  0  0  0
   -1.5416    1.1156   25.7575 O   0  0  0  0  0  0  0  0  0  0  0  0
    9.8917    7.0499   27.2934 C   0  0  0  0  0  0  0  0  0  0  0  0
    9.8707    6.3284   26.0734 O   0  0  0  0  0  0  0  0  0  0  0  0
    3.7650    6.0804   23.9610 C   0  0  1  0  0  0  0  0  0  0  0  0
    2.4303    5.6372   23.7200 O   0  0  0  0  0  0  0  0  0  0  0  0
   -3.9824    1.0525   25.9833 C   0  0  0  0  0  0  0  0  0  0  0  0
   -4.1534    1.0341   24.5193 N   0  0  0  0  0  0  0  0  0  0  0  0
  1  2  1  6  0  0  0
  1  7  1  0  0  0  0
  1 30  1  0  0  0  0
  3  4  1  6  0  0  0
  3  9  1  0  0  0  0
  3 39  1  0  0  0  0
  5 10  1  0  0  0  0
  5 26  1  0  0  0  0
  5 32  1  1  0  0  0
  6 12  1  0  0  0  0
  6 36  1  0  0  0  0
  6 19  1  6  0  0  0
  7  8  1  6  0  0  0
  7 14  1  0  0  0  0
  9 16  1  0  0  0  0
 10 11  1  6  0  0  0
 10 18  1  0  0  0  0
 12 13  1  6  0  0  0
 12 20  1  0  0  0  0
 14 15  1  1  0  0  0
 14 22  1  0  0  0  0
 16 17  1  6  0  0  0
 16 24  1  0  0  0  0
 18 19  1  6  0  0  0
 18 25  1  0  0  0  0
 20 21  1  1  0  0  0
 20 27  1  0  0  0  0
 22 23  1  6  0  0  0
 22 29  1  0  0  0  0
 24  2  1  1  0  0  0
 24 31  1  0  0  0  0
 25 26  1  0  0  0  0
 25 33  1  6  0  0  0
 27 28  1  6  0  0  0
 27 35  1  0  0  0  0
 29 30  1  0  0  0  0
 29 37  1  1  0  0  0
 31 32  1  6  0  0  0
 31 39  1  0  0  0  0
 33 34  1  0  0  0  0
 35 36  1  0  0  0  0
 35 41  1  6  0  0  0
 37 38  1  0  0  0  0
 39 40  1  1  0  0  0
 41 42  1  0  0  0  0
M  END
>  <CHROM.1>
-178.03511628,-129.41318117,64.66813079,-167.52939920,172.84248737,148.28288988
63.83408544,-51.73609694,179.08271050,-69.24477388,-172.10814433,-177.65485205
-165.10144862,-168.36576150,155.11932159,163.45706952,140.26868854,69.25783943
-66.02842768,-73.02146533,-65.89941800,-88.47090750,3.32856162,3.93659622
26.48395879,-0.19156864,0.67860234,2.12660233

>  <Name>
1fyp_lig

>  <RI>
0

>  <Rbt.Current_Directory>
/home/itssahil/PROJECTS/Mol_Feturizer/New_Systems/rnas/1fyp

>  <Rbt.Executable>
rbdock ($Id: //depot/dev/client3/rdock/2013.1/src/exe/rbdock.cxx#4 $)

>  <Rbt.Library>
libRbt.so (2013.1, Build901 2013/11/27)

>  <Rbt.Parameter_File>
/export/apps/rDock/src/rDock_2013.1_src/data/scripts/dock_solv.prm

>  <Rbt.Receptor>
prm/pocket_docking_2.prm

>  <SCORE>
-48.7888

>  <SCORE.INTER>
-39.8986

>  <SCORE.INTER.CONST>
1

>  <SCORE.INTER.POLAR>
-3.86798

>  <SCORE.INTER.ROT>
14

>  <SCORE.INTER.SOLV>
20.6049

>  <SCORE.INTER.VDW>
-33.5074

>  <SCORE.INTER.norm>
-0.949966

>  <SCORE.INTRA>
-9.1558

>  <SCORE.INTRA.DIHEDRAL>
-26.1581

>  <SCORE.INTRA.DIHEDRAL.0>
48.7173

>  <SCORE.INTRA.POLAR>
0.417314

>  <SCORE.INTRA.POLAR.0>
-1.54691

>  <SCORE.INTRA.REPUL>
0.0761842

>  <SCORE.INTRA.REPUL.0>
0

>  <SCORE.INTRA.SOLV>
-1.82009

>  <SCORE.INTRA.SOLV.lig_0>
-64.052

>  <SCORE.INTRA.VDW>
3.03352

>  <SCORE.INTRA.VDW.0>
-7.0667

>  <SCORE.INTRA.norm>
-0.217995

>  <SCORE.RESTR>
0.265597

>  <SCORE.RESTR.CAVITY>
0.265597

>  <SCORE.RESTR.norm>
0.00632373

>  <SCORE.SYSTEM>
0

>  <SCORE.SYSTEM.CONST>
0

>  <SCORE.SYSTEM.DIHEDRAL>
0

>  <SCORE.SYSTEM.SOLV>
0

>  <SCORE.SYSTEM.norm>
0

>  <SCORE.heavy>
42

>  <SCORE.norm>
-1.16164

>  <RMSD>
1.552

$$$$
1fyp_lig
 OpenBabel11021811393D
libRbt.so/2013.1/901 2013/11/27
 42 45  0  0  0  0  0  0  0  0999 V2000
    6.3469    5.1371   28.3221 C   0  0  2  0  0  0  0  0  0  0  0  0
    5.3116    5.8939   27.6309 O   0  0  0  0  0  0  0  0  0  0  0  0
    3.7421    7.0246   23.8232 C   0  0  2  0  0  0  0  0  0  0  0  0
    3.4784    7.2505   22.3900 N   0  0  0  0  0  0  0  0  0  0  0  0
    2.6510    3.1249   26.0676 C   0  0  1  0  0  0  0  0  0  0  0  0
   -0.3528   -0.1624   26.2315 C   0  0  1  0  0  0  0  0  0  0  0  0
    5.9674    4.8805   29.8161 C   0  0  2  0  0  0  0  0  0  0  0  0
    4.6085    4.3102   29.9339 N   0  0  0  0  0  0  0  0  0  0  0  0
    5.1625    7.5158   24.1670 C   0  0  0  0  0  0  0  0  0  0  0  0
    2.8060    1.7141   25.4938 C   0  0  2  0  0  0  0  0  0  0  0  0
    2.3532    1.6975   24.1394 O   0  0  0  0  0  0  0  0  0  0  0  0
   -1.0828   -0.6388   24.9387 C   0  0  2  0  0  0  0  0  0  0  0  0
   -1.7083    0.4790   24.1907 N   0  0  0  0  0  0  0  0  0  0  0  0
    6.0774    6.1945   30.6514 C   0  0  1  0  0  0  0  0  0  0  0  0
    5.8842    5.9148   32.0356 O   0  0  0  0  0  0  0  0  0  0  0  0
    5.4994    7.3330   25.6721 C   0  0  2  0  0  0  0  0  0  0  0  0
    6.9004    7.7564   25.8758 N   0  0  0  0  0  0  0  0  0  0  0  0
    1.8767    0.9028   26.4007 C   0  0  2  0  0  0  0  0  0  0  0  0
    0.4901    0.9897   25.9690 O   0  0  0  0  0  0  0  0  0  0  0  0
   -2.1229   -1.7540   25.2669 C   0  0  1  0  0  0  0  0  0  0  0  0
   -1.4187   -2.9590   25.5594 O   0  0  0  0  0  0  0  0  0  0  0  0
    7.4575    6.8759   30.4744 C   0  0  2  0  0  0  0  0  0  0  0  0
    7.4607    8.1110   31.1838 O   0  0  0  0  0  0  0  0  0  0  0  0
    5.2650    5.8634   26.1755 C   0  0  2  0  0  0  0  0  0  0  0  0
    2.0643    1.5968   27.7570 C   0  0  2  0  0  0  0  0  0  0  0  0
    2.3268    2.9820   27.4599 O   0  0  0  0  0  0  0  0  0  0  0  0
   -3.0490   -1.4243   26.4767 C   0  0  2  0  0  0  0  0  0  0  0  0
   -3.9889   -0.4279   26.0710 O   0  0  0  0  0  0  0  0  0  0  0  0
    7.7548    7.1103   28.9661 C   0  0  2  0  0  0  0  0  0  0  0  0
    7.6310    5.8437   28.2518 O   0  0  0  0  0  0  0  0  0  0  0  0
    3.8852    5.2708   25.7117 C   0  0  2  0  0  0  0  0  0  0  0  0
    3.9139    3.8361   25.9297 O   0  0  0  0  0  0  0  0  0  0  0  0
    3.2201    1.0046   28.5828 C   0  0  0  0  0  0  0  0  0  0  0  0
    3.3680    1.6941   29.8117 O   0  0  0  0  0  0  0  0  0  0  0  0
   -2.2131   -0.9138   27.6913 C   0  0  1  0  0  0  0  0  0  0  0  0
   -1.3410    0.1764   27.2629 O   0  0  0  0  0  0  0  0  0  0  0  0
    9.1684    7.6539   28.6605 C   0  0  0  0  0  0  0  0  0  0  0  0
    9.2647    8.1153   27.3236 O   0  0  0  0  0  0  0  0  0  0  0  0
    3.5868    5.5322   24.2027 C   0  0  1  0  0  0  0  0  0  0  0  0
    2.2526    5.1136   23.9192 O   0  0  0  0  0  0  0  0  0  0  0  0
   -3.1004   -0.4210   28.8630 C   0  0  0  0  0  0  0  0  0  0  0  0
   -2.3644   -0.3575   30.1387 N   0  0  0  0  0  0  0  0  0  0  0  0
  1  2  1  1  0  0  0
  1  7  1  0  0  0  0
  1 30  1  0  0  0  0
  3  4  1  6  0  0  0
  3  9  1  0  0  0  0
  3 39  1  0  0  0  0
  5 10  1  0  0  0  0
  5 26  1  0  0  0  0
  5 32  1  1  0  0  0
  6 12  1  0  0  0  0
  6 36  1  0  0  0  0
  6 19  1  6  0  0  0
  7  8  1  6  0  0  0
  7 14  1  0  0  0  0
  9 16  1  0  0  0  0
 10 11  1  6  0  0  0
 10 18  1  0  0  0  0
 12 13  1  1  0  0  0
 12 20  1  0  0  0  0
 14 15  1  1  0  0  0
 14 22  1  0  0  0  0
 16 17  1  6  0  0  0
 16 24  1  0  0  0  0
 18 19  1  6  0  0  0
 18 25  1  0  0  0  0
 20 21  1  1  0  0  0
 20 27  1  0  0  0  0
 22 23  1  1  0  0  0
 22 29  1  0  0  0  0
 24  2  1  1  0  0  0
 24 31  1  0  0  0  0
 25 26  1  0  0  0  0
 25 33  1  6  0  0  0
 27 28  1  6  0  0  0
 27 35  1  0  0  0  0
 29 30  1  0  0  0  0
 29 37  1  1  0  0  0
 31 32  1  6  0  0  0
 31 39  1  0  0  0  0
 33 34  1  0  0  0  0
 35 36  1  0  0  0  0
 35 41  1  1  0  0  0
 37 38  1  0  0  0  0
 39 40  1  1  0  0  0
 41 42  1  0  0  0  0
M  END
>  <CHROM.1>
-160.40478599,-117.71265191,160.67478948,69.40488479,71.07328598,-174.78509047
-163.99565703,99.90918830,149.33187873,-127.80986388,56.89929021,-64.76792515
178.89691284,174.75447031,-167.09920317,157.17119617,147.56216519,65.14325038
161.34558096,71.03765677,67.74049304,147.29759746,2.96785041,3.48284400,27.05490948
-0.07203867,0.73195792,1.89591973

>  <Name>
1fyp_lig

>  <RI>
0

>  <Rbt.Current_Directory>
/home/itssahil/PROJECTS/Mol_Feturizer/New_Systems/rnas/1fyp

>  <Rbt.Executable>
rbdock ($Id: //depot/dev/client3/rdock/2013.1/src/exe/rbdock.cxx#4 $)

>  <Rbt.Library>
libRbt.so (2013.1, Build901 2013/11/27)

>  <Rbt.Parameter_File>
/export/apps/rDock/src/rDock_2013.1_src/data/scripts/dock_solv.prm

>  <Rbt.Receptor>
prm/pocket_docking_3.prm

>  <SCORE>
-32.7495

>  <SCORE.INTER>
-30.2104

>  <SCORE.INTER.CONST>
1

>  <SCORE.INTER.POLAR>
-3.28663

>  <SCORE.INTER.ROT>
14

>  <SCORE.INTER.SOLV>
15.1567

>  <SCORE.INTER.VDW>
-27.1704

>  <SCORE.INTER.norm>
-0.719294

>  <SCORE.INTRA>
-2.53917

>  <SCORE.INTRA.DIHEDRAL>
-13.9508

>  <SCORE.INTRA.DIHEDRAL.0>
48.7173

>  <SCORE.INTRA.POLAR>
0.415773

>  <SCORE.INTRA.POLAR.0>
-1.54691

>  <SCORE.INTRA.REPUL>
0.270763

>  <SCORE.INTRA.REPUL.0>
0

>  <SCORE.INTRA.SOLV>
-0.508821

>  <SCORE.INTRA.SOLV.lig_0>
-64.052

>  <SCORE.INTRA.VDW>
1.92321

>  <SCORE.INTRA.VDW.0>
-7.0667

>  <SCORE.INTRA.norm>
-0.0604565

>  <SCORE.RESTR>
0

>  <SCORE.RESTR.CAVITY>
0

>  <SCORE.RESTR.norm>
0

>  <SCORE.SYSTEM>
0

>  <SCORE.SYSTEM.CONST>
0

>  <SCORE.SYSTEM.DIHEDRAL>
0

>  <SCORE.SYSTEM.SOLV>
0

>  <SCORE.SYSTEM.norm>
0

>  <SCORE.heavy>
42

>  <SCORE.norm>
-0.779751

>  <RMSD>
1.555

$$$$
1fyp_lig
 OpenBabel11021811393D
libRbt.so/2013.1/901 2013/11/27
 42 45  0  0  0  0  0  0  0  0999 V2000
    7.6039    6.9412   26.6144 C   0  0  2  0  0  0  0  0  0  0  0  0
    6.8556    7.9765   25.9140 O   0  0  0  0  0  0  0  0  0  0  0  0
    3.7080    8.2178   23.0373 C   0  0  2  0  0  0  0  0  0  0  0  0
    2.8464    8.1351   21.8435 N   0  0  0  0  0  0  0  0  0  0  0  0
    4.1269    4.5445   25.3683 C   0  0  1  0  0  0  0  0  0  0  0  0
    1.5386    1.2262   26.2092 C   0  0  1  0  0  0  0  0  0  0  0  0
    7.0538    6.7158   28.0596 C   0  0  2  0  0  0  0  0  0  0  0  0
    5.5892    6.5145   28.0506 N   0  0  0  0  0  0  0  0  0  0  0  0
    5.0558    8.8606   22.6535 C   0  0  0  0  0  0  0  0  0  0  0  0
    4.7431    3.1443   25.4291 C   0  0  2  0  0  0  0  0  0  0  0  0
    4.8176    2.5981   24.1117 O   0  0  0  0  0  0  0  0  0  0  0  0
    0.5263    0.5680   25.2228 C   0  0  2  0  0  0  0  0  0  0  0  0
    0.0961    1.4916   24.1447 N   0  0  0  0  0  0  0  0  0  0  0  0
    7.4304    7.9106   28.9906 C   0  0  1  0  0  0  0  0  0  0  0  0
    7.0627    7.6200   30.3367 O   0  0  0  0  0  0  0  0  0  0  0  0
    6.0067    9.0047   23.8731 C   0  0  2  0  0  0  0  0  0  0  0  0
    7.2891    9.5519   23.3835 N   0  0  0  0  0  0  0  0  0  0  0  0
    3.7234    2.3900   26.2869 C   0  0  2  0  0  0  0  0  0  0  0  0
    2.5942    1.9230   25.4973 O   0  0  0  0  0  0  0  0  0  0  0  0
   -0.6987   -0.0163   25.9915 C   0  0  1  0  0  0  0  0  0  0  0  0
   -0.2838   -1.1967   26.6757 O   0  0  0  0  0  0  0  0  0  0  0  0
    8.9487    8.2166   28.9498 C   0  0  2  0  0  0  0  0  0  0  0  0
    9.2121    9.3698   29.7432 O   0  0  0  0  0  0  0  0  0  0  0  0
    6.2172    7.6529   24.6455 C   0  0  2  0  0  0  0  0  0  0  0  0
    3.2766    3.4711   27.2809 C   0  0  2  0  0  0  0  0  0  0  0  0
    3.3591    4.7213   26.5695 O   0  0  0  0  0  0  0  0  0  0  0  0
   -1.3194    0.9603   27.0361 C   0  0  2  0  0  0  0  0  0  0  0  0
   -2.0291    1.9833   26.3358 O   0  0  0  0  0  0  0  0  0  0  0  0
    9.4150    8.4427   27.4836 C   0  0  2  0  0  0  0  0  0  0  0  0
    9.0276    7.2909   26.6755 O   0  0  0  0  0  0  0  0  0  0  0  0
    4.8711    6.8898   24.9206 C   0  0  2  0  0  0  0  0  0  0  0  0
    5.1951    5.5327   25.3203 O   0  0  0  0  0  0  0  0  0  0  0  0
    4.1500    3.5241   28.5470 C   0  0  0  0  0  0  0  0  0  0  0  0
    4.2043    2.2560   29.1766 O   0  0  0  0  0  0  0  0  0  0  0  0
   -0.2091    1.5916   27.9322 C   0  0  1  0  0  0  0  0  0  0  0  0
    0.8339    2.1677   27.0881 O   0  0  0  0  0  0  0  0  0  0  0  0
   10.9404    8.6138   27.3072 C   0  0  0  0  0  0  0  0  0  0  0  0
   11.5615    7.3835   26.9754 O   0  0  0  0  0  0  0  0  0  0  0  0
    3.9417    6.8243   23.6690 C   0  0  1  0  0  0  0  0  0  0  0  0
    2.6858    6.2703   24.0580 O   0  0  0  0  0  0  0  0  0  0  0  0
   -0.7574    2.6898   28.8791 C   0  0  0  0  0  0  0  0  0  0  0  0
   -1.6279    2.1405   29.9342 N   0  0  0  0  0  0  0  0  0  0  0  0
  1  2  1  1  0  0  0
  1  7  1  0  0  0  0
  1 30  1  0  0  0  0
  3  4  1  6  0  0  0
  3  9  1  0  0  0  0
  3 39  1  0  0  0  0
  5 10  1  0  0  0  0
  5 26  1  0  0  0  0
  5 32  1  1  0  0  0
  6 12  1  0  0  0  0
  6 36  1  0  0  0  0
  6 19  1  6  0  0  0
  7  8  1  6  0  0  0
  7 14  1  0  0  0  0
  9 16  1  0  0  0  0
 10 11  1  6  0  0  0
 10 18  1  0  0  0  0
 12 13  1  6  0  0  0
 12 20  1  0  0  0  0
 14 15  1  1  0  0  0
 14 22  1  0  0  0  0
 16 17  1  6  0  0  0
 16 24  1  0  0  0  0
 18 19  1  6  0  0  0
 18 25  1  0  0  0  0
 20 21  1  1  0  0  0
 20 27  1  0  0  0  0
 22 23  1  1  0  0  0
 22 29  1  0  0  0  0
 24  2  1  1  0  0  0
 24 31  1  0  0  0  0
 25 26  1  0  0  0  0
 25 33  1  1  0  0  0
 27 28  1  6  0  0  0
 27 35  1  0  0  0  0
 29 30  1  0  0  0  0
 29 37  1  1  0  0  0
 31 32  1  6  0  0  0
 31 39  1  0  0  0  0
 33 34  1  0  0  0  0
 35 36  1  0  0  0  0
 35 41  1  6  0  0  0
 37 38  1  0  0  0  0
 39 40  1  1  0  0  0
 41 42  1  0  0  0  0
M  END
>  <CHROM.1>
-122.84760683,-157.78723487,67.76292952,146.08588536,153.15385176,84.57548447
-171.69302107,164.54073670,-178.22048248,-170.01633687,176.54878018,177.55838849
-54.97235459,-41.44835905,94.97624274,-167.63226531,164.54058222,179.81298225
68.87355858,78.28863857,72.80976128,-85.21354515,4.27503343,5.03697172,26.35859895
-0.30071102,0.63705219,2.05855749

>  <Name>
1fyp_lig

>  <RI>
0

>  <Rbt.Current_Directory>
/home/itssahil/PROJECTS/Mol_Feturizer/New_Systems/rnas/1fyp

>  <Rbt.Executable>
rbdock ($Id: //depot/dev/client3/rdock/2013.1/src/exe/rbdock.cxx#4 $)

>  <Rbt.Library>
libRbt.so (2013.1, Build901 2013/11/27)

>  <Rbt.Parameter_File>
/export/apps/rDock/src/rDock_2013.1_src/data/scripts/dock_solv.prm

>  <Rbt.Receptor>
prm/pocket_docking_4.prm

>  <SCORE>
-66.011

>  <SCORE.INTER>
-60.4898

>  <SCORE.INTER.CONST>
1

>  <SCORE.INTER.POLAR>
-7.55201

>  <SCORE.INTER.ROT>
14

>  <SCORE.INTER.SOLV>
17.85

>  <SCORE.INTER.VDW>
-34.0365

>  <SCORE.INTER.norm>
-1.44023

>  <SCORE.INTRA>
-5.61949

>  <SCORE.INTRA.DIHEDRAL>
-22.0309

>  <SCORE.INTRA.DIHEDRAL.0>
48.7173

>  <SCORE.INTRA.POLAR>
0.807432

>  <SCORE.INTRA.POLAR.0>
-1.54691

>  <SCORE.INTRA.REPUL>
0

>  <SCORE.INTRA.REPUL.0>
0

>  <SCORE.INTRA.SOLV>
-1.86751

>  <SCORE.INTRA.SOLV.lig_0>
-64.052

>  <SCORE.INTRA.VDW>
3.58443

>  <SCORE.INTRA.VDW.0>
-7.0667

>  <SCORE.INTRA.norm>
-0.133797

>  <SCORE.RESTR>
0.098256

>  <SCORE.RESTR.CAVITY>
0.098256

>  <SCORE.RESTR.norm>
0.00233943

>  <SCORE.SYSTEM>
0

>  <SCORE.SYSTEM.CONST>
0

>  <SCORE.SYSTEM.DIHEDRAL>
0

>  <SCORE.SYSTEM.SOLV>
0

>  <SCORE.SYSTEM.norm>
0

>  <SCORE.heavy>
42

>  <SCORE.norm>
-1.57169

>  <RMSD>
1.565

$$$$
1fyp_lig
 OpenBabel11021811393D
libRbt.so/2013.1/901 2013/11/27
 42 45  0  0  0  0  0  0  0  0999 V2000
    6.6769    5.7648   26.9569 C   0  0  2  0  0  0  0  0  0  0  0  0
    5.5905    6.5892   26.4446 O   0  0  0  0  0  0  0  0  0  0  0  0
    3.5990    7.9797   22.9316 C   0  0  2  0  0  0  0  0  0  0  0  0
    3.1605    8.2855   21.5573 N   0  0  0  0  0  0  0  0  0  0  0  0
    2.5777    4.0475   25.1467 C   0  0  1  0  0  0  0  0  0  0  0  0
   -0.4012    0.9086   26.2392 C   0  0  1  0  0  0  0  0  0  0  0  0
    6.5343    5.5204   28.4938 C   0  0  2  0  0  0  0  0  0  0  0  0
    5.1808    5.0337   28.8361 N   0  0  0  0  0  0  0  0  0  0  0  0
    5.0801    8.3742   23.0972 C   0  0  0  0  0  0  0  0  0  0  0  0
    2.7928    2.5348   25.2418 C   0  0  2  0  0  0  0  0  0  0  0  0
    2.5148    1.9328   23.9770 O   0  0  0  0  0  0  0  0  0  0  0  0
    0.1512   -0.4975   25.8534 C   0  0  2  0  0  0  0  0  0  0  0  0
    0.5005   -0.5993   24.4153 N   0  0  0  0  0  0  0  0  0  0  0  0
    6.8619    6.8185   29.2961 C   0  0  1  0  0  0  0  0  0  0  0  0
    6.8831    6.5404   30.6939 O   0  0  0  0  0  0  0  0  0  0  0  0
    5.6032    8.1039   24.5345 C   0  0  2  0  0  0  0  0  0  0  0  0
    7.0424    8.4383   24.5614 N   0  0  0  0  0  0  0  0  0  0  0  0
    1.7499    2.1350   26.2891 C   0  0  2  0  0  0  0  0  0  0  0  0
    0.4298    1.9697   25.7005 O   0  0  0  0  0  0  0  0  0  0  0  0
   -0.8448   -1.6210   26.2762 C   0  0  1  0  0  0  0  0  0  0  0  0
   -0.7925   -1.7633   27.6941 O   0  0  0  0  0  0  0  0  0  0  0  0
    8.2332    7.4152   28.8916 C   0  0  2  0  0  0  0  0  0  0  0  0
    8.4300    8.6422   29.5878 O   0  0  0  0  0  0  0  0  0  0  0  0
    5.3480    6.6281   25.0090 C   0  0  2  0  0  0  0  0  0  0  0  0
    1.7699    3.3402   27.2396 C   0  0  2  0  0  0  0  0  0  0  0  0
    2.0790    4.4848   26.4210 O   0  0  0  0  0  0  0  0  0  0  0  0
   -2.3240   -1.3469   25.8677 C   0  0  2  0  0  0  0  0  0  0  0  0
   -2.4472   -1.5314   24.4565 O   0  0  0  0  0  0  0  0  0  0  0  0
    8.2913    7.6426   27.3544 C   0  0  2  0  0  0  0  0  0  0  0  0
    7.9730    6.3916   26.6735 O   0  0  0  0  0  0  0  0  0  0  0  0
    3.8846    6.1357   24.7152 C   0  0  2  0  0  0  0  0  0  0  0  0
    3.8536    4.6932   24.8727 O   0  0  0  0  0  0  0  0  0  0  0  0
    2.8073    3.2011   28.3680 C   0  0  0  0  0  0  0  0  0  0  0  0
    2.5579    4.1377   29.4016 O   0  0  0  0  0  0  0  0  0  0  0  0
   -2.7478    0.1024   26.2607 C   0  0  1  0  0  0  0  0  0  0  0  0
   -1.7734    1.0568   25.7388 O   0  0  0  0  0  0  0  0  0  0  0  0
    9.6658    8.1007   26.8178 C   0  0  0  0  0  0  0  0  0  0  0  0
    9.5282    9.1635   25.8900 O   0  0  0  0  0  0  0  0  0  0  0  0
    3.4039    6.4825   23.2719 C   0  0  1  0  0  0  0  0  0  0  0  0
    2.0205    6.1528   23.1570 O   0  0  0  0  0  0  0  0  0  0  0  0
   -4.1561    0.4776   25.7325 C   0  0  0  0  0  0  0  0  0  0  0  0
   -4.1310    0.9190   24.3262 N   0  0  0  0  0  0  0  0  0  0  0  0
  1  2  1  1  0  0  0
  1  7  1  0  0  0  0
  1 30  1  0  0  0  0
  3  4  1  6  0  0  0
  3  9  1  0  0  0  0
  3 39  1  0  0  0  0
  5 10  1  0  0  0  0
  5 26  1  0  0  0  0
  5 32  1  1  0  0  0
  6 12  1  0  0  0  0
  6 36  1  0  0  0  0
  6 19  1  6  0  0  0
  7  8  1  6  0  0  0
  7 14  1  0  0  0  0
  9 16  1  0  0  0  0
 10 11  1  6  0  0  0
 10 18  1  0  0  0  0
 12 13  1  6  0  0  0
 12 20  1  0  0  0  0
 14 15  1  1  0  0  0
 14 22  1  0  0  0  0
 16 17  1  6  0  0  0
 16 24  1  0  0  0  0
 18 19  1  6  0  0  0
 18 25  1  0  0  0  0
 20 21  1  1  0  0  0
 20 27  1  0  0  0  0
 22 23  1  1  0  0  0
 22 29  1  0  0  0  0
 24  2  1  1  0  0  0
 24 31  1  0  0  0  0
 25 26  1  0  0  0  0
 25 33  1  1  0  0  0
 27 28  1  6  0  0  0
 27 35  1  0  0  0  0
 29 30  1  0  0  0  0
 29 37  1  1  0  0  0
 31 32  1  6  0  0  0
 31 39  1  0  0  0  0
 33 34  1  0  0  0  0
 35 36  1  0  0  0  0
 35 41  1  6  0  0  0
 37 38  1  0  0  0  0
 39 40  1  1  0  0  0
 41 42  1  0  0  0  0
M  END
>  <CHROM.1>
-163.65154649,-116.52856566,-58.87273754,-168.60781068,-179.31671687,0.32773318
-97.86525427,110.99730701,143.63852583,-70.01588093,-67.76914591,65.53845453
-164.58643106,67.29725399,-135.25538641,157.51633633,178.83119927,60.69579434
-82.30603979,-66.39989846,-57.91972645,-74.40450442,3.16793005,4.26033053
26.06365887,-0.27487119,0.67825113,2.14363997

>  <Name>
1fyp_lig

>  <RI>
0

>  <Rbt.Current_Directory>
/home/itssahil/PROJECTS/Mol_Feturizer/New_Systems/rnas/1fyp

>  <Rbt.Executable>
rbdock ($Id: //depot/dev/client3/rdock/2013.1/src/exe/rbdock.cxx#4 $)

>  <Rbt.Library>
libRbt.so (2013.1, Build901 2013/11/27)

>  <Rbt.Parameter_File>
/export/apps/rDock/src/rDock_2013.1_src/data/scripts/dock_solv.prm

>  <Rbt.Receptor>
prm/pocket_docking_8.prm

>  <SCORE>
-48.214

>  <SCORE.INTER>
-44.5231

>  <SCORE.INTER.CONST>
1

>  <SCORE.INTER.POLAR>
-4.84178

>  <SCORE.INTER.ROT>
14

>  <SCORE.INTER.SOLV>
16.9334

>  <SCORE.INTER.VDW>
-32.1206

>  <SCORE.INTER.norm>
-1.06007

>  <SCORE.INTRA>
-3.73117

>  <SCORE.INTRA.DIHEDRAL>
-14.7028

>  <SCORE.INTRA.DIHEDRAL.0>
48.7173

>  <SCORE.INTRA.POLAR>
0.51307

>  <SCORE.INTRA.POLAR.0>
-1.54691

>  <SCORE.INTRA.REPUL>
0.0504797

>  <SCORE.INTRA.REPUL.0>
0

>  <SCORE.INTRA.SOLV>
0.478243

>  <SCORE.INTRA.SOLV.lig_0>
-64.052

>  <SCORE.INTRA.VDW>
1.38426

>  <SCORE.INTRA.VDW.0>
-7.0667

>  <SCORE.INTRA.norm>
-0.0888373

>  <SCORE.RESTR>
0.0403498

>  <SCORE.RESTR.CAVITY>
0.0403498

>  <SCORE.RESTR.norm>
0.000960711

>  <SCORE.SYSTEM>
0

>  <SCORE.SYSTEM.CONST>
0

>  <SCORE.SYSTEM.DIHEDRAL>
0

>  <SCORE.SYSTEM.SOLV>
0

>  <SCORE.SYSTEM.norm>
0

>  <SCORE.heavy>
42

>  <SCORE.norm>
-1.14795

>  <RMSD>
1.616

$$$$
1fyp_lig
 OpenBabel11021811393D
libRbt.so/2013.1/901 2013/11/27
 42 45  0  0  0  0  0  0  0  0999 V2000
    6.3352    5.7880   26.8747 C   0  0  2  0  0  0  0  0  0  0  0  0
    5.7180    6.9339   26.2202 O   0  0  0  0  0  0  0  0  0  0  0  0
    4.6942    8.6666   22.4532 C   0  0  2  0  0  0  0  0  0  0  0  0
    4.5964    9.0656   21.0370 N   0  0  0  0  0  0  0  0  0  0  0  0
    3.2214    4.8065   25.2215 C   0  0  1  0  0  0  0  0  0  0  0  0
    0.6559    1.8474   27.3378 C   0  0  1  0  0  0  0  0  0  0  0  0
    6.1134    5.8240   28.4211 C   0  0  2  0  0  0  0  0  0  0  0  0
    4.6870    6.0256   28.7537 N   0  0  0  0  0  0  0  0  0  0  0  0
    6.1420    8.8670   22.9438 C   0  0  0  0  0  0  0  0  0  0  0  0
    2.9027    3.3427   24.9067 C   0  0  2  0  0  0  0  0  0  0  0  0
    1.6939    3.2696   24.1498 O   0  0  0  0  0  0  0  0  0  0  0  0
   -0.1130    1.1042   26.2031 C   0  0  2  0  0  0  0  0  0  0  0  0
   -0.8784    2.0284   25.3312 N   0  0  0  0  0  0  0  0  0  0  0  0
    6.9860    6.9364   29.0824 C   0  0  1  0  0  0  0  0  0  0  0  0
    6.8952    6.8534   30.5024 O   0  0  0  0  0  0  0  0  0  0  0  0
    6.3126    8.4908   24.4410 C   0  0  2  0  0  0  0  0  0  0  0  0
    7.7421    8.6409   24.7841 N   0  0  0  0  0  0  0  0  0  0  0  0
    2.7179    2.7535   26.3078 C   0  0  2  0  0  0  0  0  0  0  0  0
    1.3789    2.9957   26.8228 O   0  0  0  0  0  0  0  0  0  0  0  0
   -1.0311   -0.0109   26.7920 C   0  0  1  0  0  0  0  0  0  0  0  0
   -0.2094   -1.0933   27.2245 O   0  0  0  0  0  0  0  0  0  0  0  0
    8.4763    6.8172   28.6762 C   0  0  2  0  0  0  0  0  0  0  0  0
    9.1992    7.9103   29.2342 O   0  0  0  0  0  0  0  0  0  0  0  0
    5.7922    7.0454   24.7699 C   0  0  2  0  0  0  0  0  0  0  0  0
    3.7591    3.5320   27.1241 C   0  0  2  0  0  0  0  0  0  0  0  0
    3.8464    4.8346   26.5148 O   0  0  0  0  0  0  0  0  0  0  0  0
   -1.9017    0.4530   27.9989 C   0  0  2  0  0  0  0  0  0  0  0  0
   -2.9472    1.2937   27.5082 O   0  0  0  0  0  0  0  0  0  0  0  0
    8.6148    6.8031   27.1274 C   0  0  2  0  0  0  0  0  0  0  0  0
    7.7723    5.7437   26.5816 O   0  0  0  0  0  0  0  0  0  0  0  0
    4.3776    6.7495   24.1524 C   0  0  2  0  0  0  0  0  0  0  0  0
    4.1460    5.3183   24.2199 O   0  0  0  0  0  0  0  0  0  0  0  0
    5.1431    2.8589   27.1346 C   0  0  0  0  0  0  0  0  0  0  0  0
    5.6922    2.8127   25.8292 O   0  0  0  0  0  0  0  0  0  0  0  0
   -1.0355    1.2240   29.0429 C   0  0  1  0  0  0  0  0  0  0  0  0
   -0.2889    2.2851   28.3728 O   0  0  0  0  0  0  0  0  0  0  0  0
   10.0458    6.5427   26.6064 C   0  0  0  0  0  0  0  0  0  0  0  0
   10.9506    7.5300   27.0710 O   0  0  0  0  0  0  0  0  0  0  0  0
    4.2583    7.1963   22.6622 C   0  0  1  0  0  0  0  0  0  0  0  0
    2.9021    7.0465   22.2451 O   0  0  0  0  0  0  0  0  0  0  0  0
   -1.8839    1.8446   30.1823 C   0  0  0  0  0  0  0  0  0  0  0  0
   -1.0693    2.6295   31.1275 N   0  0  0  0  0  0  0  0  0  0  0  0
  1  2  1  6  0  0  0
  1  7  1  0  0  0  0
  1 30  1  0  0  0  0
  3  4  1  6  0  0  0
  3  9  1  0  0  0  0
  3 39  1  0  0  0  0
  5 10  1  0  0  0  0
  5 26  1  0  0  0  0
  5 32  1  6  0  0  0
  6 12  1  0  0  0  0
  6 36  1  0  0  0  0
  6 19  1  6  0  0  0
  7  8  1  6  0  0  0
  7 14  1  0  0  0  0
  9 16  1  0  0  0  0
 10 11  1  6  0  0  0
 10 18  1  0  0  0  0
 12 13  1  1  0  0  0
 12 20  1  0  0  0  0
 14 15  1  1  0  0  0
 14 22  1  0  0  0  0
 16 17  1  6  0  0  0
 16 24  1  0  0  0  0
 18 19  1  1  0  0  0
 18 25  1  0  0  0  0
 20 21  1  1  0  0  0
 20 27  1  0  0  0  0
 22 23  1  6  0  0  0
 22 29  1  0  0  0  0
 24  2  1  1  0  0  0
 24 31  1  0  0  0  0
 25 26  1  0  0  0  0
 25 33  1  6  0  0  0
 27 28  1  6  0  0  0
 27 35  1  0  0  0  0
 29 30  1  0  0  0  0
 29 37  1  1  0  0  0
 31 32  1  6  0  0  0
 31 39  1  0  0  0  0
 33 34  1  0  0  0  0
 35 36  1  0  0  0  0
 35 41  1  1  0  0  0
 37 38  1  0  0  0  0
 39 40  1  1  0  0  0
 41 42  1  0  0  0  0
M  END
>  <CHROM.1>
-178.28915085,-129.72879199,134.49116766,-95.50144083,165.27101367,63.55433079
-173.21209075,42.71267251,129.01975398,-86.68419669,-59.97210446,-58.82045245
63.52106700,65.00577749,-59.55210490,105.17182272,167.57787801,-178.33906123
-177.06441276,-61.13566408,76.33889672,62.40864785,3.87142808,4.80562420
26.43272975,-0.39642100,0.53903502,1.99263181

>  <Name>
1fyp_lig

>  <RI>
0

>  <Rbt.Current_Directory>
/home/itssahil/PROJECTS/Mol_Feturizer/New_Systems/rnas/1fyp

>  <Rbt.Executable>
rbdock ($Id: //depot/dev/client3/rdock/2013.1/src/exe/rbdock.cxx#4 $)

>  <Rbt.Library>
libRbt.so (2013.1, Build901 2013/11/27)

>  <Rbt.Parameter_File>
/export/apps/rDock/src/rDock_2013.1_src/data/scripts/dock_solv.prm

>  <Rbt.Receptor>
prm/blind_docking_80.prm

>  <SCORE>
-44.8888

>  <SCORE.INTER>
-36.8806

>  <SCORE.INTER.CONST>
1

>  <SCORE.INTER.POLAR>
-4.16681

>  <SCORE.INTER.ROT>
14

>  <SCORE.INTER.SOLV>
18.5388

>  <SCORE.INTER.VDW>
-29.8106

>  <SCORE.INTER.norm>
-0.87811

>  <SCORE.INTRA>
-8.87548

>  <SCORE.INTRA.DIHEDRAL>
-17.9817

>  <SCORE.INTRA.DIHEDRAL.0>
48.7173

>  <SCORE.INTRA.POLAR>
-0.412973

>  <SCORE.INTRA.POLAR.0>
-1.54691

>  <SCORE.INTRA.REPUL>
0

>  <SCORE.INTRA.REPUL.0>
0

>  <SCORE.INTRA.SOLV>
1.0183

>  <SCORE.INTRA.SOLV.lig_0>
-64.052

>  <SCORE.INTRA.VDW>
1.01032

>  <SCORE.INTRA.VDW.0>
-7.0667

>  <SCORE.INTRA.norm>
-0.211321

>  <SCORE.RESTR>
0.867336

>  <SCORE.RESTR.CAVITY>
0.867336

>  <SCORE.RESTR.norm>
0.0206509

>  <SCORE.SYSTEM>
0

>  <SCORE.SYSTEM.CONST>
0

>  <SCORE.SYSTEM.DIHEDRAL>
0

>  <SCORE.SYSTEM.SOLV>
0

>  <SCORE.SYSTEM.norm>
0

>  <SCORE.heavy>
42

>  <SCORE.norm>
-1.06878

>  <RMSD>
1.628

$$$$
1fyp_lig
 OpenBabel11021811393D
libRbt.so/2013.1/901 2013/11/27
 42 45  0  0  0  0  0  0  0  0999 V2000
    6.3212    4.6796   27.1684 C   0  0  2  0  0  0  0  0  0  0  0  0
    5.1963    5.4849   26.7118 O   0  0  0  0  0  0  0  0  0  0  0  0
    3.4556    7.4049   23.3170 C   0  0  2  0  0  0  0  0  0  0  0  0
    3.0951    7.8918   21.9726 N   0  0  0  0  0  0  0  0  0  0  0  0
    2.0694    3.3532   25.1996 C   0  0  1  0  0  0  0  0  0  0  0  0
   -0.9861    0.1956   25.8923 C   0  0  1  0  0  0  0  0  0  0  0  0
    6.1787    4.3009   28.6778 C   0  0  2  0  0  0  0  0  0  0  0  0
    4.8507    3.7162   28.9610 N   0  0  0  0  0  0  0  0  0  0  0  0
    4.9562    7.6549   23.5678 C   0  0  0  0  0  0  0  0  0  0  0  0
    2.1533    1.8270   25.1144 C   0  0  2  0  0  0  0  0  0  0  0  0
    1.7300    1.3974   23.8199 O   0  0  0  0  0  0  0  0  0  0  0  0
   -2.1752    0.1193   24.8866 C   0  0  2  0  0  0  0  0  0  0  0  0
   -2.9421    1.3867   24.8113 N   0  0  0  0  0  0  0  0  0  0  0  0
    6.4287    5.5433   29.5889 C   0  0  1  0  0  0  0  0  0  0  0  0
    6.4529    5.1513   30.9591 O   0  0  0  0  0  0  0  0  0  0  0  0
    5.4015    7.1895   24.9811 C   0  0  2  0  0  0  0  0  0  0  0  0
    6.8606    7.3983   25.0862 N   0  0  0  0  0  0  0  0  0  0  0  0
    1.1581    1.3973   26.1958 C   0  0  2  0  0  0  0  0  0  0  0  0
   -0.2111    1.4084   25.7044 O   0  0  0  0  0  0  0  0  0  0  0  0
   -3.1057   -1.0881   25.2170 C   0  0  1  0  0  0  0  0  0  0  0  0
   -2.4401   -2.2908   24.8375 O   0  0  0  0  0  0  0  0  0  0  0  0
    7.7693    6.2436   29.2531 C   0  0  2  0  0  0  0  0  0  0  0  0
    7.8935    7.4171   30.0508 O   0  0  0  0  0  0  0  0  0  0  0  0
    5.0120    5.6977   25.2828 C   0  0  2  0  0  0  0  0  0  0  0  0
    1.3567    2.4810   27.2647 C   0  0  2  0  0  0  0  0  0  0  0  0
    1.7070    3.6821   26.5503 O   0  0  0  0  0  0  0  0  0  0  0  0
   -3.4934   -1.1995   26.7228 C   0  0  2  0  0  0  0  0  0  0  0  0
   -4.4353   -0.1694   27.0267 O   0  0  0  0  0  0  0  0  0  0  0  0
    7.8282    6.6010   27.7408 C   0  0  2  0  0  0  0  0  0  0  0  0
    7.5838    5.3959   26.9548 O   0  0  0  0  0  0  0  0  0  0  0  0
    3.5263    5.3629   24.8945 C   0  0  2  0  0  0  0  0  0  0  0  0
    3.3748    3.9195   24.8914 O   0  0  0  0  0  0  0  0  0  0  0  0
    2.4572    2.1304   28.2818 C   0  0  0  0  0  0  0  0  0  0  0  0
    2.4648    0.7408   28.5588 O   0  0  0  0  0  0  0  0  0  0  0  0
   -2.2323   -1.0615   27.6311 C   0  0  1  0  0  0  0  0  0  0  0  0
   -1.4961    0.1464   27.2681 O   0  0  0  0  0  0  0  0  0  0  0  0
    9.1806    7.1746   27.2620 C   0  0  0  0  0  0  0  0  0  0  0  0
    9.1865    7.3763   25.8589 O   0  0  0  0  0  0  0  0  0  0  0  0
    3.1296    5.9013   23.4848 C   0  0  1  0  0  0  0  0  0  0  0  0
    1.7296    5.7019   23.2944 O   0  0  0  0  0  0  0  0  0  0  0  0
   -2.5851   -1.0043   29.1396 C   0  0  0  0  0  0  0  0  0  0  0  0
   -3.6594   -0.0378   29.4305 N   0  0  0  0  0  0  0  0  0  0  0  0
  1  2  1  1  0  0  0
  1  7  1  0  0  0  0
  1 30  1  0  0  0  0
  3  4  1  6  0  0  0
  3  9  1  0  0  0  0
  3 39  1  0  0  0  0
  5 10  1  0  0  0  0
  5 26  1  0  0  0  0
  5 32  1  1  0  0  0
  6 12  1  0  0  0  0
  6 36  1  0  0  0  0
  6 19  1  1  0  0  0
  7  8  1  6  0  0  0
  7 14  1  0  0  0  0
  9 16  1  0  0  0  0
 10 11  1  6  0  0  0
 10 18  1  0  0  0  0
 12 13  1  1  0  0  0
 12 20  1  0  0  0  0
 14 15  1  1  0  0  0
 14 22  1  0  0  0  0
 16 17  1  6  0  0  0
 16 24  1  0  0  0  0
 18 19  1  6  0  0  0
 18 25  1  0  0  0  0
 20 21  1  1  0  0  0
 20 27  1  0  0  0  0
 22 23  1  1  0  0  0
 22 29  1  0  0  0  0
 24  2  1  1  0  0  0
 24 31  1  0  0  0  0
 25 26  1  0  0  0  0
 25 33  1  1  0  0  0
 27 28  1  1  0  0  0
 27 35  1  0  0  0  0
 29 30  1  0  0  0  0
 29 37  1  6  0  0  0
 31 32  1  6  0  0  0
 31 39  1  0  0  0  0
 33 34  1  0  0  0  0
 35 36  1  0  0  0  0
 35 41  1  1  0  0  0
 37 38  1  0  0  0  0
 39 40  1  1  0  0  0
 41 42  1  0  0  0  0
M  END
>  <CHROM.1>
-167.36634629,-107.41927324,-56.79765217,173.73732412,65.79162289,62.72959423
-176.29317016,-46.91548203,127.58078931,-158.07045946,-61.33208896,-63.35486609
-36.02631918,-42.82950883,175.45924837,150.94140587,179.18144450,-59.27871210
-48.62413690,-58.03506642,-67.52680116,45.92071272,2.62802626,3.49531113
26.42425016,-0.25390263,0.59507546,2.05723685

>  <Name>
1fyp_lig

>  <RI>
0

>  <Rbt.Current_Directory>
/home/itssahil/PROJECTS/Mol_Feturizer/New_Systems/rnas/1fyp

>  <Rbt.Executable>
rbdock ($Id: //depot/dev/client3/rdock/2013.1/src/exe/rbdock.cxx#4 $)

>  <Rbt.Library>
libRbt.so (2013.1, Build901 2013/11/27)

>  <Rbt.Parameter_File>
/export/apps/rDock/src/rDock_2013.1_src/data/scripts/dock_solv.prm

>  <Rbt.Receptor>
prm/blind_docking_40.prm

>  <SCORE>
-39.2296

>  <SCORE.INTER>
-31.1012

>  <SCORE.INTER.CONST>
1

>  <SCORE.INTER.POLAR>
-3.23535

>  <SCORE.INTER.ROT>
14

>  <SCORE.INTER.SOLV>
16.8141

>  <SCORE.INTER.VDW>
-28.4877

>  <SCORE.INTER.norm>
-0.740505

>  <SCORE.INTRA>
-8.21881

>  <SCORE.INTRA.DIHEDRAL>
-23.8953

>  <SCORE.INTRA.DIHEDRAL.0>
48.7173

>  <SCORE.INTRA.POLAR>
0.141157

>  <SCORE.INTRA.POLAR.0>
-1.54691

>  <SCORE.INTRA.REPUL>
0

>  <SCORE.INTRA.REPUL.0>
0

>  <SCORE.INTRA.SOLV>
-0.120882

>  <SCORE.INTRA.SOLV.lig_0>
-64.052

>  <SCORE.INTRA.VDW>
3.30932

>  <SCORE.INTRA.VDW.0>
-7.0667

>  <SCORE.INTRA.norm>
-0.195686

>  <SCORE.RESTR>
0.0904144

>  <SCORE.RESTR.CAVITY>
0.0904144

>  <SCORE.RESTR.norm>
0.00215272

>  <SCORE.SYSTEM>
0

>  <SCORE.SYSTEM.CONST>
0

>  <SCORE.SYSTEM.DIHEDRAL>
0

>  <SCORE.SYSTEM.SOLV>
0

>  <SCORE.SYSTEM.norm>
0

>  <SCORE.heavy>
42

>  <SCORE.norm>
-0.934038

>  <RMSD>
1.644

$$$$
1fyp_lig
 OpenBabel11021811393D
libRbt.so/2013.1/901 2013/11/27
 42 45  0  0  0  0  0  0  0  0999 V2000
    6.4438    5.6768   28.0619 C   0  0  2  0  0  0  0  0  0  0  0  0
    5.5171    6.5260   27.3253 O   0  0  0  0  0  0  0  0  0  0  0  0
    3.8236    7.3825   23.4992 C   0  0  2  0  0  0  0  0  0  0  0  0
    3.4823    7.4616   22.0668 N   0  0  0  0  0  0  0  0  0  0  0  0
    2.3867    3.9789   26.2543 C   0  0  1  0  0  0  0  0  0  0  0  0
   -0.9631    1.2413   25.6428 C   0  0  1  0  0  0  0  0  0  0  0  0
    6.3973    5.9743   29.5954 C   0  0  2  0  0  0  0  0  0  0  0  0
    5.0092    5.9532   30.1039 N   0  0  0  0  0  0  0  0  0  0  0  0
    5.3198    7.7028   23.6883 C   0  0  0  0  0  0  0  0  0  0  0  0
    2.2161    2.6495   25.5145 C   0  0  2  0  0  0  0  0  0  0  0  0
    1.5944    2.8834   24.2503 O   0  0  0  0  0  0  0  0  0  0  0  0
   -2.4514    1.7052   25.6135 C   0  0  2  0  0  0  0  0  0  0  0  0
   -2.9045    2.2543   26.9148 N   0  0  0  0  0  0  0  0  0  0  0  0
    7.0708    7.3452   29.9166 C   0  0  1  0  0  0  0  0  0  0  0  0
    7.1632    7.5291   31.3271 O   0  0  0  0  0  0  0  0  0  0  0  0
    5.7449    7.6644   25.1817 C   0  0  2  0  0  0  0  0  0  0  0  0
    7.2019    7.9032   25.2426 N   0  0  0  0  0  0  0  0  0  0  0  0
    1.2859    1.8825   26.4583 C   0  0  2  0  0  0  0  0  0  0  0  0
   -0.1085    2.2434   26.2528 O   0  0  0  0  0  0  0  0  0  0  0  0
   -3.3834    0.5521   25.1290 C   0  0  1  0  0  0  0  0  0  0  0  0
   -3.1966    0.3772   23.7261 O   0  0  0  0  0  0  0  0  0  0  0  0
    8.4941    7.4435   29.3127 C   0  0  2  0  0  0  0  0  0  0  0  0
    9.0152    8.7459   29.5597 O   0  0  0  0  0  0  0  0  0  0  0  0
    5.3536    6.3193   25.8928 C   0  0  2  0  0  0  0  0  0  0  0  0
    1.7676    2.3532   27.8377 C   0  0  2  0  0  0  0  0  0  0  0  0
    2.2274    3.7065   27.6558 O   0  0  0  0  0  0  0  0  0  0  0  0
   -3.1212   -0.8153   25.8302 C   0  0  2  0  0  0  0  0  0  0  0  0
   -3.6194   -0.7430   27.1670 O   0  0  0  0  0  0  0  0  0  0  0  0
    8.4547    7.1501   27.7860 C   0  0  2  0  0  0  0  0  0  0  0  0
    7.8118    5.8590   27.5636 O   0  0  0  0  0  0  0  0  0  0  0  0
    3.8745    5.8785   25.5964 C   0  0  2  0  0  0  0  0  0  0  0  0
    3.7256    4.4938   26.0050 O   0  0  0  0  0  0  0  0  0  0  0  0
    2.8998    1.4822   28.4106 C   0  0  0  0  0  0  0  0  0  0  0  0
    2.7417    0.1288   28.0222 O   0  0  0  0  0  0  0  0  0  0  0  0
   -1.5972   -1.1494   25.8404 C   0  0  1  0  0  0  0  0  0  0  0  0
   -0.8510   -0.0193   26.3869 O   0  0  0  0  0  0  0  0  0  0  0  0
    9.8388    7.0783   27.1033 C   0  0  0  0  0  0  0  0  0  0  0  0
    9.7163    7.0625   25.6912 O   0  0  0  0  0  0  0  0  0  0  0  0
    3.4978    5.9880   24.0862 C   0  0  1  0  0  0  0  0  0  0  0  0
    2.1012    5.7341   23.9418 O   0  0  0  0  0  0  0  0  0  0  0  0
   -1.2689   -2.4192   26.6669 C   0  0  0  0  0  0  0  0  0  0  0  0
   -2.2876   -2.7014   27.6942 N   0  0  0  0  0  0  0  0  0  0  0  0
  1  2  1  6  0  0  0
  1  7  1  0  0  0  0
  1 30  1  0  0  0  0
  3  4  1  6  0  0  0
  3  9  1  0  0  0  0
  3 39  1  0  0  0  0
  5 10  1  0  0  0  0
  5 26  1  0  0  0  0
  5 32  1  1  0  0  0
  6 12  1  0  0  0  0
  6 36  1  0  0  0  0
  6 19  1  1  0  0  0
  7  8  1  6  0  0  0
  7 14  1  0  0  0  0
  9 16  1  0  0  0  0
 10 11  1  6  0  0  0
 10 18  1  0  0  0  0
 12 13  1  1  0  0  0
 12 20  1  0  0  0  0
 14 15  1  1  0  0  0
 14 22  1  0  0  0  0
 16 17  1  6  0  0  0
 16 24  1  0  0  0  0
 18 19  1  6  0  0  0
 18 25  1  0  0  0  0
 20 21  1  6  0  0  0
 20 27  1  0  0  0  0
 22 23  1  6  0  0  0
 22 29  1  0  0  0  0
 24  2  1  1  0  0  0
 24 31  1  0  0  0  0
 25 26  1  0  0  0  0
 25 33  1  6  0  0  0
 27 28  1  1  0  0  0
 27 35  1  0  0  0  0
 29 30  1  0  0  0  0
 29 37  1  1  0  0  0
 31 32  1  6  0  0  0
 31 39  1  0  0  0  0
 33 34  1  0  0  0  0
 35 36  1  0  0  0  0
 35 41  1  1  0  0  0
 37 38  1  0  0  0  0
 39 40  1  1  0  0  0
 41 42  1  0  0  0  0
M  END
>  <CHROM.1>
-175.51162782,-120.66151149,154.25951377,-167.09464202,44.27198287,177.76720024
-61.59753692,-78.20498022,109.51472598,174.31187149,-61.19187305,-58.44306816
-33.85375595,122.54635977,-168.89517955,159.91082641,131.28152095,87.86114482
-24.33777931,161.28844202,-66.85562224,-177.30633066,3.00026521,4.00622012
26.57578229,-0.22117609,0.63971037,2.11490381

>  <Name>
1fyp_lig

>  <RI>
0

>  <Rbt.Current_Directory>
/home/itssahil/PROJECTS/Mol_Feturizer/New_Systems/rnas/1fyp

>  <Rbt.Executable>
rbdock ($Id: //depot/dev/client3/rdock/2013.1/src/exe/rbdock.cxx#4 $)

>  <Rbt.Library>
libRbt.so (2013.1, Build901 2013/11/27)

>  <Rbt.Parameter_File>
/export/apps/rDock/src/rDock_2013.1_src/data/scripts/dock_solv.prm

>  <Rbt.Receptor>
prm/pocket_docking_2.prm

>  <SCORE>
-41.1955

>  <SCORE.INTER>
-47.9784

>  <SCORE.INTER.CONST>
1

>  <SCORE.INTER.POLAR>
-6.16675

>  <SCORE.INTER.ROT>
14

>  <SCORE.INTER.SOLV>
21.1448

>  <SCORE.INTER.VDW>
-31.4113

>  <SCORE.INTER.norm>
-1.14234

>  <SCORE.INTRA>
3.50519

>  <SCORE.INTRA.DIHEDRAL>
-4.77779

>  <SCORE.INTRA.DIHEDRAL.0>
48.7173

>  <SCORE.INTRA.POLAR>
0.30466

>  <SCORE.INTRA.POLAR.0>
-1.54691

>  <SCORE.INTRA.REPUL>
0.111267

>  <SCORE.INTRA.REPUL.0>
0

>  <SCORE.INTRA.SOLV>
0.029275

>  <SCORE.INTRA.SOLV.lig_0>
-64.052

>  <SCORE.INTRA.VDW>
4.28727

>  <SCORE.INTRA.VDW.0>
-7.0667

>  <SCORE.INTRA.norm>
0.083457

>  <SCORE.RESTR>
3.27772

>  <SCORE.RESTR.CAVITY>
3.27772

>  <SCORE.RESTR.norm>
0.0780409

>  <SCORE.SYSTEM>
0

>  <SCORE.SYSTEM.CONST>
0

>  <SCORE.SYSTEM.DIHEDRAL>
0

>  <SCORE.SYSTEM.SOLV>
0

>  <SCORE.SYSTEM.norm>
0

>  <SCORE.heavy>
42

>  <SCORE.norm>
-0.980844

>  <RMSD>
1.667

$$$$
1fyp_lig
 OpenBabel11021811393D
libRbt.so/2013.1/901 2013/11/27
 42 45  0  0  0  0  0  0  0  0999 V2000
    6.3150    5.2552   27.3238 C   0  0  2  0  0  0  0  0  0  0  0  0
    5.3370    6.1891   26.7819 O   0  0  0  0  0  0  0  0  0  0  0  0
    3.3699    7.5395   23.2396 C   0  0  2  0  0  0  0  0  0  0  0  0
    2.9516    7.8456   21.8591 N   0  0  0  0  0  0  0  0  0  0  0  0
    2.4728    3.5281   25.3339 C   0  0  1  0  0  0  0  0  0  0  0  0
   -0.5861    0.5059   26.2313 C   0  0  1  0  0  0  0  0  0  0  0  0
    6.1558    5.0927   28.8699 C   0  0  2  0  0  0  0  0  0  0  0  0
    4.7548    4.7952   29.2364 N   0  0  0  0  0  0  0  0  0  0  0  0
    4.8268    7.9989   23.4478 C   0  0  0  0  0  0  0  0  0  0  0  0
    2.6986    2.0358   25.0775 C   0  0  2  0  0  0  0  0  0  0  0  0
    2.3506    1.7255   23.7277 O   0  0  0  0  0  0  0  0  0  0  0  0
   -0.2183   -1.0039   26.1038 C   0  0  2  0  0  0  0  0  0  0  0  0
    0.1043   -1.3978   24.7106 N   0  0  0  0  0  0  0  0  0  0  0  0
    6.6514    6.3702   29.6173 C   0  0  1  0  0  0  0  0  0  0  0  0
    6.6493    6.1480   31.0252 O   0  0  0  0  0  0  0  0  0  0  0  0
    5.3265    7.7313   24.8939 C   0  0  2  0  0  0  0  0  0  0  0  0
    6.7476    8.1308   24.9616 N   0  0  0  0  0  0  0  0  0  0  0  0
    1.7191    1.3961   26.0653 C   0  0  2  0  0  0  0  0  0  0  0  0
    0.3679    1.3441   25.5285 O   0  0  0  0  0  0  0  0  0  0  0  0
   -1.3448   -1.9025   26.7009 C   0  0  1  0  0  0  0  0  0  0  0  0
   -1.3000   -1.8010   28.1226 O   0  0  0  0  0  0  0  0  0  0  0  0
    8.0836    6.7721   29.1841 C   0  0  2  0  0  0  0  0  0  0  0  0
    8.4395    7.9913   29.8287 O   0  0  0  0  0  0  0  0  0  0  0  0
    5.1281    6.2384   25.3413 C   0  0  2  0  0  0  0  0  0  0  0  0
    1.7893    2.3601   27.2579 C   0  0  2  0  0  0  0  0  0  0  0  0
    2.0465    3.6630   26.6991 O   0  0  0  0  0  0  0  0  0  0  0  0
   -2.7807   -1.5204   26.2296 C   0  0  2  0  0  0  0  0  0  0  0  0
   -2.9369   -1.9310   24.8704 O   0  0  0  0  0  0  0  0  0  0  0  0
    8.1567    6.9284   27.6386 C   0  0  2  0  0  0  0  0  0  0  0  0
    7.6773    5.7013   27.0106 O   0  0  0  0  0  0  0  0  0  0  0  0
    3.6967    5.6840   25.0040 C   0  0  2  0  0  0  0  0  0  0  0  0
    3.7284    4.2394   25.1406 O   0  0  0  0  0  0  0  0  0  0  0  0
    2.8903    1.9908   28.2679 C   0  0  0  0  0  0  0  0  0  0  0  0
    4.1765    2.2112   27.7159 O   0  0  0  0  0  0  0  0  0  0  0  0
   -3.0153    0.0167   26.3585 C   0  0  1  0  0  0  0  0  0  0  0  0
   -1.9324    0.7357   25.6929 O   0  0  0  0  0  0  0  0  0  0  0  0
    9.5734    7.1871   27.0791 C   0  0  0  0  0  0  0  0  0  0  0  0
    9.5824    7.1490   25.6621 O   0  0  0  0  0  0  0  0  0  0  0  0
    3.2360    6.0300   23.5540 C   0  0  1  0  0  0  0  0  0  0  0  0
    1.8724    5.6391   23.3998 O   0  0  0  0  0  0  0  0  0  0  0  0
   -4.3691    0.4680   25.7528 C   0  0  0  0  0  0  0  0  0  0  0  0
   -4.3915    1.9069   25.4334 N   0  0  0  0  0  0  0  0  0  0  0  0
  1  2  1  1  0  0  0
  1  7  1  0  0  0  0
  1 30  1  0  0  0  0
  3  4  1  6  0  0  0
  3  9  1  0  0  0  0
  3 39  1  0  0  0  0
  5 10  1  0  0  0  0
  5 26  1  0  0  0  0
  5 32  1  1  0  0  0
  6 12  1  0  0  0  0
  6 36  1  0  0  0  0
  6 19  1  6  0  0  0
  7  8  1  6  0  0  0
  7 14  1  0  0  0  0
  9 16  1  0  0  0  0
 10 11  1  6  0  0  0
 10 18  1  0  0  0  0
 12 13  1  6  0  0  0
 12 20  1  0  0  0  0
 14 15  1  1  0  0  0
 14 22  1  0  0  0  0
 16 17  1  6  0  0  0
 16 24  1  0  0  0  0
 18 19  1  6  0  0  0
 18 25  1  0  0  0  0
 20 21  1  1  0  0  0
 20 27  1  0  0  0  0
 22 23  1  1  0  0  0
 22 29  1  0  0  0  0
 24  2  1  1  0  0  0
 24 31  1  0  0  0  0
 25 26  1  0  0  0  0
 25 33  1  1  0  0  0
 27 28  1  6  0  0  0
 27 35  1  0  0  0  0
 29 30  1  0  0  0  0
 29 37  1  1  0  0  0
 31 32  1  6  0  0  0
 31 39  1  0  0  0  0
 33 34  1  0  0  0  0
 35 36  1  0  0  0  0
 35 41  1  6  0  0  0
 37 38  1  0  0  0  0
 39 40  1  1  0  0  0
 41 42  1  0  0  0  0
M  END
>  <CHROM.1>
-166.10892878,-125.64551279,173.72470877,175.98872933,-67.22200558,-79.04618270
61.41805999,-35.57282050,166.80650499,-67.39869143,62.71835489,177.24752575
69.35058150,169.16034844,172.58425343,159.31288871,164.98777515,84.14294568
-159.50645890,51.28471000,-71.82628789,33.11795188,3.00169579,3.74413065
26.23823962,-0.30521824,0.62732579,2.22758065

>  <Name>
1fyp_lig

>  <RI>
0

>  <Rbt.Current_Directory>
/home/itssahil/PROJECTS/Mol_Feturizer/New_Systems/rnas/1fyp

>  <Rbt.Executable>
rbdock ($Id: //depot/dev/client3/rdock/2013.1/src/exe/rbdock.cxx#4 $)

>  <Rbt.Library>
libRbt.so (2013.1, Build901 2013/11/27)

>  <Rbt.Parameter_File>
/export/apps/rDock/src/rDock_2013.1_src/data/scripts/dock_solv.prm

>  <Rbt.Receptor>
prm/pocket_docking_2.prm

>  <SCORE>
-42.8136

>  <SCORE.INTER>
-27.8766

>  <SCORE.INTER.CONST>
1

>  <SCORE.INTER.POLAR>
-2.43069

>  <SCORE.INTER.ROT>
14

>  <SCORE.INTER.SOLV>
20.1679

>  <SCORE.INTER.VDW>
-30.1381

>  <SCORE.INTER.norm>
-0.663729

>  <SCORE.INTRA>
-16.1816

>  <SCORE.INTRA.DIHEDRAL>
-27.3917

>  <SCORE.INTRA.DIHEDRAL.0>
48.7173

>  <SCORE.INTRA.POLAR>
-1.15228

>  <SCORE.INTRA.POLAR.0>
-1.54691

>  <SCORE.INTRA.REPUL>
0.000343854

>  <SCORE.INTRA.REPUL.0>
0

>  <SCORE.INTRA.SOLV>
-0.218281

>  <SCORE.INTRA.SOLV.lig_0>
-64.052

>  <SCORE.INTRA.VDW>
1.53937

>  <SCORE.INTRA.VDW.0>
-7.0667

>  <SCORE.INTRA.norm>
-0.385277

>  <SCORE.RESTR>
1.24466

>  <SCORE.RESTR.CAVITY>
1.24466

>  <SCORE.RESTR.norm>
0.0296349

>  <SCORE.SYSTEM>
0

>  <SCORE.SYSTEM.CONST>
0

>  <SCORE.SYSTEM.DIHEDRAL>
0

>  <SCORE.SYSTEM.SOLV>
0

>  <SCORE.SYSTEM.norm>
0

>  <SCORE.heavy>
42

>  <SCORE.norm>
-1.01937

>  <RMSD>
1.670

$$$$
1fyp_lig
 OpenBabel11021811393D
libRbt.so/2013.1/901 2013/11/27
 42 45  0  0  0  0  0  0  0  0999 V2000
    6.9663    6.2728   26.2587 C   0  0  2  0  0  0  0  0  0  0  0  0
    6.0482    7.3579   25.9390 O   0  0  0  0  0  0  0  0  0  0  0  0
    2.9614    8.5819   23.2531 C   0  0  2  0  0  0  0  0  0  0  0  0
    2.0778    8.8224   22.0974 N   0  0  0  0  0  0  0  0  0  0  0  0
    2.6553    4.6687   25.2981 C   0  0  1  0  0  0  0  0  0  0  0  0
   -0.1435    1.3025   26.1685 C   0  0  1  0  0  0  0  0  0  0  0  0
    6.6764    5.6759   27.6735 C   0  0  2  0  0  0  0  0  0  0  0  0
    5.2462    5.3353   27.8292 N   0  0  0  0  0  0  0  0  0  0  0  0
    4.4047    8.9818   22.8872 C   0  0  0  0  0  0  0  0  0  0  0  0
    2.9591    3.1897   25.5512 C   0  0  2  0  0  0  0  0  0  0  0  0
    2.8996    2.4725   24.3177 O   0  0  0  0  0  0  0  0  0  0  0  0
    0.5813   -0.0132   25.7507 C   0  0  2  0  0  0  0  0  0  0  0  0
    1.0297    0.0055   24.3369 N   0  0  0  0  0  0  0  0  0  0  0  0
    7.1230    6.6640   28.7962 C   0  0  1  0  0  0  0  0  0  0  0  0
    7.0005    6.0443   30.0739 O   0  0  0  0  0  0  0  0  0  0  0  0
    5.3889    8.7796   24.0717 C   0  0  2  0  0  0  0  0  0  0  0  0
    6.7465    9.1129   23.5926 N   0  0  0  0  0  0  0  0  0  0  0  0
    1.8123    2.7891   26.4832 C   0  0  2  0  0  0  0  0  0  0  0  0
    0.6000    2.4742   25.7430 O   0  0  0  0  0  0  0  0  0  0  0  0
   -0.3119   -1.2575   26.0461 C   0  0  1  0  0  0  0  0  0  0  0  0
   -0.3342   -1.4754   27.4552 O   0  0  0  0  0  0  0  0  0  0  0  0
    8.5911    7.1225   28.6097 C   0  0  2  0  0  0  0  0  0  0  0  0
    8.9065    8.0896   29.6068 O   0  0  0  0  0  0  0  0  0  0  0  0
    5.3320    7.3286   24.6712 C   0  0  2  0  0  0  0  0  0  0  0  0
    1.6184    4.0612   27.3202 C   0  0  2  0  0  0  0  0  0  0  0  0
    1.9574    5.1609   26.4532 O   0  0  0  0  0  0  0  0  0  0  0  0
   -1.7832   -1.1166   25.5510 C   0  0  2  0  0  0  0  0  0  0  0  0
   -1.7962   -1.2310   24.1271 O   0  0  0  0  0  0  0  0  0  0  0  0
    8.7951    7.7164   27.1871 C   0  0  2  0  0  0  0  0  0  0  0  0
    8.3553    6.7415   26.1942 O   0  0  0  0  0  0  0  0  0  0  0  0
    3.8634    6.8247   24.9151 C   0  0  2  0  0  0  0  0  0  0  0  0
    3.9091    5.3915   25.1390 O   0  0  0  0  0  0  0  0  0  0  0  0
    2.4981    4.0922   28.5827 C   0  0  0  0  0  0  0  0  0  0  0  0
    2.4429    5.3637   29.2057 O   0  0  0  0  0  0  0  0  0  0  0  0
   -2.3855    0.2551   25.9869 C   0  0  1  0  0  0  0  0  0  0  0  0
   -1.4893    1.3349   25.5827 O   0  0  0  0  0  0  0  0  0  0  0  0
   10.2566    8.0752   26.8374 C   0  0  0  0  0  0  0  0  0  0  0  0
   10.7449    9.1142   27.6689 O   0  0  0  0  0  0  0  0  0  0  0  0
    2.9159    7.1029   23.7070 C   0  0  1  0  0  0  0  0  0  0  0  0
    1.5808    6.7700   24.0843 O   0  0  0  0  0  0  0  0  0  0  0  0
   -3.7900    0.5108   25.3826 C   0  0  0  0  0  0  0  0  0  0  0  0
   -4.1264    1.9449   25.3263 N   0  0  0  0  0  0  0  0  0  0  0  0
  1  2  1  1  0  0  0
  1  7  1  0  0  0  0
  1 30  1  0  0  0  0
  3  4  1  6  0  0  0
  3  9  1  0  0  0  0
  3 39  1  0  0  0  0
  5 10  1  0  0  0  0
  5 26  1  0  0  0  0
  5 32  1  1  0  0  0
  6 12  1  0  0  0  0
  6 36  1  0  0  0  0
  6 19  1  6  0  0  0
  7  8  1  6  0  0  0
  7 14  1  0  0  0  0
  9 16  1  0  0  0  0
 10 11  1  6  0  0  0
 10 18  1  0  0  0  0
 12 13  1  6  0  0  0
 12 20  1  0  0  0  0
 14 15  1  1  0  0  0
 14 22  1  0  0  0  0
 16 17  1  6  0  0  0
 16 24  1  0  0  0  0
 18 19  1  6  0  0  0
 18 25  1  0  0  0  0
 20 21  1  1  0  0  0
 20 27  1  0  0  0  0
 22 23  1  1  0  0  0
 22 29  1  0  0  0  0
 24  2  1  1  0  0  0
 24 31  1  0  0  0  0
 25 26  1  0  0  0  0
 25 33  1  1  0  0  0
 27 28  1  6  0  0  0
 27 35  1  0  0  0  0
 29 30  1  0  0  0  0
 29 37  1  6  0  0  0
 31 32  1  6  0  0  0
 31 39  1  0  0  0  0
 33 34  1  0  0  0  0
 35 36  1  0  0  0  0
 35 41  1  6  0  0  0
 37 38  1  0  0  0  0
 39 40  1  1  0  0  0
 41 42  1  0  0  0  0
M  END
>  <CHROM.1>
-128.94686774,-136.44989350,-176.38778293,26.18586083,161.69122648,45.53716664
-178.63322789,61.97017543,136.98219960,-73.68605757,177.82174913,-52.23856526
170.81997965,66.62917495,-64.50154607,-175.77207187,-178.77509739,178.57888352
-157.09103853,51.98502940,68.11644064,31.18075531,3.30861785,4.67840692,26.01529755
-0.42237958,0.57987932,2.41496043

>  <Name>
1fyp_lig

>  <RI>
0

>  <Rbt.Current_Directory>
/home/itssahil/PROJECTS/Mol_Feturizer/New_Systems/rnas/1fyp

>  <Rbt.Executable>
rbdock ($Id: //depot/dev/client3/rdock/2013.1/src/exe/rbdock.cxx#4 $)

>  <Rbt.Library>
libRbt.so (2013.1, Build901 2013/11/27)

>  <Rbt.Parameter_File>
/export/apps/rDock/src/rDock_2013.1_src/data/scripts/dock_solv.prm

>  <Rbt.Receptor>
prm/pocket_docking_3.prm

>  <SCORE>
-43.3041

>  <SCORE.INTER>
-32.1685

>  <SCORE.INTER.CONST>
1

>  <SCORE.INTER.POLAR>
-3.28479

>  <SCORE.INTER.ROT>
14

>  <SCORE.INTER.SOLV>
17.1658

>  <SCORE.INTER.VDW>
-29.1517

>  <SCORE.INTER.norm>
-0.765917

>  <SCORE.INTRA>
-11.1356

>  <SCORE.INTRA.DIHEDRAL>
-21.1269

>  <SCORE.INTRA.DIHEDRAL.0>
48.7173

>  <SCORE.INTRA.POLAR>
-0.757668

>  <SCORE.INTRA.POLAR.0>
-1.54691

>  <SCORE.INTRA.REPUL>
0

>  <SCORE.INTRA.REPUL.0>
0

>  <SCORE.INTRA.SOLV>
-0.0857468

>  <SCORE.INTRA.SOLV.lig_0>
-64.052

>  <SCORE.INTRA.VDW>
2.04683

>  <SCORE.INTRA.VDW.0>
-7.0667

>  <SCORE.INTRA.norm>
-0.265133

>  <SCORE.RESTR>
0

>  <SCORE.RESTR.CAVITY>
0

>  <SCORE.RESTR.norm>
0

>  <SCORE.SYSTEM>
0

>  <SCORE.SYSTEM.CONST>
0

>  <SCORE.SYSTEM.DIHEDRAL>
0

>  <SCORE.SYSTEM.SOLV>
0

>  <SCORE.SYSTEM.norm>
0

>  <SCORE.heavy>
42

>  <SCORE.norm>
-1.03105

>  <RMSD>
1.711

$$$$
1fyp_lig
 OpenBabel11021811393D
libRbt.so/2013.1/901 2013/11/27
 42 45  0  0  0  0  0  0  0  0999 V2000
    6.9097    5.8854   26.8297 C   0  0  2  0  0  0  0  0  0  0  0  0
    5.7324    6.6644   26.4698 O   0  0  0  0  0  0  0  0  0  0  0  0
    3.3526    8.0975   23.2258 C   0  0  2  0  0  0  0  0  0  0  0  0
    2.7480    8.4040   21.9163 N   0  0  0  0  0  0  0  0  0  0  0  0
    2.4710    4.2557   25.6737 C   0  0  1  0  0  0  0  0  0  0  0  0
   -0.4540    1.0875   26.7792 C   0  0  1  0  0  0  0  0  0  0  0  0
    6.5443    4.7046   27.7859 C   0  0  2  0  0  0  0  0  0  0  0  0
    5.4216    3.9070   27.2483 N   0  0  0  0  0  0  0  0  0  0  0  0
    4.8590    8.4229   23.1840 C   0  0  0  0  0  0  0  0  0  0  0  0
    2.5388    2.7320   25.5422 C   0  0  2  0  0  0  0  0  0  0  0  0
    1.9232    2.3309   24.3175 O   0  0  0  0  0  0  0  0  0  0  0  0
    0.0676   -0.1260   25.9506 C   0  0  2  0  0  0  0  0  0  0  0  0
    0.2419    0.1962   24.5132 N   0  0  0  0  0  0  0  0  0  0  0  0
    6.1991    5.2318   29.2138 C   0  0  1  0  0  0  0  0  0  0  0  0
    6.0241    4.1392   30.1123 O   0  0  0  0  0  0  0  0  0  0  0  0
    5.5576    8.1488   24.5438 C   0  0  2  0  0  0  0  0  0  0  0  0
    7.0010    8.4140   24.3715 N   0  0  0  0  0  0  0  0  0  0  0  0
    1.7186    2.2760   26.7521 C   0  0  2  0  0  0  0  0  0  0  0  0
    0.2907    2.2955   26.4745 O   0  0  0  0  0  0  0  0  0  0  0  0
   -0.8540   -1.3692   26.1455 C   0  0  1  0  0  0  0  0  0  0  0  0
   -0.6287   -1.9007   27.4495 O   0  0  0  0  0  0  0  0  0  0  0  0
    7.3112    6.1550   29.7717 C   0  0  2  0  0  0  0  0  0  0  0  0
    6.8957    6.6750   31.0309 O   0  0  0  0  0  0  0  0  0  0  0  0
    5.3013    6.6940   25.0789 C   0  0  2  0  0  0  0  0  0  0  0  0
    2.0787    3.3356   27.8028 C   0  0  2  0  0  0  0  0  0  0  0  0
    2.3184    4.5533   27.0708 O   0  0  0  0  0  0  0  0  0  0  0  0
   -2.3755   -1.0627   26.0000 C   0  0  2  0  0  0  0  0  0  0  0  0
   -2.6657   -0.8499   24.6175 O   0  0  0  0  0  0  0  0  0  0  0  0
    7.6061    7.3099   28.7729 C   0  0  2  0  0  0  0  0  0  0  0  0
    7.9169    6.7430   27.4645 O   0  0  0  0  0  0  0  0  0  0  0  0
    3.7908    6.2682   24.9935 C   0  0  2  0  0  0  0  0  0  0  0  0
    3.7154    4.8314   25.1838 O   0  0  0  0  0  0  0  0  0  0  0  0
    3.3204    2.9642   28.6328 C   0  0  0  0  0  0  0  0  0  0  0  0
    3.1320    1.7271   29.2975 O   0  0  0  0  0  0  0  0  0  0  0  0
   -2.7691    0.1963   26.8332 C   0  0  1  0  0  0  0  0  0  0  0  0
   -1.8786    1.3042   26.4983 O   0  0  0  0  0  0  0  0  0  0  0  0
    8.7994    8.2122   29.1586 C   0  0  0  0  0  0  0  0  0  0  0  0
    8.6701    8.6985   30.4839 O   0  0  0  0  0  0  0  0  0  0  0  0
    3.1369    6.6166   23.6203 C   0  0  1  0  0  0  0  0  0  0  0  0
    1.7370    6.3520   23.6980 O   0  0  0  0  0  0  0  0  0  0  0  0
   -4.2361    0.6368   26.5945 C   0  0  0  0  0  0  0  0  0  0  0  0
   -4.4681    1.0979   25.2137 N   0  0  0  0  0  0  0  0  0  0  0  0
  1  2  1  1  0  0  0
  1  7  1  0  0  0  0
  1 30  1  0  0  0  0
  3  4  1  6  0  0  0
  3  9  1  0  0  0  0
  3 39  1  0  0  0  0
  5 10  1  0  0  0  0
  5 26  1  0  0  0  0
  5 32  1  1  0  0  0
  6 12  1  0  0  0  0
  6 36  1  0  0  0  0
  6 19  1  6  0  0  0
  7  8  1  6  0  0  0
  7 14  1  0  0  0  0
  9 16  1  0  0  0  0
 10 11  1  6  0  0  0
 10 18  1  0  0  0  0
 12 13  1  6  0  0  0
 12 20  1  0  0  0  0
 14 15  1  1  0  0  0
 14 22  1  0  0  0  0
 16 17  1  6  0  0  0
 16 24  1  0  0  0  0
 18 19  1  6  0  0  0
 18 25  1  0  0  0  0
 20 21  1  1  0  0  0
 20 27  1  0  0  0  0
 22 23  1  1  0  0  0
 22 29  1  0  0  0  0
 24  2  1  1  0  0  0
 24 31  1  0  0  0  0
 25 26  1  0  0  0  0
 25 33  1  6  0  0  0
 27 28  1  6  0  0  0
 27 35  1  0  0  0  0
 29 30  1  0  0  0  0
 29 37  1  1  0  0  0
 31 32  1  6  0  0  0
 31 39  1  0  0  0  0
 33 34  1  0  0  0  0
 35 36  1  0  0  0  0
 35 41  1  6  0  0  0
 37 38  1  0  0  0  0
 39 40  1  1  0  0  0
 41 42  1  0  0  0  0
M  END
>  <CHROM.1>
-115.68549939,-111.33469134,59.39824857,-3.07658142,62.64420533,-53.20682609
-66.08231850,175.21546862,128.95593347,-61.02393355,54.57512596,168.84469805
-58.24098396,74.65085665,-52.43986434,155.87291279,169.39218873,-176.61549086
-65.35467586,-64.80034379,172.52609890,-89.48541716,2.96734438,4.08633995
26.49868242,-0.28818555,0.64710007,2.24071652

>  <Name>
1fyp_lig

>  <RI>
0

>  <Rbt.Current_Directory>
/home/itssahil/PROJECTS/Mol_Feturizer/New_Systems/rnas/1fyp

>  <Rbt.Executable>
rbdock ($Id: //depot/dev/client3/rdock/2013.1/src/exe/rbdock.cxx#4 $)

>  <Rbt.Library>
libRbt.so (2013.1, Build901 2013/11/27)

>  <Rbt.Parameter_File>
/export/apps/rDock/src/rDock_2013.1_src/data/scripts/dock_solv.prm

>  <Rbt.Receptor>
prm/pocket_docking_2.prm

>  <SCORE>
-39.5883

>  <SCORE.INTER>
-32.4013

>  <SCORE.INTER.CONST>
1

>  <SCORE.INTER.POLAR>
-3.40816

>  <SCORE.INTER.ROT>
14

>  <SCORE.INTER.SOLV>
15.066

>  <SCORE.INTER.VDW>
-28.1956

>  <SCORE.INTER.norm>
-0.771459

>  <SCORE.INTRA>
-8.08579

>  <SCORE.INTRA.DIHEDRAL>
-18.38

>  <SCORE.INTRA.DIHEDRAL.0>
48.7173

>  <SCORE.INTRA.POLAR>
-0.711751

>  <SCORE.INTRA.POLAR.0>
-1.54691

>  <SCORE.INTRA.REPUL>
0.016297

>  <SCORE.INTRA.REPUL.0>
0

>  <SCORE.INTRA.SOLV>
1.45382

>  <SCORE.INTRA.SOLV.lig_0>
-64.052

>  <SCORE.INTRA.VDW>
2.71578

>  <SCORE.INTRA.VDW.0>
-7.0667

>  <SCORE.INTRA.norm>
-0.192519

>  <SCORE.RESTR>
0.898774

>  <SCORE.RESTR.CAVITY>
0.898774

>  <SCORE.RESTR.norm>
0.0213994

>  <SCORE.SYSTEM>
0

>  <SCORE.SYSTEM.CONST>
0

>  <SCORE.SYSTEM.DIHEDRAL>
0

>  <SCORE.SYSTEM.SOLV>
0

>  <SCORE.SYSTEM.norm>
0

>  <SCORE.heavy>
42

>  <SCORE.norm>
-0.942578

>  <RMSD>
1.782

$$$$
1fyp_lig
 OpenBabel11021811393D
libRbt.so/2013.1/901 2013/11/27
 42 45  0  0  0  0  0  0  0  0999 V2000
    7.0205    5.7575   28.5094 C   0  0  2  0  0  0  0  0  0  0  0  0
    5.9473    6.6621   28.1191 O   0  0  0  0  0  0  0  0  0  0  0  0
    2.8856    7.4312   25.2425 C   0  0  2  0  0  0  0  0  0  0  0  0
    2.0097    7.4761   24.0570 N   0  0  0  0  0  0  0  0  0  0  0  0
    2.8607    3.6498   27.0779 C   0  0  1  0  0  0  0  0  0  0  0  0
    0.8231    0.0776   25.6690 C   0  0  1  0  0  0  0  0  0  0  0  0
    6.8399    5.2551   29.9781 C   0  0  2  0  0  0  0  0  0  0  0  0
    5.4783    4.7233   30.1993 N   0  0  0  0  0  0  0  0  0  0  0  0
    4.3346    7.7482   24.8220 C   0  0  0  0  0  0  0  0  0  0  0  0
    3.6530    2.5244   26.4076 C   0  0  2  0  0  0  0  0  0  0  0  0
    3.8017    2.8087   25.0160 O   0  0  0  0  0  0  0  0  0  0  0  0
    0.2874   -0.2744   24.2477 C   0  0  2  0  0  0  0  0  0  0  0  0
   -0.2405    0.9095   23.5265 N   0  0  0  0  0  0  0  0  0  0  0  0
    7.1480    6.3957   30.9979 C   0  0  1  0  0  0  0  0  0  0  0  0
    7.1346    5.8831   32.3278 O   0  0  0  0  0  0  0  0  0  0  0  0
    5.3111    7.7451   26.0297 C   0  0  2  0  0  0  0  0  0  0  0  0
    6.6742    7.9777   25.5087 N   0  0  0  0  0  0  0  0  0  0  0  0
    2.7372    1.3183   26.6339 C   0  0  2  0  0  0  0  0  0  0  0  0
    1.6804    1.2483   25.6364 O   0  0  0  0  0  0  0  0  0  0  0  0
   -0.7748   -1.4143   24.3208 C   0  0  1  0  0  0  0  0  0  0  0  0
   -0.1040   -2.6422   24.5959 O   0  0  0  0  0  0  0  0  0  0  0  0
    8.5291    7.0465   30.7346 C   0  0  2  0  0  0  0  0  0  0  0  0
    8.7090    8.1358   31.6346 O   0  0  0  0  0  0  0  0  0  0  0  0
    5.2366    6.4204   26.8710 C   0  0  2  0  0  0  0  0  0  0  0  0
    2.1510    1.6152   28.0212 C   0  0  2  0  0  0  0  0  0  0  0  0
    2.0728    3.0505   28.1190 O   0  0  0  0  0  0  0  0  0  0  0  0
   -1.8654   -1.1987   25.4136 C   0  0  2  0  0  0  0  0  0  0  0  0
   -2.7510   -0.1676   24.9742 O   0  0  0  0  0  0  0  0  0  0  0  0
    8.6251    7.5327   29.2606 C   0  0  2  0  0  0  0  0  0  0  0  0
    8.3233    6.4177   28.3687 O   0  0  0  0  0  0  0  0  0  0  0  0
    3.7618    5.9801   27.1892 C   0  0  2  0  0  0  0  0  0  0  0  0
    3.7918    4.6069   27.6582 O   0  0  0  0  0  0  0  0  0  0  0  0
    3.0063    1.0524   29.1703 C   0  0  0  0  0  0  0  0  0  0  0  0
    3.4129   -0.2764   28.8933 O   0  0  0  0  0  0  0  0  0  0  0  0
   -1.2144   -0.8056   26.7759 C   0  0  1  0  0  0  0  0  0  0  0  0
   -0.3041    0.3191   26.5781 O   0  0  0  0  0  0  0  0  0  0  0  0
   10.0126    8.0694   28.8437 C   0  0  0  0  0  0  0  0  0  0  0  0
    9.9559    8.7217   27.5864 O   0  0  0  0  0  0  0  0  0  0  0  0
    2.8228    6.0536   25.9452 C   0  0  1  0  0  0  0  0  0  0  0  0
    1.4826    5.8036   26.3661 O   0  0  0  0  0  0  0  0  0  0  0  0
   -2.2632   -0.4240   27.8519 C   0  0  0  0  0  0  0  0  0  0  0  0
   -2.2734   -1.3646   28.9869 N   0  0  0  0  0  0  0  0  0  0  0  0
  1  2  1  1  0  0  0
  1  7  1  0  0  0  0
  1 30  1  0  0  0  0
  3  4  1  6  0  0  0
  3  9  1  0  0  0  0
  3 39  1  0  0  0  0
  5 10  1  0  0  0  0
  5 26  1  0  0  0  0
  5 32  1  1  0  0  0
  6 12  1  0  0  0  0
  6 36  1  0  0  0  0
  6 19  1  6  0  0  0
  7  8  1  6  0  0  0
  7 14  1  0  0  0  0
  9 16  1  0  0  0  0
 10 11  1  6  0  0  0
 10 18  1  0  0  0  0
 12 13  1  1  0  0  0
 12 20  1  0  0  0  0
 14 15  1  1  0  0  0
 14 22  1  0  0  0  0
 16 17  1  6  0  0  0
 16 24  1  0  0  0  0
 18 19  1  6  0  0  0
 18 25  1  0  0  0  0
 20 21  1  1  0  0  0
 20 27  1  0  0  0  0
 22 23  1  1  0  0  0
 22 29  1  0  0  0  0
 24  2  1  1  0  0  0
 24 31  1  0  0  0  0
 25 26  1  0  0  0  0
 25 33  1  1  0  0  0
 27 28  1  6  0  0  0
 27 35  1  0  0  0  0
 29 30  1  0  0  0  0
 29 37  1  6  0  0  0
 31 32  1  6  0  0  0
 31 39  1  0  0  0  0
 33 34  1  0  0  0  0
 35 36  1  0  0  0  0
 35 41  1  1  0  0  0
 37 38  1  0  0  0  0
 39 40  1  1  0  0  0
 41 42  1  0  0  0  0
M  END
>  <CHROM.1>
-129.53026450,-125.80098780,122.10747927,-89.39309566,-62.42395990,-17.64122914
-169.28681661,86.78771656,174.32269324,-150.18181124,72.45612033,62.32730713
-45.05703282,-52.79752854,-168.82432659,-131.66800613,119.47497050,-101.66363184
115.06915354,60.78879618,90.28480471,53.84172009,3.49063731,3.75534229,27.25598746
-0.25787084,0.75261510,2.31098119

>  <Name>
1fyp_lig

>  <RI>
0

>  <Rbt.Current_Directory>
/home/itssahil/PROJECTS/Mol_Feturizer/New_Systems/rnas/1fyp

>  <Rbt.Executable>
rbdock ($Id: //depot/dev/client3/rdock/2013.1/src/exe/rbdock.cxx#4 $)

>  <Rbt.Library>
libRbt.so (2013.1, Build901 2013/11/27)

>  <Rbt.Parameter_File>
/export/apps/rDock/src/rDock_2013.1_src/data/scripts/dock_solv.prm

>  <Rbt.Receptor>
prm/pocket_docking_8.prm

>  <SCORE>
-40.5322

>  <SCORE.INTER>
-48.0868

>  <SCORE.INTER.CONST>
1

>  <SCORE.INTER.POLAR>
-6.77803

>  <SCORE.INTER.ROT>
14

>  <SCORE.INTER.SOLV>
17.3888

>  <SCORE.INTER.VDW>
-28.194

>  <SCORE.INTER.norm>
-1.14492

>  <SCORE.INTRA>
7.55452

>  <SCORE.INTRA.DIHEDRAL>
6.62467

>  <SCORE.INTRA.DIHEDRAL.0>
48.7173

>  <SCORE.INTRA.POLAR>
0.0335566

>  <SCORE.INTRA.POLAR.0>
-1.54691

>  <SCORE.INTRA.REPUL>
0

>  <SCORE.INTRA.REPUL.0>
0

>  <SCORE.INTRA.SOLV>
-2.32916

>  <SCORE.INTRA.SOLV.lig_0>
-64.052

>  <SCORE.INTRA.VDW>
5.29267

>  <SCORE.INTRA.VDW.0>
-7.0667

>  <SCORE.INTRA.norm>
0.179869

>  <SCORE.RESTR>
0

>  <SCORE.RESTR.CAVITY>
0

>  <SCORE.RESTR.norm>
0

>  <SCORE.SYSTEM>
0

>  <SCORE.SYSTEM.CONST>
0

>  <SCORE.SYSTEM.DIHEDRAL>
0

>  <SCORE.SYSTEM.SOLV>
0

>  <SCORE.SYSTEM.norm>
0

>  <SCORE.heavy>
42

>  <SCORE.norm>
-0.965053

>  <RMSD>
1.782

$$$$
1fyp_lig
 OpenBabel11021811393D
libRbt.so/2013.1/901 2013/11/27
 42 45  0  0  0  0  0  0  0  0999 V2000
    6.6598    5.6723   26.9380 C   0  0  2  0  0  0  0  0  0  0  0  0
    5.3175    6.0204   26.4914 O   0  0  0  0  0  0  0  0  0  0  0  0
    3.3384    7.8943   23.2031 C   0  0  2  0  0  0  0  0  0  0  0  0
    2.9068    8.3942   21.8847 N   0  0  0  0  0  0  0  0  0  0  0  0
    2.4629    3.6570   25.2063 C   0  0  1  0  0  0  0  0  0  0  0  0
    0.1282    0.1809   25.6816 C   0  0  1  0  0  0  0  0  0  0  0  0
    6.6586    4.3592   27.7853 C   0  0  2  0  0  0  0  0  0  0  0  0
    5.9430    3.2706   27.0863 N   0  0  0  0  0  0  0  0  0  0  0  0
    4.8150    8.2711   23.4363 C   0  0  0  0  0  0  0  0  0  0  0  0
    2.7135    2.1491   25.1217 C   0  0  2  0  0  0  0  0  0  0  0  0
    2.1065    1.6302   23.9377 O   0  0  0  0  0  0  0  0  0  0  0  0
   -0.7148    0.3171   24.3770 C   0  0  2  0  0  0  0  0  0  0  0  0
   -1.7493    1.3759   24.4731 N   0  0  0  0  0  0  0  0  0  0  0  0
    6.0286    4.6056   29.1919 C   0  0  1  0  0  0  0  0  0  0  0  0
    6.1781    3.4462   30.0075 O   0  0  0  0  0  0  0  0  0  0  0  0
    5.3306    7.7978   24.8229 C   0  0  2  0  0  0  0  0  0  0  0  0
    6.7667    8.1350   24.9097 N   0  0  0  0  0  0  0  0  0  0  0  0
    2.0023    1.6419   26.3792 C   0  0  2  0  0  0  0  0  0  0  0  0
    0.5735    1.4763   26.1615 O   0  0  0  0  0  0  0  0  0  0  0  0
   -1.3414   -1.0534   23.9747 C   0  0  1  0  0  0  0  0  0  0  0  0
   -0.3077   -1.8919   23.4629 O   0  0  0  0  0  0  0  0  0  0  0  0
    6.6879    5.8059   29.9163 C   0  0  2  0  0  0  0  0  0  0  0  0
    6.0094    6.0359   31.1474 O   0  0  0  0  0  0  0  0  0  0  0  0
    5.0844    6.2667   25.0749 C   0  0  2  0  0  0  0  0  0  0  0  0
    2.2680    2.7763   27.3788 C   0  0  2  0  0  0  0  0  0  0  0  0
    2.3275    3.9858   26.5981 O   0  0  0  0  0  0  0  0  0  0  0  0
   -2.0407   -1.8028   25.1492 C   0  0  2  0  0  0  0  0  0  0  0  0
   -3.2676   -1.1349   25.4477 O   0  0  0  0  0  0  0  0  0  0  0  0
    6.6363    7.0740   29.0177 C   0  0  2  0  0  0  0  0  0  0  0  0
    7.2382    6.7681   27.7239 O   0  0  0  0  0  0  0  0  0  0  0  0
    3.6272    5.8118   24.7009 C   0  0  2  0  0  0  0  0  0  0  0  0
    3.6071    4.3617   24.6460 O   0  0  0  0  0  0  0  0  0  0  0  0
    3.5765    2.5908   28.1675 C   0  0  0  0  0  0  0  0  0  0  0  0
    3.8476    1.2164   28.3801 O   0  0  0  0  0  0  0  0  0  0  0  0
   -1.1232   -1.8338   26.4108 C   0  0  1  0  0  0  0  0  0  0  0  0
   -0.6701   -0.4807   26.7210 O   0  0  0  0  0  0  0  0  0  0  0  0
    7.3933    8.2982   29.5792 C   0  0  0  0  0  0  0  0  0  0  0  0
    8.7893    8.1852   29.3604 O   0  0  0  0  0  0  0  0  0  0  0  0
    3.1535    6.3621   23.3198 C   0  0  1  0  0  0  0  0  0  0  0  0
    1.7737    6.0427   23.1470 O   0  0  0  0  0  0  0  0  0  0  0  0
   -1.8355   -2.4259   27.6538 C   0  0  0  0  0  0  0  0  0  0  0  0
   -2.8209   -1.4959   28.2346 N   0  0  0  0  0  0  0  0  0  0  0  0
  1  2  1  1  0  0  0
  1  7  1  0  0  0  0
  1 30  1  0  0  0  0
  3  4  1  6  0  0  0
  3  9  1  0  0  0  0
  3 39  1  0  0  0  0
  5 10  1  0  0  0  0
  5 26  1  0  0  0  0
  5 32  1  1  0  0  0
  6 12  1  0  0  0  0
  6 36  1  0  0  0  0
  6 19  1  1  0  0  0
  7  8  1  6  0  0  0
  7 14  1  0  0  0  0
  9 16  1  0  0  0  0
 10 11  1  6  0  0  0
 10 18  1  0  0  0  0
 12 13  1  1  0  0  0
 12 20  1  0  0  0  0
 14 15  1  1  0  0  0
 14 22  1  0  0  0  0
 16 17  1  6  0  0  0
 16 24  1  0  0  0  0
 18 19  1  6  0  0  0
 18 25  1  0  0  0  0
 20 21  1  1  0  0  0
 20 27  1  0  0  0  0
 22 23  1  1  0  0  0
 22 29  1  0  0  0  0
 24  2  1  1  0  0  0
 24 31  1  0  0  0  0
 25 26  1  0  0  0  0
 25 33  1  6  0  0  0
 27 28  1  1  0  0  0
 27 35  1  0  0  0  0
 29 30  1  0  0  0  0
 29 37  1  1  0  0  0
 31 32  1  6  0  0  0
 31 39  1  0  0  0  0
 33 34  1  0  0  0  0
 35 36  1  0  0  0  0
 35 41  1  1  0  0  0
 37 38  1  0  0  0  0
 39 40  1  1  0  0  0
 41 42  1  0  0  0  0
M  END
>  <CHROM.1>
-127.16351087,-89.58346927,-46.01269700,50.88865279,-179.91009980,-13.42550615
-56.28883944,77.35652152,89.90656193,-125.42321612,55.34527864,-162.24598684
-32.42167142,-40.12988694,79.02392424,138.85192287,-176.02577497,67.20218956
-74.04112824,70.58597957,-73.74782476,-46.96334473,2.99964907,3.55300895
26.26611153,-0.32881891,0.74798436,2.24693473

>  <Name>
1fyp_lig

>  <RI>
0

>  <Rbt.Current_Directory>
/home/itssahil/PROJECTS/Mol_Feturizer/New_Systems/rnas/1fyp

>  <Rbt.Executable>
rbdock ($Id: //depot/dev/client3/rdock/2013.1/src/exe/rbdock.cxx#4 $)

>  <Rbt.Library>
libRbt.so (2013.1, Build901 2013/11/27)

>  <Rbt.Parameter_File>
/export/apps/rDock/src/rDock_2013.1_src/data/scripts/dock_solv.prm

>  <Rbt.Receptor>
prm/pocket_docking_2.prm

>  <SCORE>
-46.6314

>  <SCORE.INTER>
-47.1205

>  <SCORE.INTER.CONST>
1

>  <SCORE.INTER.POLAR>
-6.00064

>  <SCORE.INTER.ROT>
14

>  <SCORE.INTER.SOLV>
18.8734

>  <SCORE.INTER.VDW>
-30.636

>  <SCORE.INTER.norm>
-1.12192

>  <SCORE.INTRA>
-1.00958

>  <SCORE.INTRA.DIHEDRAL>
-9.12645

>  <SCORE.INTRA.DIHEDRAL.0>
48.7173

>  <SCORE.INTRA.POLAR>
-0.0972521

>  <SCORE.INTRA.POLAR.0>
-1.54691

>  <SCORE.INTRA.REPUL>
0

>  <SCORE.INTRA.REPUL.0>
0

>  <SCORE.INTRA.SOLV>
0.0516655

>  <SCORE.INTRA.SOLV.lig_0>
-64.052

>  <SCORE.INTRA.VDW>
3.85846

>  <SCORE.INTRA.VDW.0>
-7.0667

>  <SCORE.INTRA.norm>
-0.0240377

>  <SCORE.RESTR>
1.49871

>  <SCORE.RESTR.CAVITY>
1.49871

>  <SCORE.RESTR.norm>
0.0356836

>  <SCORE.SYSTEM>
0

>  <SCORE.SYSTEM.CONST>
0

>  <SCORE.SYSTEM.DIHEDRAL>
0

>  <SCORE.SYSTEM.SOLV>
0

>  <SCORE.SYSTEM.norm>
0

>  <SCORE.heavy>
42

>  <SCORE.norm>
-1.11027

>  <RMSD>
1.789

$$$$
1fyp_lig
 OpenBabel11021811393D
libRbt.so/2013.1/901 2013/11/27
 42 45  0  0  0  0  0  0  0  0999 V2000
    5.8589    4.8468   27.5397 C   0  0  2  0  0  0  0  0  0  0  0  0
    4.8887    5.7734   26.9719 O   0  0  0  0  0  0  0  0  0  0  0  0
    3.5471    7.6983   23.4032 C   0  0  2  0  0  0  0  0  0  0  0  0
    3.3584    8.2082   22.0325 N   0  0  0  0  0  0  0  0  0  0  0  0
    2.1674    3.5152   24.7333 C   0  0  1  0  0  0  0  0  0  0  0  0
   -0.9817    0.3865   24.3714 C   0  0  1  0  0  0  0  0  0  0  0  0
    5.6645    4.6885   29.0822 C   0  0  2  0  0  0  0  0  0  0  0  0
    4.2570    4.3844   29.4169 N   0  0  0  0  0  0  0  0  0  0  0  0
    4.9738    8.0321   23.8828 C   0  0  0  0  0  0  0  0  0  0  0  0
    2.3721    2.0665   24.2827 C   0  0  2  0  0  0  0  0  0  0  0  0
    2.2451    1.9860   22.8625 O   0  0  0  0  0  0  0  0  0  0  0  0
   -2.3977    0.8100   23.8746 C   0  0  2  0  0  0  0  0  0  0  0  0
   -2.8197    2.1283   24.4077 N   0  0  0  0  0  0  0  0  0  0  0  0
    6.1355    5.9712   29.8366 C   0  0  1  0  0  0  0  0  0  0  0  0
    6.1017    5.7536   31.2449 O   0  0  0  0  0  0  0  0  0  0  0  0
    5.2345    7.5464   25.3348 C   0  0  2  0  0  0  0  0  0  0  0  0
    6.6448    7.8415   25.6632 N   0  0  0  0  0  0  0  0  0  0  0  0
    1.2144    1.3527   24.9859 C   0  0  2  0  0  0  0  0  0  0  0  0
   -0.0275    1.4719   24.2375 O   0  0  0  0  0  0  0  0  0  0  0  0
   -3.4518   -0.2947   24.1936 C   0  0  1  0  0  0  0  0  0  0  0  0
   -3.2432   -1.3905   23.3052 O   0  0  0  0  0  0  0  0  0  0  0  0
    7.5752    6.3795   29.4356 C   0  0  2  0  0  0  0  0  0  0  0  0
    7.9093    7.6028   30.0842 O   0  0  0  0  0  0  0  0  0  0  0  0
    4.9047    6.0237   25.5372 C   0  0  2  0  0  0  0  0  0  0  0  0
    1.1211    2.1201   26.3121 C   0  0  2  0  0  0  0  0  0  0  0  0
    1.5222    3.4720   26.0161 O   0  0  0  0  0  0  0  0  0  0  0  0
   -3.3875   -0.8327   25.6552 C   0  0  2  0  0  0  0  0  0  0  0  0
   -3.9157    0.1654   26.5302 O   0  0  0  0  0  0  0  0  0  0  0  0
    7.6835    6.5312   27.8917 C   0  0  2  0  0  0  0  0  0  0  0  0
    7.2257    5.2994   27.2569 O   0  0  0  0  0  0  0  0  0  0  0  0
    3.5186    5.6112   24.9218 C   0  0  2  0  0  0  0  0  0  0  0  0
    3.4655    4.1621   24.8599 O   0  0  0  0  0  0  0  0  0  0  0  0
    2.0194    1.5310   27.4141 C   0  0  0  0  0  0  0  0  0  0  0  0
    2.3437    2.5148   28.3810 O   0  0  0  0  0  0  0  0  0  0  0  0
   -1.9191   -1.1770   26.0547 C   0  0  1  0  0  0  0  0  0  0  0  0
   -1.0541   -0.0338   25.7762 O   0  0  0  0  0  0  0  0  0  0  0  0
    9.1115    6.7960   27.3646 C   0  0  0  0  0  0  0  0  0  0  0  0
    9.3142    6.1891   26.0996 O   0  0  0  0  0  0  0  0  0  0  0  0
    3.3004    6.1724   23.4824 C   0  0  1  0  0  0  0  0  0  0  0  0
    1.9606    5.8934   23.0789 O   0  0  0  0  0  0  0  0  0  0  0  0
   -1.7809   -1.5632   27.5496 C   0  0  0  0  0  0  0  0  0  0  0  0
   -0.4893   -2.2082   27.8476 N   0  0  0  0  0  0  0  0  0  0  0  0
  1  2  1  1  0  0  0
  1  7  1  0  0  0  0
  1 30  1  0  0  0  0
  3  4  1  6  0  0  0
  3  9  1  0  0  0  0
  3 39  1  0  0  0  0
  5 10  1  0  0  0  0
  5 26  1  0  0  0  0
  5 32  1  1  0  0  0
  6 12  1  0  0  0  0
  6 36  1  0  0  0  0
  6 19  1  1  0  0  0
  7  8  1  6  0  0  0
  7 14  1  0  0  0  0
  9 16  1  0  0  0  0
 10 11  1  6  0  0  0
 10 18  1  0  0  0  0
 12 13  1  1  0  0  0
 12 20  1  0  0  0  0
 14 15  1  1  0  0  0
 14 22  1  0  0  0  0
 16 17  1  6  0  0  0
 16 24  1  0  0  0  0
 18 19  1  6  0  0  0
 18 25  1  0  0  0  0
 20 21  1  6  0  0  0
 20 27  1  0  0  0  0
 22 23  1  1  0  0  0
 22 29  1  0  0  0  0
 24  2  1  1  0  0  0
 24 31  1  0  0  0  0
 25 26  1  0  0  0  0
 25 33  1  1  0  0  0
 27 28  1  1  0  0  0
 27 35  1  0  0  0  0
 29 30  1  0  0  0  0
 29 37  1  1  0  0  0
 31 32  1  6  0  0  0
 31 39  1  0  0  0  0
 33 34  1  0  0  0  0
 35 36  1  0  0  0  0
 35 41  1  1  0  0  0
 37 38  1  0  0  0  0
 39 40  1  1  0  0  0
 41 42  1  0  0  0  0
M  END
>  <CHROM.1>
-178.83038444,-117.31478683,83.39271796,-57.94703063,178.03980788,-68.74928348
-53.80938635,-44.45469991,150.42564170,163.54750170,-56.80138264,-178.29367640
155.63058261,-80.83827375,146.07118345,160.87348155,163.65836793,68.00037936
165.52667156,-74.54183809,171.55467474,113.74166805,2.67520005,3.65070640
26.04148849,-0.15580660,0.66682104,2.12254334

>  <Name>
1fyp_lig

>  <RI>
0

>  <Rbt.Current_Directory>
/home/itssahil/PROJECTS/Mol_Feturizer/New_Systems/rnas/1fyp

>  <Rbt.Executable>
rbdock ($Id: //depot/dev/client3/rdock/2013.1/src/exe/rbdock.cxx#4 $)

>  <Rbt.Library>
libRbt.so (2013.1, Build901 2013/11/27)

>  <Rbt.Parameter_File>
/export/apps/rDock/src/rDock_2013.1_src/data/scripts/dock_solv.prm

>  <Rbt.Receptor>
prm/pocket_docking_2.prm

>  <SCORE>
-24.1077

>  <SCORE.INTER>
-22.4043

>  <SCORE.INTER.CONST>
1

>  <SCORE.INTER.POLAR>
-5.11483

>  <SCORE.INTER.ROT>
14

>  <SCORE.INTER.SOLV>
20.7205

>  <SCORE.INTER.VDW>
-17.7269

>  <SCORE.INTER.norm>
-0.533436

>  <SCORE.INTRA>
-4.18741

>  <SCORE.INTRA.DIHEDRAL>
-20.248

>  <SCORE.INTRA.DIHEDRAL.0>
48.7173

>  <SCORE.INTRA.POLAR>
0.644305

>  <SCORE.INTRA.POLAR.0>
-1.54691

>  <SCORE.INTRA.REPUL>
0

>  <SCORE.INTRA.REPUL.0>
0

>  <SCORE.INTRA.SOLV>
-0.900287

>  <SCORE.INTRA.SOLV.lig_0>
-64.052

>  <SCORE.INTRA.VDW>
4.19608

>  <SCORE.INTRA.VDW.0>
-7.0667

>  <SCORE.INTRA.norm>
-0.0997002

>  <SCORE.RESTR>
2.484

>  <SCORE.RESTR.CAVITY>
2.484

>  <SCORE.RESTR.norm>
0.0591429

>  <SCORE.SYSTEM>
0

>  <SCORE.SYSTEM.CONST>
0

>  <SCORE.SYSTEM.DIHEDRAL>
0

>  <SCORE.SYSTEM.SOLV>
0

>  <SCORE.SYSTEM.norm>
0

>  <SCORE.heavy>
42

>  <SCORE.norm>
-0.573994

>  <RMSD>
1.824

$$$$
1fyp_lig
 OpenBabel11021811393D
libRbt.so/2013.1/901 2013/11/27
 42 45  0  0  0  0  0  0  0  0999 V2000
    6.3592    5.4097   27.2188 C   0  0  2  0  0  0  0  0  0  0  0  0
    5.2461    6.1790   26.6789 O   0  0  0  0  0  0  0  0  0  0  0  0
    3.4946    7.7585   23.1182 C   0  0  2  0  0  0  0  0  0  0  0  0
    3.1485    8.1362   21.7355 N   0  0  0  0  0  0  0  0  0  0  0  0
    2.3244    3.7316   25.1360 C   0  0  1  0  0  0  0  0  0  0  0  0
   -0.6163    0.5400   26.1786 C   0  0  1  0  0  0  0  0  0  0  0  0
    6.0989    4.9896   28.7013 C   0  0  2  0  0  0  0  0  0  0  0  0
    4.7772    4.3446   28.8518 N   0  0  0  0  0  0  0  0  0  0  0  0
    4.9633    8.1335   23.4000 C   0  0  0  0  0  0  0  0  0  0  0  0
    2.5525    2.2377   25.3811 C   0  0  2  0  0  0  0  0  0  0  0  0
    2.3812    1.5218   24.1573 O   0  0  0  0  0  0  0  0  0  0  0  0
    0.0978   -0.8141   25.8826 C   0  0  2  0  0  0  0  0  0  0  0  0
    0.6063   -0.9000   24.4918 N   0  0  0  0  0  0  0  0  0  0  0  0
    6.2133    6.2191   29.6560 C   0  0  1  0  0  0  0  0  0  0  0  0
    6.1318    5.7960   31.0146 O   0  0  0  0  0  0  0  0  0  0  0  0
    5.3900    7.7876   24.8528 C   0  0  2  0  0  0  0  0  0  0  0  0
    6.8255    8.1098   24.9905 N   0  0  0  0  0  0  0  0  0  0  0  0
    1.4376    1.9096   26.3779 C   0  0  2  0  0  0  0  0  0  0  0  0
    0.1692    1.6663   25.7082 O   0  0  0  0  0  0  0  0  0  0  0  0
   -0.8331   -2.0189   26.2216 C   0  0  1  0  0  0  0  0  0  0  0  0
   -0.9199   -2.1398   27.6399 O   0  0  0  0  0  0  0  0  0  0  0  0
    7.5472    6.9815   29.4565 C   0  0  2  0  0  0  0  0  0  0  0  0
    7.5494    8.1397   30.2855 O   0  0  0  0  0  0  0  0  0  0  0  0
    5.0983    6.2918   25.2343 C   0  0  2  0  0  0  0  0  0  0  0  0
    1.3675    3.1935   27.2165 C   0  0  2  0  0  0  0  0  0  0  0  0
    1.7229    4.2683   26.3252 O   0  0  0  0  0  0  0  0  0  0  0  0
   -2.2787   -1.8856   25.6541 C   0  0  2  0  0  0  0  0  0  0  0  0
   -2.2335   -2.0965   24.2419 O   0  0  0  0  0  0  0  0  0  0  0  0
    7.7255    7.3768   27.9631 C   0  0  2  0  0  0  0  0  0  0  0  0
    7.6041    6.1818   27.1343 O   0  0  0  0  0  0  0  0  0  0  0  0
    3.6555    5.8253   24.8211 C   0  0  2  0  0  0  0  0  0  0  0  0
    3.6085    4.3770   24.9030 O   0  0  0  0  0  0  0  0  0  0  0  0
    2.3167    3.1751   28.4279 C   0  0  0  0  0  0  0  0  0  0  0  0
    1.9305    2.1774   29.3569 O   0  0  0  0  0  0  0  0  0  0  0  0
   -2.8700   -0.4766   25.9698 C   0  0  1  0  0  0  0  0  0  0  0  0
   -1.9349    0.5567   25.5335 O   0  0  0  0  0  0  0  0  0  0  0  0
    9.0893    8.0164   27.6198 C   0  0  0  0  0  0  0  0  0  0  0  0
    9.0820    8.5771   26.3178 O   0  0  0  0  0  0  0  0  0  0  0  0
    3.2719    6.2476   23.3689 C   0  0  1  0  0  0  0  0  0  0  0  0
    1.8977    5.9341   23.1474 O   0  0  0  0  0  0  0  0  0  0  0  0
   -4.2418   -0.2374   25.2885 C   0  0  0  0  0  0  0  0  0  0  0  0
   -4.1318   -0.1328   23.8222 N   0  0  0  0  0  0  0  0  0  0  0  0
  1  2  1  1  0  0  0
  1  7  1  0  0  0  0
  1 30  1  0  0  0  0
  3  4  1  6  0  0  0
  3  9  1  0  0  0  0
  3 39  1  0  0  0  0
  5 10  1  0  0  0  0
  5 26  1  0  0  0  0
  5 32  1  1  0  0  0
  6 12  1  0  0  0  0
  6 36  1  0  0  0  0
  6 19  1  6  0  0  0
  7  8  1  6  0  0  0
  7 14  1  0  0  0  0
  9 16  1  0  0  0  0
 10 11  1  6  0  0  0
 10 18  1  0  0  0  0
 12 13  1  6  0  0  0
 12 20  1  0  0  0  0
 14 15  1  1  0  0  0
 14 22  1  0  0  0  0
 16 17  1  6  0  0  0
 16 24  1  0  0  0  0
 18 19  1  6  0  0  0
 18 25  1  0  0  0  0
 20 21  1  1  0  0  0
 20 27  1  0  0  0  0
 22 23  1  1  0  0  0
 22 29  1  0  0  0  0
 24  2  1  1  0  0  0
 24 31  1  0  0  0  0
 25 26  1  0  0  0  0
 25 33  1  1  0  0  0
 27 28  1  6  0  0  0
 27 35  1  0  0  0  0
 29 30  1  0  0  0  0
 29 37  1  1  0  0  0
 31 32  1  6  0  0  0
 31 39  1  0  0  0  0
 33 34  1  0  0  0  0
 35 36  1  0  0  0  0
 35 41  1  6  0  0  0
 37 38  1  0  0  0  0
 39 40  1  1  0  0  0
 41 42  1  0  0  0  0
M  END
>  <CHROM.1>
-160.55516342,-111.59344768,170.15440476,61.49229614,66.19741045,75.23785283
-161.56896057,-32.31461682,136.77559741,-66.46778032,-54.06314345,179.78618012
-65.39098450,70.09140823,-168.78820927,154.07768634,-172.01885186,-177.86023535
-68.47324005,82.44794019,176.93788015,-57.10462617,2.89806073,3.82888981
26.18279833,-0.25863094,0.72590562,2.15359333

>  <Name>
1fyp_lig

>  <RI>
0

>  <Rbt.Current_Directory>
/home/itssahil/PROJECTS/Mol_Feturizer/New_Systems/rnas/1fyp

>  <Rbt.Executable>
rbdock ($Id: //depot/dev/client3/rdock/2013.1/src/exe/rbdock.cxx#4 $)

>  <Rbt.Library>
libRbt.so (2013.1, Build901 2013/11/27)

>  <Rbt.Parameter_File>
/export/apps/rDock/src/rDock_2013.1_src/data/scripts/dock_solv.prm

>  <Rbt.Receptor>
prm/blind_docking_60.prm

>  <SCORE>
-41.6211

>  <SCORE.INTER>
-36.5184

>  <SCORE.INTER.CONST>
1

>  <SCORE.INTER.POLAR>
-4.36049

>  <SCORE.INTER.ROT>
14

>  <SCORE.INTER.SOLV>
17.3432

>  <SCORE.INTER.VDW>
-28.5251

>  <SCORE.INTER.norm>
-0.869486

>  <SCORE.INTRA>
-6.95783

>  <SCORE.INTRA.DIHEDRAL>
-23.5956

>  <SCORE.INTRA.DIHEDRAL.0>
48.7173

>  <SCORE.INTRA.POLAR>
0.544443

>  <SCORE.INTRA.POLAR.0>
-1.54691

>  <SCORE.INTRA.REPUL>
0.0254339

>  <SCORE.INTRA.REPUL.0>
0

>  <SCORE.INTRA.SOLV>
0.126741

>  <SCORE.INTRA.SOLV.lig_0>
-64.052

>  <SCORE.INTRA.VDW>
2.7983

>  <SCORE.INTRA.VDW.0>
-7.0667

>  <SCORE.INTRA.norm>
-0.165663

>  <SCORE.RESTR>
1.85514

>  <SCORE.RESTR.CAVITY>
1.85514

>  <SCORE.RESTR.norm>
0.04417

>  <SCORE.SYSTEM>
0

>  <SCORE.SYSTEM.CONST>
0

>  <SCORE.SYSTEM.DIHEDRAL>
0

>  <SCORE.SYSTEM.SOLV>
0

>  <SCORE.SYSTEM.norm>
0

>  <SCORE.heavy>
42

>  <SCORE.norm>
-0.990978

>  <RMSD>
1.862

$$$$
1fyp_lig
 OpenBabel11021811393D
libRbt.so/2013.1/901 2013/11/27
 42 45  0  0  0  0  0  0  0  0999 V2000
    6.9338    6.5353   27.5302 C   0  0  2  0  0  0  0  0  0  0  0  0
    5.6610    7.1695   27.2138 O   0  0  0  0  0  0  0  0  0  0  0  0
    2.9599    7.7356   23.9543 C   0  0  2  0  0  0  0  0  0  0  0  0
    2.1438    7.6222   22.7314 N   0  0  0  0  0  0  0  0  0  0  0  0
    2.3145    4.5661   26.6178 C   0  0  1  0  0  0  0  0  0  0  0  0
    0.8549    0.7427   25.4118 C   0  0  1  0  0  0  0  0  0  0  0  0
    6.7288    5.1006   28.1147 C   0  0  2  0  0  0  0  0  0  0  0  0
    5.8382    4.2931   27.2542 N   0  0  0  0  0  0  0  0  0  0  0  0
    4.4453    7.5213   23.6013 C   0  0  0  0  0  0  0  0  0  0  0  0
    3.3243    3.5858   26.0152 C   0  0  2  0  0  0  0  0  0  0  0  0
    3.4702    3.8489   24.6192 O   0  0  0  0  0  0  0  0  0  0  0  0
    0.2145    0.2786   24.0681 C   0  0  2  0  0  0  0  0  0  0  0  0
   -0.4299    1.3909   23.3280 N   0  0  0  0  0  0  0  0  0  0  0  0
    6.1628    5.1677   29.5677 C   0  0  1  0  0  0  0  0  0  0  0  0
    6.1311    3.8643   30.1437 O   0  0  0  0  0  0  0  0  0  0  0  0
    5.3695    7.6543   24.8425 C   0  0  2  0  0  0  0  0  0  0  0  0
    6.7504    7.3527   24.4115 N   0  0  0  0  0  0  0  0  0  0  0  0
    2.6376    2.2391   26.2585 C   0  0  2  0  0  0  0  0  0  0  0  0
    1.6496    1.9439   25.2322 O   0  0  0  0  0  0  0  0  0  0  0  0
   -0.7820   -0.8979   24.3047 C   0  0  1  0  0  0  0  0  0  0  0  0
   -0.0322   -2.0766   24.5912 O   0  0  0  0  0  0  0  0  0  0  0  0
    7.0163    6.0874   30.4767 C   0  0  2  0  0  0  0  0  0  0  0  0
    6.3977    6.1800   31.7564 O   0  0  0  0  0  0  0  0  0  0  0  0
    4.9261    6.7323   26.0347 C   0  0  2  0  0  0  0  0  0  0  0  0
    1.9555    2.4660   27.6148 C   0  0  2  0  0  0  0  0  0  0  0  0
    1.6117    3.8646   27.6559 O   0  0  0  0  0  0  0  0  0  0  0  0
   -1.7820   -0.6590   25.4764 C   0  0  2  0  0  0  0  0  0  0  0  0
   -2.7505    0.3039   25.0577 O   0  0  0  0  0  0  0  0  0  0  0  0
    7.1613    7.4967   29.8355 C   0  0  2  0  0  0  0  0  0  0  0  0
    7.6912    7.3546   28.4832 O   0  0  0  0  0  0  0  0  0  0  0  0
    3.3835    6.8081   26.3256 C   0  0  2  0  0  0  0  0  0  0  0  0
    3.0319    5.6965   27.1900 O   0  0  0  0  0  0  0  0  0  0  0  0
    2.8561    2.1073   28.8102 C   0  0  0  0  0  0  0  0  0  0  0  0
    3.9066    3.0476   28.9512 O   0  0  0  0  0  0  0  0  0  0  0  0
   -1.0339   -0.1528   26.7486 C   0  0  1  0  0  0  0  0  0  0  0  0
   -0.1988    0.9941   26.4027 O   0  0  0  0  0  0  0  0  0  0  0  0
    8.1132    8.4554   30.5850 C   0  0  0  0  0  0  0  0  0  0  0  0
    8.9036    9.2078   29.6802 O   0  0  0  0  0  0  0  0  0  0  0  0
    2.5151    6.7182   25.0324 C   0  0  1  0  0  0  0  0  0  0  0  0
    1.1527    6.9662   25.3761 O   0  0  0  0  0  0  0  0  0  0  0  0
   -2.0016    0.2522   27.8899 C   0  0  0  0  0  0  0  0  0  0  0  0
   -2.3248   -0.8764   28.7814 N   0  0  0  0  0  0  0  0  0  0  0  0
  1  2  1  1  0  0  0
  1  7  1  0  0  0  0
  1 30  1  0  0  0  0
  3  4  1  6  0  0  0
  3  9  1  0  0  0  0
  3 39  1  0  0  0  0
  5 10  1  0  0  0  0
  5 26  1  0  0  0  0
  5 32  1  1  0  0  0
  6 12  1  0  0  0  0
  6 36  1  0  0  0  0
  6 19  1  6  0  0  0
  7  8  1  6  0  0  0
  7 14  1  0  0  0  0
  9 16  1  0  0  0  0
 10 11  1  6  0  0  0
 10 18  1  0  0  0  0
 12 13  1  1  0  0  0
 12 20  1  0  0  0  0
 14 15  1  1  0  0  0
 14 22  1  0  0  0  0
 16 17  1  6  0  0  0
 16 24  1  0  0  0  0
 18 19  1  6  0  0  0
 18 25  1  0  0  0  0
 20 21  1  1  0  0  0
 20 27  1  0  0  0  0
 22 23  1  1  0  0  0
 22 29  1  0  0  0  0
 24  2  1  1  0  0  0
 24 31  1  0  0  0  0
 25 26  1  0  0  0  0
 25 33  1  1  0  0  0
 27 28  1  6  0  0  0
 27 35  1  0  0  0  0
 29 30  1  0  0  0  0
 29 37  1  1  0  0  0
 31 32  1  1  0  0  0
 31 39  1  0  0  0  0
 33 34  1  0  0  0  0
 35 36  1  0  0  0  0
 35 41  1  1  0  0  0
 37 38  1  0  0  0  0
 39 40  1  1  0  0  0
 41 42  1  0  0  0  0
M  END
>  <CHROM.1>
-74.52487872,-92.06057580,-54.76103540,-74.28861121,67.39906795,177.95187890
-61.89966845,-65.47973888,-175.22628796,-160.40826742,-177.67706565,-66.55390200
70.77205749,-75.39483490,139.56827208,-105.59468954,85.81203002,65.92005720
89.47657766,64.49749522,-174.80619758,74.52983733,3.15575671,4.15529411,26.77337972
-0.19133281,0.76893448,2.20682884

>  <Name>
1fyp_lig

>  <RI>
0

>  <Rbt.Current_Directory>
/home/itssahil/PROJECTS/Mol_Feturizer/New_Systems/rnas/1fyp

>  <Rbt.Executable>
rbdock ($Id: //depot/dev/client3/rdock/2013.1/src/exe/rbdock.cxx#4 $)

>  <Rbt.Library>
libRbt.so (2013.1, Build901 2013/11/27)

>  <Rbt.Parameter_File>
/export/apps/rDock/src/rDock_2013.1_src/data/scripts/dock_solv.prm

>  <Rbt.Receptor>
prm/pocket_docking_2.prm

>  <SCORE>
-40.4307

>  <SCORE.INTER>
-39.5966

>  <SCORE.INTER.CONST>
1

>  <SCORE.INTER.POLAR>
-6.02998

>  <SCORE.INTER.ROT>
14

>  <SCORE.INTER.SOLV>
15.3176

>  <SCORE.INTER.VDW>
-24.337

>  <SCORE.INTER.norm>
-0.942777

>  <SCORE.INTRA>
-3.4807

>  <SCORE.INTRA.DIHEDRAL>
-22.3254

>  <SCORE.INTRA.DIHEDRAL.0>
48.7173

>  <SCORE.INTRA.POLAR>
-0.135666

>  <SCORE.INTRA.POLAR.0>
-1.54691

>  <SCORE.INTRA.REPUL>
0.116209

>  <SCORE.INTRA.REPUL.0>
0

>  <SCORE.INTRA.SOLV>
1.73356

>  <SCORE.INTRA.SOLV.lig_0>
-64.052

>  <SCORE.INTRA.VDW>
6.69544

>  <SCORE.INTRA.VDW.0>
-7.0667

>  <SCORE.INTRA.norm>
-0.0828738

>  <SCORE.RESTR>
2.64666

>  <SCORE.RESTR.CAVITY>
2.64666

>  <SCORE.RESTR.norm>
0.0630157

>  <SCORE.SYSTEM>
0

>  <SCORE.SYSTEM.CONST>
0

>  <SCORE.SYSTEM.DIHEDRAL>
0

>  <SCORE.SYSTEM.SOLV>
0

>  <SCORE.SYSTEM.norm>
0

>  <SCORE.heavy>
42

>  <SCORE.norm>
-0.962635

>  <RMSD>
1.870

$$$$
1fyp_lig
 OpenBabel11021811393D
libRbt.so/2013.1/901 2013/11/27
 42 45  0  0  0  0  0  0  0  0999 V2000
    6.6823    6.1646   26.8057 C   0  0  2  0  0  0  0  0  0  0  0  0
    6.2729    7.3929   26.1379 O   0  0  0  0  0  0  0  0  0  0  0  0
    3.4400    8.5626   23.1634 C   0  0  2  0  0  0  0  0  0  0  0  0
    2.6513    8.7628   21.9336 N   0  0  0  0  0  0  0  0  0  0  0  0
    2.8192    4.7946   25.3679 C   0  0  1  0  0  0  0  0  0  0  0  0
   -0.1340    1.4933   25.8996 C   0  0  1  0  0  0  0  0  0  0  0  0
    6.1940    6.1298   28.2897 C   0  0  2  0  0  0  0  0  0  0  0  0
    4.7492    6.4282   28.3860 N   0  0  0  0  0  0  0  0  0  0  0  0
    4.9219    8.8798   22.8797 C   0  0  0  0  0  0  0  0  0  0  0  0
    3.0452    3.2934   25.5661 C   0  0  2  0  0  0  0  0  0  0  0  0
    3.0202    2.6357   24.2987 O   0  0  0  0  0  0  0  0  0  0  0  0
    0.7798    0.2767   26.2401 C   0  0  2  0  0  0  0  0  0  0  0  0
    1.8900    0.1070   25.2712 N   0  0  0  0  0  0  0  0  0  0  0  0
    7.0125    7.1271   29.1681 C   0  0  1  0  0  0  0  0  0  0  0  0
    6.6667    6.9704   30.5420 O   0  0  0  0  0  0  0  0  0  0  0  0
    5.8104    8.7157   24.1430 C   0  0  2  0  0  0  0  0  0  0  0  0
    7.2118    8.9625   23.7444 N   0  0  0  0  0  0  0  0  0  0  0  0
    1.8344    2.9039   26.4186 C   0  0  2  0  0  0  0  0  0  0  0  0
    0.6507    2.6779   25.6037 O   0  0  0  0  0  0  0  0  0  0  0  0
   -0.0615   -1.0300   26.3734 C   0  0  1  0  0  0  0  0  0  0  0  0
   -0.7930   -0.9756   27.5963 O   0  0  0  0  0  0  0  0  0  0  0  0
    8.5389    6.9098   29.0163 C   0  0  2  0  0  0  0  0  0  0  0  0
    9.2273    7.9061   29.7662 O   0  0  0  0  0  0  0  0  0  0  0  0
    5.6468    7.3101   24.8254 C   0  0  2  0  0  0  0  0  0  0  0  0
    1.6515    4.1446   27.3038 C   0  0  2  0  0  0  0  0  0  0  0  0
    2.0829    5.2656   26.5081 O   0  0  0  0  0  0  0  0  0  0  0  0
   -1.0734   -1.2569   25.2095 C   0  0  2  0  0  0  0  0  0  0  0  0
   -0.3446   -1.6410   24.0425 O   0  0  0  0  0  0  0  0  0  0  0  0
    8.9473    6.9733   27.5172 C   0  0  2  0  0  0  0  0  0  0  0  0
    8.1418    6.0196   26.7613 O   0  0  0  0  0  0  0  0  0  0  0  0
    4.1437    6.8824   24.9922 C   0  0  2  0  0  0  0  0  0  0  0  0
    4.1096    5.4660   25.3072 O   0  0  0  0  0  0  0  0  0  0  0  0
    2.4637    4.0790   28.6095 C   0  0  0  0  0  0  0  0  0  0  0  0
    2.2995    5.2653   29.3666 O   0  0  0  0  0  0  0  0  0  0  0  0
   -1.8951    0.0395   24.9293 C   0  0  1  0  0  0  0  0  0  0  0  0
   -0.9853    1.1674   24.7488 O   0  0  0  0  0  0  0  0  0  0  0  0
   10.4258    6.6269   27.2324 C   0  0  0  0  0  0  0  0  0  0  0  0
   11.2550    6.9659   28.3311 O   0  0  0  0  0  0  0  0  0  0  0  0
    3.2968    7.1193   23.7033 C   0  0  1  0  0  0  0  0  0  0  0  0
    1.9249    6.8654   24.0022 O   0  0  0  0  0  0  0  0  0  0  0  0
   -2.8004   -0.0853   23.6771 C   0  0  0  0  0  0  0  0  0  0  0  0
   -4.0015   -0.9018   23.9295 N   0  0  0  0  0  0  0  0  0  0  0  0
  1  2  1  1  0  0  0
  1  7  1  0  0  0  0
  1 30  1  0  0  0  0
  3  4  1  6  0  0  0
  3  9  1  0  0  0  0
  3 39  1  0  0  0  0
  5 10  1  0  0  0  0
  5 26  1  0  0  0  0
  5 32  1  1  0  0  0
  6 12  1  0  0  0  0
  6 36  1  0  0  0  0
  6 19  1  6  0  0  0
  7  8  1  6  0  0  0
  7 14  1  0  0  0  0
  9 16  1  0  0  0  0
 10 11  1  6  0  0  0
 10 18  1  0  0  0  0
 12 13  1  6  0  0  0
 12 20  1  0  0  0  0
 14 15  1  1  0  0  0
 14 22  1  0  0  0  0
 16 17  1  6  0  0  0
 16 24  1  0  0  0  0
 18 19  1  6  0  0  0
 18 25  1  0  0  0  0
 20 21  1  1  0  0  0
 20 27  1  0  0  0  0
 22 23  1  1  0  0  0
 22 29  1  0  0  0  0
 24  2  1  1  0  0  0
 24 31  1  0  0  0  0
 25 26  1  0  0  0  0
 25 33  1  1  0  0  0
 27 28  1  6  0  0  0
 27 35  1  0  0  0  0
 29 30  1  0  0  0  0
 29 37  1  1  0  0  0
 31 32  1  6  0  0  0
 31 39  1  0  0  0  0
 33 34  1  0  0  0  0
 35 36  1  0  0  0  0
 35 41  1  6  0  0  0
 37 38  1  0  0  0  0
 39 40  1  1  0  0  0
 41 42  1  0  0  0  0
M  END
>  <CHROM.1>
-131.81007706,-159.20042284,-164.60515343,148.15139878,-54.27108302,-94.17254474
62.31488192,-44.41282069,134.53430106,-39.26352908,62.66364274,-177.65389627
177.87049628,39.68073007,-29.45871757,-173.43092089,174.05847889,70.06625734
75.79221192,168.59634601,-33.59091855,-113.13800716,3.52003317,4.55162900
26.05514429,-0.34175997,0.65097273,2.36312611

>  <Name>
1fyp_lig

>  <RI>
0

>  <Rbt.Current_Directory>
/home/itssahil/PROJECTS/Mol_Feturizer/New_Systems/rnas/1fyp

>  <Rbt.Executable>
rbdock ($Id: //depot/dev/client3/rdock/2013.1/src/exe/rbdock.cxx#4 $)

>  <Rbt.Library>
libRbt.so (2013.1, Build901 2013/11/27)

>  <Rbt.Parameter_File>
/export/apps/rDock/src/rDock_2013.1_src/data/scripts/dock_solv.prm

>  <Rbt.Receptor>
prm/pocket_docking_3.prm

>  <SCORE>
-42.2874

>  <SCORE.INTER>
-39.4577

>  <SCORE.INTER.CONST>
1

>  <SCORE.INTER.POLAR>
-4.53797

>  <SCORE.INTER.ROT>
14

>  <SCORE.INTER.SOLV>
17.1318

>  <SCORE.INTER.VDW>
-29.8225

>  <SCORE.INTER.norm>
-0.939469

>  <SCORE.INTRA>
-2.83604

>  <SCORE.INTRA.DIHEDRAL>
-15.882

>  <SCORE.INTRA.DIHEDRAL.0>
48.7173

>  <SCORE.INTRA.POLAR>
-0.225562

>  <SCORE.INTRA.POLAR.0>
-1.54691

>  <SCORE.INTRA.REPUL>
0

>  <SCORE.INTRA.REPUL.0>
0

>  <SCORE.INTRA.SOLV>
0.0529392

>  <SCORE.INTRA.SOLV.lig_0>
-64.052

>  <SCORE.INTRA.VDW>
5.84542

>  <SCORE.INTRA.VDW.0>
-7.0667

>  <SCORE.INTRA.norm>
-0.0675248

>  <SCORE.RESTR>
0.00637047

>  <SCORE.RESTR.CAVITY>
0.00637047

>  <SCORE.RESTR.norm>
0.000151678

>  <SCORE.SYSTEM>
0

>  <SCORE.SYSTEM.CONST>
0

>  <SCORE.SYSTEM.DIHEDRAL>
0

>  <SCORE.SYSTEM.SOLV>
0

>  <SCORE.SYSTEM.norm>
0

>  <SCORE.heavy>
42

>  <SCORE.norm>
-1.00684

>  <RMSD>
1.880

$$$$
1fyp_lig
 OpenBabel11021811393D
libRbt.so/2013.1/901 2013/11/27
 42 45  0  0  0  0  0  0  0  0999 V2000
    6.7515    5.9660   27.0799 C   0  0  2  0  0  0  0  0  0  0  0  0
    5.8593    6.9627   26.5030 O   0  0  0  0  0  0  0  0  0  0  0  0
    3.6387    8.0092   23.0081 C   0  0  2  0  0  0  0  0  0  0  0  0
    3.1279    8.2073   21.6391 N   0  0  0  0  0  0  0  0  0  0  0  0
    2.9864    4.0880   25.1761 C   0  0  1  0  0  0  0  0  0  0  0  0
   -0.2597    1.8365   26.0819 C   0  0  1  0  0  0  0  0  0  0  0  0
    6.6435    5.9348   28.6386 C   0  0  2  0  0  0  0  0  0  0  0  0
    5.2357    5.8248   29.0765 N   0  0  0  0  0  0  0  0  0  0  0  0
    5.0898    8.5230   23.0935 C   0  0  0  0  0  0  0  0  0  0  0  0
    3.3321    2.5978   25.2351 C   0  0  2  0  0  0  0  0  0  0  0  0
    3.2768    2.0427   23.9204 O   0  0  0  0  0  0  0  0  0  0  0  0
   -0.2294    0.8850   27.3168 C   0  0  2  0  0  0  0  0  0  0  0  0
    0.3018   -0.4605   26.9885 N   0  0  0  0  0  0  0  0  0  0  0  0
    7.3090    7.1988   29.2675 C   0  0  1  0  0  0  0  0  0  0  0  0
    7.3444    7.0807   30.6876 O   0  0  0  0  0  0  0  0  0  0  0  0
    5.6845    8.3701   24.5201 C   0  0  2  0  0  0  0  0  0  0  0  0
    7.0933    8.8134   24.4718 N   0  0  0  0  0  0  0  0  0  0  0  0
    2.2076    2.0496   26.1178 C   0  0  2  0  0  0  0  0  0  0  0  0
    0.9953    1.7984   25.3537 O   0  0  0  0  0  0  0  0  0  0  0  0
   -1.6375    0.7923   27.9815 C   0  0  1  0  0  0  0  0  0  0  0  0
   -1.8945    2.0137   28.6713 O   0  0  0  0  0  0  0  0  0  0  0  0
    8.7563    7.4039   28.7541 C   0  0  2  0  0  0  0  0  0  0  0  0
    9.2722    8.6184   29.2901 O   0  0  0  0  0  0  0  0  0  0  0  0
    5.5622    6.9066   25.0783 C   0  0  2  0  0  0  0  0  0  0  0  0
    1.9902    3.1984   27.1125 C   0  0  2  0  0  0  0  0  0  0  0  0
    2.2896    4.4089   26.3907 O   0  0  0  0  0  0  0  0  0  0  0  0
   -2.8017    0.5466   26.9745 C   0  0  2  0  0  0  0  0  0  0  0  0
   -2.7353   -0.8078   26.5251 O   0  0  0  0  0  0  0  0  0  0  0  0
    8.7782    7.4387   27.1996 C   0  0  2  0  0  0  0  0  0  0  0  0
    8.1396    6.2315   26.6851 O   0  0  0  0  0  0  0  0  0  0  0  0
    4.1318    6.2899   24.8692 C   0  0  2  0  0  0  0  0  0  0  0  0
    4.2186    4.8597   25.1003 O   0  0  0  0  0  0  0  0  0  0  0  0
    2.8839    3.0921   28.3610 C   0  0  0  0  0  0  0  0  0  0  0  0
    2.8979    1.7664   28.8608 O   0  0  0  0  0  0  0  0  0  0  0  0
   -2.7000    1.5224   25.7613 C   0  0  1  0  0  0  0  0  0  0  0  0
   -1.3589    1.4533   25.1874 O   0  0  0  0  0  0  0  0  0  0  0  0
   10.1888    7.4946   26.5718 C   0  0  0  0  0  0  0  0  0  0  0  0
   10.9951    6.4184   27.0204 O   0  0  0  0  0  0  0  0  0  0  0  0
    3.5732    6.5218   23.4309 C   0  0  1  0  0  0  0  0  0  0  0  0
    2.2163    6.0827   23.3890 O   0  0  0  0  0  0  0  0  0  0  0  0
   -3.7401    1.2112   24.6547 C   0  0  0  0  0  0  0  0  0  0  0  0
   -3.4382   -0.0384   23.9333 N   0  0  0  0  0  0  0  0  0  0  0  0
  1  2  1  1  0  0  0
  1  7  1  0  0  0  0
  1 30  1  0  0  0  0
  3  4  1  6  0  0  0
  3  9  1  0  0  0  0
  3 39  1  0  0  0  0
  5 10  1  0  0  0  0
  5 26  1  0  0  0  0
  5 32  1  1  0  0  0
  6 12  1  0  0  0  0
  6 36  1  0  0  0  0
  6 19  1  6  0  0  0
  7  8  1  6  0  0  0
  7 14  1  0  0  0  0
  9 16  1  0  0  0  0
 10 11  1  6  0  0  0
 10 18  1  0  0  0  0
 12 13  1  6  0  0  0
 12 20  1  0  0  0  0
 14 15  1  1  0  0  0
 14 22  1  0  0  0  0
 16 17  1  6  0  0  0
 16 24  1  0  0  0  0
 18 19  1  6  0  0  0
 18 25  1  0  0  0  0
 20 21  1  6  0  0  0
 20 27  1  0  0  0  0
 22 23  1  1  0  0  0
 22 29  1  0  0  0  0
 24  2  1  1  0  0  0
 24 31  1  0  0  0  0
 25 26  1  0  0  0  0
 25 33  1  1  0  0  0
 27 28  1  6  0  0  0
 27 35  1  0  0  0  0
 29 30  1  0  0  0  0
 29 37  1  1  0  0  0
 31 32  1  6  0  0  0
 31 39  1  0  0  0  0
 33 34  1  0  0  0  0
 35 36  1  0  0  0  0
 35 41  1  6  0  0  0
 37 38  1  0  0  0  0
 39 40  1  1  0  0  0
 41 42  1  0  0  0  0
M  END
>  <CHROM.1>
-164.27505091,-134.63734522,71.13845357,168.16133259,-71.43266849,170.39225287
-177.89170921,-61.60947889,-154.42898471,-53.69579690,65.80637740,174.18188114
-44.53845033,-99.24263223,55.58719322,170.39321833,172.49402213,-179.65749452
-70.56444718,58.99469760,69.90688984,-53.25451625,3.38684815,4.48160911,26.24703227
-0.23331199,0.57310871,2.11463625

>  <Name>
1fyp_lig

>  <RI>
0

>  <Rbt.Current_Directory>
/home/itssahil/PROJECTS/Mol_Feturizer/New_Systems/rnas/1fyp

>  <Rbt.Executable>
rbdock ($Id: //depot/dev/client3/rdock/2013.1/src/exe/rbdock.cxx#4 $)

>  <Rbt.Library>
libRbt.so (2013.1, Build901 2013/11/27)

>  <Rbt.Parameter_File>
/export/apps/rDock/src/rDock_2013.1_src/data/scripts/dock_solv.prm

>  <Rbt.Receptor>
prm/pocket_docking_2.prm

>  <SCORE>
-51.8992

>  <SCORE.INTER>
-45.158

>  <SCORE.INTER.CONST>
1

>  <SCORE.INTER.POLAR>
-4.65162

>  <SCORE.INTER.ROT>
14

>  <SCORE.INTER.SOLV>
17.6412

>  <SCORE.INTER.VDW>
-33.4136

>  <SCORE.INTER.norm>
-1.07519

>  <SCORE.INTRA>
-7.97936

>  <SCORE.INTRA.DIHEDRAL>
-28.4045

>  <SCORE.INTRA.DIHEDRAL.0>
48.7173

>  <SCORE.INTRA.POLAR>
0.852284

>  <SCORE.INTRA.POLAR.0>
-1.54691

>  <SCORE.INTRA.REPUL>
0

>  <SCORE.INTRA.REPUL.0>
0

>  <SCORE.INTRA.SOLV>
-1.09337

>  <SCORE.INTRA.SOLV.lig_0>
-64.052

>  <SCORE.INTRA.VDW>
3.8718

>  <SCORE.INTRA.VDW.0>
-7.0667

>  <SCORE.INTRA.norm>
-0.189985

>  <SCORE.RESTR>
1.23816

>  <SCORE.RESTR.CAVITY>
1.23816

>  <SCORE.RESTR.norm>
0.0294799

>  <SCORE.SYSTEM>
0

>  <SCORE.SYSTEM.CONST>
0

>  <SCORE.SYSTEM.DIHEDRAL>
0

>  <SCORE.SYSTEM.SOLV>
0

>  <SCORE.SYSTEM.norm>
0

>  <SCORE.heavy>
42

>  <SCORE.norm>
-1.23569

>  <RMSD>
1.887

$$$$
1fyp_lig
 OpenBabel11021811393D
libRbt.so/2013.1/901 2013/11/27
 42 45  0  0  0  0  0  0  0  0999 V2000
    6.2895    5.5335   26.9116 C   0  0  2  0  0  0  0  0  0  0  0  0
    5.1623    6.3146   26.4201 O   0  0  0  0  0  0  0  0  0  0  0  0
    3.4227    8.1110   22.9578 C   0  0  2  0  0  0  0  0  0  0  0  0
    3.0717    8.5604   21.5980 N   0  0  0  0  0  0  0  0  0  0  0  0
    2.4344    4.0366   25.4598 C   0  0  1  0  0  0  0  0  0  0  0  0
   -0.4808    1.4008   25.8988 C   0  0  1  0  0  0  0  0  0  0  0  0
    6.2526    5.3915   28.4674 C   0  0  2  0  0  0  0  0  0  0  0  0
    4.9306    4.9198   28.9316 N   0  0  0  0  0  0  0  0  0  0  0  0
    4.9087    8.4171   23.2316 C   0  0  0  0  0  0  0  0  0  0  0  0
    2.2040    2.5930   25.0052 C   0  0  2  0  0  0  0  0  0  0  0  0
    1.0773    2.5427   24.1291 O   0  0  0  0  0  0  0  0  0  0  0  0
   -1.9054    1.5259   26.5202 C   0  0  2  0  0  0  0  0  0  0  0  0
   -1.9304    1.1894   27.9646 N   0  0  0  0  0  0  0  0  0  0  0  0
    6.6187    6.7425   29.1579 C   0  0  1  0  0  0  0  0  0  0  0  0
    6.7364    6.5586   30.5665 O   0  0  0  0  0  0  0  0  0  0  0  0
    5.3424    7.9933   24.6615 C   0  0  2  0  0  0  0  0  0  0  0  0
    6.7912    8.2541   24.7898 N   0  0  0  0  0  0  0  0  0  0  0  0
    1.9081    1.8897   26.3326 C   0  0  2  0  0  0  0  0  0  0  0  0
    0.5175    2.0489   26.7295 O   0  0  0  0  0  0  0  0  0  0  0  0
   -2.9372    0.6717   25.7208 C   0  0  1  0  0  0  0  0  0  0  0  0
   -3.1986    1.3217   24.4788 O   0  0  0  0  0  0  0  0  0  0  0  0
    7.9533    7.3199   28.6233 C   0  0  2  0  0  0  0  0  0  0  0  0
    8.1825    8.5919   29.2218 O   0  0  0  0  0  0  0  0  0  0  0  0
    4.9983    6.4947   24.9841 C   0  0  2  0  0  0  0  0  0  0  0  0
    2.8352    2.6329   27.3044 C   0  0  2  0  0  0  0  0  0  0  0  0
    2.9306    3.9817   26.8069 O   0  0  0  0  0  0  0  0  0  0  0  0
   -2.4626   -0.7823   25.4200 C   0  0  2  0  0  0  0  0  0  0  0  0
   -2.5171   -1.5376   26.6312 O   0  0  0  0  0  0  0  0  0  0  0  0
    7.9059    7.4444   27.0740 C   0  0  2  0  0  0  0  0  0  0  0  0
    7.5567    6.1486   26.5005 O   0  0  0  0  0  0  0  0  0  0  0  0
    3.5327    6.1018   24.5747 C   0  0  2  0  0  0  0  0  0  0  0  0
    3.4307    4.6542   24.5961 O   0  0  0  0  0  0  0  0  0  0  0  0
    4.2366    2.0042   27.4008 C   0  0  0  0  0  0  0  0  0  0  0  0
    4.8836    2.3937   28.5997 O   0  0  0  0  0  0  0  0  0  0  0  0
   -1.0106   -0.7840   24.8488 C   0  0  1  0  0  0  0  0  0  0  0  0
   -0.1357   -0.0162   25.7307 O   0  0  0  0  0  0  0  0  0  0  0  0
    9.2363    7.8747   26.4168 C   0  0  0  0  0  0  0  0  0  0  0  0
   10.2002    6.8370   26.4780 O   0  0  0  0  0  0  0  0  0  0  0  0
    3.1450    6.6003   23.1479 C   0  0  1  0  0  0  0  0  0  0  0  0
    1.7566    6.3493   22.9353 O   0  0  0  0  0  0  0  0  0  0  0  0
   -0.4343   -2.2138   24.6846 C   0  0  0  0  0  0  0  0  0  0  0  0
   -0.3696   -2.6363   23.2738 N   0  0  0  0  0  0  0  0  0  0  0  0
  1  2  1  1  0  0  0
  1  7  1  0  0  0  0
  1 30  1  0  0  0  0
  3  4  1  6  0  0  0
  3  9  1  0  0  0  0
  3 39  1  0  0  0  0
  5 10  1  0  0  0  0
  5 26  1  0  0  0  0
  5 32  1  6  0  0  0
  6 12  1  0  0  0  0
  6 36  1  0  0  0  0
  6 19  1  1  0  0  0
  7  8  1  1  0  0  0
  7 14  1  0  0  0  0
  9 16  1  0  0  0  0
 10 11  1  6  0  0  0
 10 18  1  0  0  0  0
 12 13  1  1  0  0  0
 12 20  1  0  0  0  0
 14 15  1  1  0  0  0
 14 22  1  0  0  0  0
 16 17  1  6  0  0  0
 16 24  1  0  0  0  0
 18 19  1  1  0  0  0
 18 25  1  0  0  0  0
 20 21  1  6  0  0  0
 20 27  1  0  0  0  0
 22 23  1  1  0  0  0
 22 29  1  0  0  0  0
 24  2  1  1  0  0  0
 24 31  1  0  0  0  0
 25 26  1  0  0  0  0
 25 33  1  6  0  0  0
 27 28  1  1  0  0  0
 27 35  1  0  0  0  0
 29 30  1  0  0  0  0
 29 37  1  6  0  0  0
 31 32  1  6  0  0  0
 31 39  1  0  0  0  0
 33 34  1  0  0  0  0
 35 36  1  0  0  0  0
 35 41  1  1  0  0  0
 37 38  1  0  0  0  0
 39 40  1  1  0  0  0
 41 42  1  0  0  0  0
M  END
>  <CHROM.1>
-177.02656524,-108.68856833,-52.29317763,-90.08902423,156.94014082,47.57684562
-61.62897627,-29.37255314,66.82158407,173.98199630,59.16863287,-173.79020471
-159.44123382,178.10190909,71.03167437,121.87418265,162.29827748,68.25735376
106.63975990,172.84484040,-155.57090400,-59.61646370,3.17566917,4.11830368
25.99511201,-0.34168037,0.65478273,2.27256802

>  <Name>
1fyp_lig

>  <RI>
0

>  <Rbt.Current_Directory>
/home/itssahil/PROJECTS/Mol_Feturizer/New_Systems/rnas/1fyp

>  <Rbt.Executable>
rbdock ($Id: //depot/dev/client3/rdock/2013.1/src/exe/rbdock.cxx#4 $)

>  <Rbt.Library>
libRbt.so (2013.1, Build901 2013/11/27)

>  <Rbt.Parameter_File>
/export/apps/rDock/src/rDock_2013.1_src/data/scripts/dock_solv.prm

>  <Rbt.Receptor>
prm/pocket_docking_2.prm

>  <SCORE>
-54.6039

>  <SCORE.INTER>
-52.1173

>  <SCORE.INTER.CONST>
1

>  <SCORE.INTER.POLAR>
-6.59848

>  <SCORE.INTER.ROT>
14

>  <SCORE.INTER.SOLV>
18.1697

>  <SCORE.INTER.VDW>
-31.7398

>  <SCORE.INTER.norm>
-1.24089

>  <SCORE.INTRA>
-3.07128

>  <SCORE.INTRA.DIHEDRAL>
-17.7068

>  <SCORE.INTRA.DIHEDRAL.0>
48.7173

>  <SCORE.INTRA.POLAR>
0.450108

>  <SCORE.INTRA.POLAR.0>
-1.54691

>  <SCORE.INTRA.REPUL>
0

>  <SCORE.INTRA.REPUL.0>
0

>  <SCORE.INTRA.SOLV>
-0.590569

>  <SCORE.INTRA.SOLV.lig_0>
-64.052

>  <SCORE.INTRA.VDW>
4.54706

>  <SCORE.INTRA.VDW.0>
-7.0667

>  <SCORE.INTRA.norm>
-0.0731257

>  <SCORE.RESTR>
0.584686

>  <SCORE.RESTR.CAVITY>
0.584686

>  <SCORE.RESTR.norm>
0.0139211

>  <SCORE.SYSTEM>
0

>  <SCORE.SYSTEM.CONST>
0

>  <SCORE.SYSTEM.DIHEDRAL>
0

>  <SCORE.SYSTEM.SOLV>
0

>  <SCORE.SYSTEM.norm>
0

>  <SCORE.heavy>
42

>  <SCORE.norm>
-1.30009

>  <RMSD>
1.893

$$$$
1fyp_lig
 OpenBabel11021811393D
libRbt.so/2013.1/901 2013/11/27
 42 45  0  0  0  0  0  0  0  0999 V2000
    5.3843    4.6918   28.0677 C   0  0  2  0  0  0  0  0  0  0  0  0
    4.3595    5.6957   27.8143 O   0  0  0  0  0  0  0  0  0  0  0  0
    2.7601    8.4335   24.9529 C   0  0  2  0  0  0  0  0  0  0  0  0
    2.5025    9.3146   23.7989 N   0  0  0  0  0  0  0  0  0  0  0  0
    2.0858    3.7093   25.3797 C   0  0  1  0  0  0  0  0  0  0  0  0
   -0.3266    0.0692   26.0960 C   0  0  1  0  0  0  0  0  0  0  0  0
    5.5869    4.4545   29.5989 C   0  0  2  0  0  0  0  0  0  0  0  0
    4.2982    4.2004   30.2773 N   0  0  0  0  0  0  0  0  0  0  0  0
    4.1212    8.7949   25.5804 C   0  0  0  0  0  0  0  0  0  0  0  0
    2.6084    2.2826   25.1914 C   0  0  2  0  0  0  0  0  0  0  0  0
    2.4203    1.8808   23.8340 O   0  0  0  0  0  0  0  0  0  0  0  0
   -1.2140   -0.6382   25.0267 C   0  0  2  0  0  0  0  0  0  0  0  0
   -1.9814    0.3212   24.1956 N   0  0  0  0  0  0  0  0  0  0  0  0
    6.3159    5.6671   30.2579 C   0  0  1  0  0  0  0  0  0  0  0  0
    6.6348    5.3706   31.6152 O   0  0  0  0  0  0  0  0  0  0  0  0
    4.4462    7.9211   26.8227 C   0  0  2  0  0  0  0  0  0  0  0  0
    5.7971    8.2911   27.2939 N   0  0  0  0  0  0  0  0  0  0  0  0
    1.7020    1.4894   26.1367 C   0  0  2  0  0  0  0  0  0  0  0  0
    0.4259    1.1668   25.5168 O   0  0  0  0  0  0  0  0  0  0  0  0
   -2.1537   -1.6903   25.6923 C   0  0  1  0  0  0  0  0  0  0  0  0
   -1.3696   -2.8154   26.0835 O   0  0  0  0  0  0  0  0  0  0  0  0
    7.6249    6.0274   29.5116 C   0  0  2  0  0  0  0  0  0  0  0  0
    8.1909    7.1935   30.1020 O   0  0  0  0  0  0  0  0  0  0  0  0
    4.3426    6.3812   26.5292 C   0  0  2  0  0  0  0  0  0  0  0  0
    1.5046    2.4757   27.2964 C   0  0  2  0  0  0  0  0  0  0  0  0
    1.5479    3.7907   26.7092 O   0  0  0  0  0  0  0  0  0  0  0  0
   -2.9107   -1.1628   26.9488 C   0  0  2  0  0  0  0  0  0  0  0  0
   -3.9359   -0.2661   26.5181 O   0  0  0  0  0  0  0  0  0  0  0  0
    7.3386    6.2624   28.0013 C   0  0  2  0  0  0  0  0  0  0  0  0
    6.6564    5.0930   27.4563 O   0  0  0  0  0  0  0  0  0  0  0  0
    3.0336    5.9937   25.7503 C   0  0  2  0  0  0  0  0  0  0  0  0
    3.1938    4.6438   25.2419 O   0  0  0  0  0  0  0  0  0  0  0  0
    2.5828    2.3475   28.3871 C   0  0  0  0  0  0  0  0  0  0  0  0
    2.1274    2.8911   29.6138 O   0  0  0  0  0  0  0  0  0  0  0  0
   -1.9310   -0.4345   27.9205 C   0  0  1  0  0  0  0  0  0  0  0  0
   -1.1708    0.5732   27.1863 O   0  0  0  0  0  0  0  0  0  0  0  0
    8.5948    6.4874   27.1303 C   0  0  0  0  0  0  0  0  0  0  0  0
    8.2599    7.0807   25.8872 O   0  0  0  0  0  0  0  0  0  0  0  0
    2.7396    6.9405   24.5455 C   0  0  1  0  0  0  0  0  0  0  0  0
    1.4562    6.6188   24.0113 O   0  0  0  0  0  0  0  0  0  0  0  0
   -2.6612    0.2473   29.1059 C   0  0  0  0  0  0  0  0  0  0  0  0
   -1.7436    1.0179   29.9644 N   0  0  0  0  0  0  0  0  0  0  0  0
  1  2  1  1  0  0  0
  1  7  1  0  0  0  0
  1 30  1  0  0  0  0
  3  4  1  6  0  0  0
  3  9  1  0  0  0  0
  3 39  1  0  0  0  0
  5 10  1  0  0  0  0
  5 26  1  0  0  0  0
  5 32  1  1  0  0  0
  6 12  1  0  0  0  0
  6 36  1  0  0  0  0
  6 19  1  6  0  0  0
  7  8  1  1  0  0  0
  7 14  1  0  0  0  0
  9 16  1  0  0  0  0
 10 11  1  6  0  0  0
 10 18  1  0  0  0  0
 12 13  1  1  0  0  0
 12 20  1  0  0  0  0
 14 15  1  1  0  0  0
 14 22  1  0  0  0  0
 16 17  1  6  0  0  0
 16 24  1  0  0  0  0
 18 19  1  6  0  0  0
 18 25  1  0  0  0  0
 20 21  1  1  0  0  0
 20 27  1  0  0  0  0
 22 23  1  1  0  0  0
 22 29  1  0  0  0  0
 24  2  1  1  0  0  0
 24 31  1  0  0  0  0
 25 26  1  0  0  0  0
 25 33  1  1  0  0  0
 27 28  1  6  0  0  0
 27 35  1  0  0  0  0
 29 30  1  0  0  0  0
 29 37  1  6  0  0  0
 31 32  1  6  0  0  0
 31 39  1  0  0  0  0
 33 34  1  0  0  0  0
 35 36  1  0  0  0  0
 35 41  1  1  0  0  0
 37 38  1  0  0  0  0
 39 40  1  1  0  0  0
 41 42  1  0  0  0  0
M  END
>  <CHROM.1>
159.04567647,-122.84634984,66.49927144,175.66487792,-161.16354194,54.06270562
-62.54422798,-2.93062327,159.80468880,-151.10217466,64.06254402,171.53046751
-158.93185110,64.01839605,-162.37697148,135.60982839,-162.47072248,-61.38020896
-175.71330708,43.95552369,-55.10693023,-36.98720506,2.59941635,3.78622069
26.98824886,-0.34338008,0.67337117,2.25657429

>  <Name>
1fyp_lig

>  <RI>
0

>  <Rbt.Current_Directory>
/home/itssahil/PROJECTS/Mol_Feturizer/New_Systems/rnas/1fyp

>  <Rbt.Executable>
rbdock ($Id: //depot/dev/client3/rdock/2013.1/src/exe/rbdock.cxx#4 $)

>  <Rbt.Library>
libRbt.so (2013.1, Build901 2013/11/27)

>  <Rbt.Parameter_File>
/export/apps/rDock/src/rDock_2013.1_src/data/scripts/dock_solv.prm

>  <Rbt.Receptor>
prm/blind_docking_40.prm

>  <SCORE>
-23.7768

>  <SCORE.INTER>
-20.8034

>  <SCORE.INTER.CONST>
1

>  <SCORE.INTER.POLAR>
-3.04525

>  <SCORE.INTER.ROT>
14

>  <SCORE.INTER.SOLV>
14.4802

>  <SCORE.INTER.VDW>
-21.4781

>  <SCORE.INTER.norm>
-0.495318

>  <SCORE.INTRA>
-3.67126

>  <SCORE.INTRA.DIHEDRAL>
-17.0593

>  <SCORE.INTRA.DIHEDRAL.0>
48.7173

>  <SCORE.INTRA.POLAR>
0.802892

>  <SCORE.INTRA.POLAR.0>
-1.54691

>  <SCORE.INTRA.REPUL>
0

>  <SCORE.INTRA.REPUL.0>
0

>  <SCORE.INTRA.SOLV>
-1.01793

>  <SCORE.INTRA.SOLV.lig_0>
-64.052

>  <SCORE.INTRA.VDW>
2.63751

>  <SCORE.INTRA.VDW.0>
-7.0667

>  <SCORE.INTRA.norm>
-0.087411

>  <SCORE.RESTR>
0.697862

>  <SCORE.RESTR.CAVITY>
0.697862

>  <SCORE.RESTR.norm>
0.0166158

>  <SCORE.SYSTEM>
0

>  <SCORE.SYSTEM.CONST>
0

>  <SCORE.SYSTEM.DIHEDRAL>
0

>  <SCORE.SYSTEM.SOLV>
0

>  <SCORE.SYSTEM.norm>
0

>  <SCORE.heavy>
42

>  <SCORE.norm>
-0.566113

>  <RMSD>
1.914

$$$$
1fyp_lig
 OpenBabel11021811393D
libRbt.so/2013.1/901 2013/11/27
 42 45  0  0  0  0  0  0  0  0999 V2000
    6.7377    5.8697   28.7731 C   0  0  2  0  0  0  0  0  0  0  0  0
    5.8194    6.8373   28.1878 O   0  0  0  0  0  0  0  0  0  0  0  0
    2.8200    7.4041   25.2007 C   0  0  2  0  0  0  0  0  0  0  0  0
    1.9620    7.3568   24.0023 N   0  0  0  0  0  0  0  0  0  0  0  0
    2.3609    4.0634   27.9184 C   0  0  1  0  0  0  0  0  0  0  0  0
   -0.6356    0.9903   26.7396 C   0  0  1  0  0  0  0  0  0  0  0  0
    6.6745    5.8923   30.3344 C   0  0  2  0  0  0  0  0  0  0  0  0
    5.2810    5.7850   30.8163 N   0  0  0  0  0  0  0  0  0  0  0  0
    4.2829    7.6399   24.7751 C   0  0  0  0  0  0  0  0  0  0  0  0
    2.3827    3.0071   26.8104 C   0  0  2  0  0  0  0  0  0  0  0  0
    1.7367    3.5234   25.6462 O   0  0  0  0  0  0  0  0  0  0  0  0
   -0.3237    0.7778   25.2268 C   0  0  2  0  0  0  0  0  0  0  0  0
   -0.3377    2.0456   24.4569 N   0  0  0  0  0  0  0  0  0  0  0  0
    7.3449    7.1837   30.8994 C   0  0  1  0  0  0  0  0  0  0  0  0
    7.4219    7.1159   32.3211 O   0  0  0  0  0  0  0  0  0  0  0  0
    5.2425    7.7284   25.9932 C   0  0  2  0  0  0  0  0  0  0  0  0
    6.6185    7.8727   25.4743 N   0  0  0  0  0  0  0  0  0  0  0  0
    1.5691    1.8739   27.4414 C   0  0  2  0  0  0  0  0  0  0  0  0
    0.1380    2.0880   27.2903 O   0  0  0  0  0  0  0  0  0  0  0  0
   -1.2902   -0.2755   24.6028 C   0  0  1  0  0  0  0  0  0  0  0  0
   -0.9154   -1.5689   25.0720 O   0  0  0  0  0  0  0  0  0  0  0  0
    8.7748    7.3837   30.3376 C   0  0  2  0  0  0  0  0  0  0  0  0
    9.2935    8.6210   30.8158 O   0  0  0  0  0  0  0  0  0  0  0  0
    5.1192    6.4943   26.9576 C   0  0  2  0  0  0  0  0  0  0  0  0
    1.9760    1.9693   28.9185 C   0  0  2  0  0  0  0  0  0  0  0  0
    2.2390    3.3639   29.1673 O   0  0  0  0  0  0  0  0  0  0  0  0
   -2.7922   -0.0464   24.9517 C   0  0  2  0  0  0  0  0  0  0  0  0
   -3.2642    1.0794   24.2098 O   0  0  0  0  0  0  0  0  0  0  0  0
    8.7520    7.3640   28.7828 C   0  0  2  0  0  0  0  0  0  0  0  0
    8.1112    6.1337   28.3294 O   0  0  0  0  0  0  0  0  0  0  0  0
    3.6284    6.1266   27.2929 C   0  0  2  0  0  0  0  0  0  0  0  0
    3.6134    4.8053   27.8932 O   0  0  0  0  0  0  0  0  0  0  0  0
    3.2194    1.1279   29.2570 C   0  0  0  0  0  0  0  0  0  0  0  0
    3.1204    0.5822   30.5609 O   0  0  0  0  0  0  0  0  0  0  0  0
   -2.9739    0.2016   26.4813 C   0  0  1  0  0  0  0  0  0  0  0  0
   -2.0676    1.2603   26.9176 O   0  0  0  0  0  0  0  0  0  0  0  0
   10.1435    7.4106   28.1130 C   0  0  0  0  0  0  0  0  0  0  0  0
   10.9879    6.3853   28.6081 O   0  0  0  0  0  0  0  0  0  0  0  0
    2.7089    6.1037   26.0325 C   0  0  1  0  0  0  0  0  0  0  0  0
    1.3566    5.9317   26.4538 O   0  0  0  0  0  0  0  0  0  0  0  0
   -4.4265    0.5936   26.8551 C   0  0  0  0  0  0  0  0  0  0  0  0
   -5.4138   -0.3999   26.3958 N   0  0  0  0  0  0  0  0  0  0  0  0
  1  2  1  6  0  0  0
  1  7  1  0  0  0  0
  1 30  1  0  0  0  0
  3  4  1  6  0  0  0
  3  9  1  0  0  0  0
  3 39  1  0  0  0  0
  5 10  1  0  0  0  0
  5 26  1  0  0  0  0
  5 32  1  1  0  0  0
  6 12  1  0  0  0  0
  6 36  1  0  0  0  0
  6 19  1  6  0  0  0
  7  8  1  6  0  0  0
  7 14  1  0  0  0  0
  9 16  1  0  0  0  0
 10 11  1  6  0  0  0
 10 18  1  0  0  0  0
 12 13  1  6  0  0  0
 12 20  1  0  0  0  0
 14 15  1  1  0  0  0
 14 22  1  0  0  0  0
 16 17  1  6  0  0  0
 16 24  1  0  0  0  0
 18 19  1  1  0  0  0
 18 25  1  0  0  0  0
 20 21  1  1  0  0  0
 20 27  1  0  0  0  0
 22 23  1  6  0  0  0
 22 29  1  0  0  0  0
 24  2  1  1  0  0  0
 24 31  1  0  0  0  0
 25 26  1  0  0  0  0
 25 33  1  6  0  0  0
 27 28  1  6  0  0  0
 27 35  1  0  0  0  0
 29 30  1  0  0  0  0
 29 37  1  6  0  0  0
 31 32  1  6  0  0  0
 31 39  1  0  0  0  0
 33 34  1  0  0  0  0
 35 36  1  0  0  0  0
 35 41  1  6  0  0  0
 37 38  1  0  0  0  0
 39 40  1  1  0  0  0
 41 42  1  0  0  0  0
M  END
>  <CHROM.1>
-143.04240932,-133.55106896,119.88684574,95.27026487,90.08431462,-66.33115621
-74.51607782,170.82248484,128.78716140,-70.22654133,60.62293109,63.48589197
-144.90250577,67.53926874,53.63648362,-161.27010650,101.96014242,120.95765436
55.57554259,177.60370186,-62.20152548,-78.95526498,3.02328616,4.17759599
27.43032236,-0.14874213,0.61518842,2.28038377

>  <Name>
1fyp_lig

>  <RI>
0

>  <Rbt.Current_Directory>
/home/itssahil/PROJECTS/Mol_Feturizer/New_Systems/rnas/1fyp

>  <Rbt.Executable>
rbdock ($Id: //depot/dev/client3/rdock/2013.1/src/exe/rbdock.cxx#4 $)

>  <Rbt.Library>
libRbt.so (2013.1, Build901 2013/11/27)

>  <Rbt.Parameter_File>
/export/apps/rDock/src/rDock_2013.1_src/data/scripts/dock_solv.prm

>  <Rbt.Receptor>
prm/pocket_docking_5.prm

>  <SCORE>
-29.6126

>  <SCORE.INTER>
-35.6779

>  <SCORE.INTER.CONST>
1

>  <SCORE.INTER.POLAR>
-4.98551

>  <SCORE.INTER.ROT>
14

>  <SCORE.INTER.SOLV>
15.509

>  <SCORE.INTER.VDW>
-25.2699

>  <SCORE.INTER.norm>
-0.849474

>  <SCORE.INTRA>
6.06532

>  <SCORE.INTRA.DIHEDRAL>
-2.56598

>  <SCORE.INTRA.DIHEDRAL.0>
48.7173

>  <SCORE.INTRA.POLAR>
0.458275

>  <SCORE.INTRA.POLAR.0>
-1.54691

>  <SCORE.INTRA.REPUL>
0.235729

>  <SCORE.INTRA.REPUL.0>
0

>  <SCORE.INTRA.SOLV>
-0.0365425

>  <SCORE.INTRA.SOLV.lig_0>
-64.052

>  <SCORE.INTRA.VDW>
4.6298

>  <SCORE.INTRA.VDW.0>
-7.0667

>  <SCORE.INTRA.norm>
0.144412

>  <SCORE.RESTR>
0

>  <SCORE.RESTR.CAVITY>
0

>  <SCORE.RESTR.norm>
0

>  <SCORE.SYSTEM>
0

>  <SCORE.SYSTEM.CONST>
0

>  <SCORE.SYSTEM.DIHEDRAL>
0

>  <SCORE.SYSTEM.SOLV>
0

>  <SCORE.SYSTEM.norm>
0

>  <SCORE.heavy>
42

>  <SCORE.norm>
-0.705062

>  <RMSD>
1.920

$$$$
1fyp_lig
 OpenBabel11021811393D
libRbt.so/2013.1/901 2013/11/27
 42 45  0  0  0  0  0  0  0  0999 V2000
    6.7929    5.4707   27.0414 C   0  0  2  0  0  0  0  0  0  0  0  0
    5.6214    6.1840   26.5503 O   0  0  0  0  0  0  0  0  0  0  0  0
    3.8386    7.9159   23.0771 C   0  0  2  0  0  0  0  0  0  0  0  0
    3.4678    8.3365   21.7133 N   0  0  0  0  0  0  0  0  0  0  0  0
    2.5587    3.9172   25.1744 C   0  0  1  0  0  0  0  0  0  0  0  0
    0.0136    0.6971   25.2851 C   0  0  1  0  0  0  0  0  0  0  0  0
    6.3927    4.1532   27.7804 C   0  0  2  0  0  0  0  0  0  0  0  0
    5.4760    3.3347   26.9587 N   0  0  0  0  0  0  0  0  0  0  0  0
    5.3326    8.2119   23.3167 C   0  0  0  0  0  0  0  0  0  0  0  0
    2.7167    2.3995   25.2979 C   0  0  2  0  0  0  0  0  0  0  0  0
    2.3293    1.7782   24.0717 O   0  0  0  0  0  0  0  0  0  0  0  0
   -1.0356    0.9168   24.1528 C   0  0  2  0  0  0  0  0  0  0  0  0
   -2.1628    1.7822   24.5782 N   0  0  0  0  0  0  0  0  0  0  0  0
    5.7445    4.4672   29.1651 C   0  0  1  0  0  0  0  0  0  0  0  0
    5.5312    3.2604   29.8931 O   0  0  0  0  0  0  0  0  0  0  0  0
    5.7876    7.8177   24.7485 C   0  0  2  0  0  0  0  0  0  0  0  0
    7.2413    8.0653   24.8443 N   0  0  0  0  0  0  0  0  0  0  0  0
    1.7309    2.0720   26.4228 C   0  0  2  0  0  0  0  0  0  0  0  0
    0.3684    1.9492   25.9278 O   0  0  0  0  0  0  0  0  0  0  0  0
   -1.5467   -0.4479   23.5966 C   0  0  1  0  0  0  0  0  0  0  0  0
   -0.5129   -1.0313   22.8064 O   0  0  0  0  0  0  0  0  0  0  0  0
    6.6337    5.4064   30.0180 C   0  0  2  0  0  0  0  0  0  0  0  0
    5.9474    5.7281   31.2239 O   0  0  0  0  0  0  0  0  0  0  0  0
    5.4333    6.3313   25.1135 C   0  0  2  0  0  0  0  0  0  0  0  0
    1.8650    3.2990   27.3355 C   0  0  2  0  0  0  0  0  0  0  0  0
    2.1656    4.4080   26.4661 O   0  0  0  0  0  0  0  0  0  0  0  0
   -1.9548   -1.4718   24.6989 C   0  0  2  0  0  0  0  0  0  0  0  0
   -3.1910   -1.0488   25.2764 O   0  0  0  0  0  0  0  0  0  0  0  0
    6.9752    6.6976   29.2214 C   0  0  2  0  0  0  0  0  0  0  0  0
    7.5729    6.3265   27.9427 O   0  0  0  0  0  0  0  0  0  0  0  0
    3.9563    5.9452   24.7401 C   0  0  2  0  0  0  0  0  0  0  0  0
    3.8390    4.4998   24.7984 O   0  0  0  0  0  0  0  0  0  0  0  0
    2.9694    3.1438   28.3961 C   0  0  0  0  0  0  0  0  0  0  0  0
    2.8024    1.9414   29.1269 O   0  0  0  0  0  0  0  0  0  0  0  0
   -0.8523   -1.5708   25.7984 C   0  0  1  0  0  0  0  0  0  0  0  0
   -0.5236   -0.2338   26.2852 O   0  0  0  0  0  0  0  0  0  0  0  0
    7.9768    7.6445   29.9194 C   0  0  0  0  0  0  0  0  0  0  0  0
    8.4740    8.6214   29.0205 O   0  0  0  0  0  0  0  0  0  0  0  0
    3.5481    6.4135   23.3088 C   0  0  1  0  0  0  0  0  0  0  0  0
    2.1534    6.1731   23.1273 O   0  0  0  0  0  0  0  0  0  0  0  0
   -1.2814   -2.4542   26.9978 C   0  0  0  0  0  0  0  0  0  0  0  0
   -2.4033   -1.8698   27.7548 N   0  0  0  0  0  0  0  0  0  0  0  0
  1  2  1  1  0  0  0
  1  7  1  0  0  0  0
  1 30  1  0  0  0  0
  3  4  1  6  0  0  0
  3  9  1  0  0  0  0
  3 39  1  0  0  0  0
  5 10  1  0  0  0  0
  5 26  1  0  0  0  0
  5 32  1  1  0  0  0
  6 12  1  0  0  0  0
  6 36  1  0  0  0  0
  6 19  1  1  0  0  0
  7  8  1  6  0  0  0
  7 14  1  0  0  0  0
  9 16  1  0  0  0  0
 10 11  1  6  0  0  0
 10 18  1  0  0  0  0
 12 13  1  1  0  0  0
 12 20  1  0  0  0  0
 14 15  1  1  0  0  0
 14 22  1  0  0  0  0
 16 17  1  6  0  0  0
 16 24  1  0  0  0  0
 18 19  1  6  0  0  0
 18 25  1  0  0  0  0
 20 21  1  1  0  0  0
 20 27  1  0  0  0  0
 22 23  1  1  0  0  0
 22 29  1  0  0  0  0
 24  2  1  1  0  0  0
 24 31  1  0  0  0  0
 25 26  1  0  0  0  0
 25 33  1  1  0  0  0
 27 28  1  1  0  0  0
 27 35  1  0  0  0  0
 29 30  1  0  0  0  0
 29 37  1  1  0  0  0
 31 32  1  6  0  0  0
 31 39  1  0  0  0  0
 33 34  1  0  0  0  0
 35 36  1  0  0  0  0
 35 41  1  1  0  0  0
 37 38  1  0  0  0  0
 39 40  1  1  0  0  0
 41 42  1  0  0  0  0
M  END
>  <CHROM.1>
-114.76655881,-105.02774367,-176.44909304,53.87238878,81.21329229,100.61133824
66.18813500,-49.91249953,79.47298805,-147.51022674,-63.95067995,-179.56480164
-52.64170226,-167.58857220,166.29104627,148.91235803,-174.56804992,71.29326807
-65.88034059,-45.06959656,177.90388260,-62.02501948,3.03157871,3.68052553
26.18289641,-0.23022593,0.74517263,2.16118828

>  <Name>
1fyp_lig

>  <RI>
0

>  <Rbt.Current_Directory>
/home/itssahil/PROJECTS/Mol_Feturizer/New_Systems/rnas/1fyp

>  <Rbt.Executable>
rbdock ($Id: //depot/dev/client3/rdock/2013.1/src/exe/rbdock.cxx#4 $)

>  <Rbt.Library>
libRbt.so (2013.1, Build901 2013/11/27)

>  <Rbt.Parameter_File>
/export/apps/rDock/src/rDock_2013.1_src/data/scripts/dock_solv.prm

>  <Rbt.Receptor>
prm/pocket_docking_2.prm

>  <SCORE>
-39.6352

>  <SCORE.INTER>
-37.0653

>  <SCORE.INTER.CONST>
1

>  <SCORE.INTER.POLAR>
-3.52145

>  <SCORE.INTER.ROT>
14

>  <SCORE.INTER.SOLV>
17.6464

>  <SCORE.INTER.VDW>
-31.7875

>  <SCORE.INTER.norm>
-0.882508

>  <SCORE.INTRA>
-4.41948

>  <SCORE.INTRA.DIHEDRAL>
-17.8243

>  <SCORE.INTRA.DIHEDRAL.0>
48.7173

>  <SCORE.INTRA.POLAR>
0.51743

>  <SCORE.INTRA.POLAR.0>
-1.54691

>  <SCORE.INTRA.REPUL>
0.0135835

>  <SCORE.INTRA.REPUL.0>
0

>  <SCORE.INTRA.SOLV>
-0.30429

>  <SCORE.INTRA.SOLV.lig_0>
-64.052

>  <SCORE.INTRA.VDW>
2.81761

>  <SCORE.INTRA.VDW.0>
-7.0667

>  <SCORE.INTRA.norm>
-0.105226

>  <SCORE.RESTR>
1.84963

>  <SCORE.RESTR.CAVITY>
1.84963

>  <SCORE.RESTR.norm>
0.0440387

>  <SCORE.SYSTEM>
0

>  <SCORE.SYSTEM.CONST>
0

>  <SCORE.SYSTEM.DIHEDRAL>
0

>  <SCORE.SYSTEM.SOLV>
0

>  <SCORE.SYSTEM.norm>
0

>  <SCORE.heavy>
42

>  <SCORE.norm>
-0.943695

>  <RMSD>
1.942

$$$$
1fyp_lig
 OpenBabel11021811393D
libRbt.so/2013.1/901 2013/11/27
 42 45  0  0  0  0  0  0  0  0999 V2000
    6.4929    5.8894   27.2683 C   0  0  2  0  0  0  0  0  0  0  0  0
    5.7678    6.9842   26.6373 O   0  0  0  0  0  0  0  0  0  0  0  0
    3.6446    8.0973   23.1027 C   0  0  2  0  0  0  0  0  0  0  0  0
    3.1535    8.2932   21.7261 N   0  0  0  0  0  0  0  0  0  0  0  0
    2.6728    4.3179   25.4221 C   0  0  1  0  0  0  0  0  0  0  0  0
   -0.6892    1.8608   26.5719 C   0  0  1  0  0  0  0  0  0  0  0  0
    6.4228    5.9796   28.8268 C   0  0  2  0  0  0  0  0  0  0  0  0
    5.0290    6.1413   29.2925 N   0  0  0  0  0  0  0  0  0  0  0  0
    5.1324    8.4942   23.1779 C   0  0  0  0  0  0  0  0  0  0  0  0
    2.8973    2.8299   25.7032 C   0  0  2  0  0  0  0  0  0  0  0  0
    2.8419    2.0991   24.4775 O   0  0  0  0  0  0  0  0  0  0  0  0
   -0.5020    0.4975   27.3050 C   0  0  2  0  0  0  0  0  0  0  0  0
    0.0782   -0.5483   26.4274 N   0  0  0  0  0  0  0  0  0  0  0  0
    7.3098    7.1495   29.3566 C   0  0  1  0  0  0  0  0  0  0  0  0
    7.3625    7.1206   30.7808 O   0  0  0  0  0  0  0  0  0  0  0  0
    5.7107    8.3383   24.6110 C   0  0  2  0  0  0  0  0  0  0  0  0
    7.1509    8.6643   24.5546 N   0  0  0  0  0  0  0  0  0  0  0  0
    1.7042    2.4973   26.6033 C   0  0  2  0  0  0  0  0  0  0  0  0
    0.5018    2.2300   25.8290 O   0  0  0  0  0  0  0  0  0  0  0  0
   -1.8429    0.0217   27.9443 C   0  0  1  0  0  0  0  0  0  0  0  0
   -2.1134    0.8319   29.0862 O   0  0  0  0  0  0  0  0  0  0  0  0
    8.7567    7.0695   28.8084 C   0  0  2  0  0  0  0  0  0  0  0  0
    9.4855    8.2104   29.2513 O   0  0  0  0  0  0  0  0  0  0  0  0
    5.4692    6.9078   25.2138 C   0  0  2  0  0  0  0  0  0  0  0  0
    1.5456    3.7887   27.4178 C   0  0  2  0  0  0  0  0  0  0  0  0
    1.9636    4.8588   26.5484 O   0  0  0  0  0  0  0  0  0  0  0  0
   -3.0695    0.1045   26.9859 C   0  0  2  0  0  0  0  0  0  0  0  0
   -2.9611   -0.9407   26.0182 O   0  0  0  0  0  0  0  0  0  0  0  0
    8.7427    6.9980   27.2551 C   0  0  2  0  0  0  0  0  0  0  0  0
    7.8948    5.8869   26.8351 O   0  0  0  0  0  0  0  0  0  0  0  0
    3.9938    6.4027   25.0183 C   0  0  2  0  0  0  0  0  0  0  0  0
    3.9641    4.9781   25.2940 O   0  0  0  0  0  0  0  0  0  0  0  0
    2.3860    3.7956   28.7071 C   0  0  0  0  0  0  0  0  0  0  0  0
    2.3180    5.0576   29.3476 O   0  0  0  0  0  0  0  0  0  0  0  0
   -3.1250    1.4926   26.2757 C   0  0  1  0  0  0  0  0  0  0  0  0
   -1.8338    1.7786   25.6563 O   0  0  0  0  0  0  0  0  0  0  0  0
   10.1250    6.7702   26.6037 C   0  0  0  0  0  0  0  0  0  0  0  0
   11.0049    7.8486   26.8724 O   0  0  0  0  0  0  0  0  0  0  0  0
    3.4580    6.6340   23.5712 C   0  0  1  0  0  0  0  0  0  0  0  0
    2.0700    6.3052   23.5375 O   0  0  0  0  0  0  0  0  0  0  0  0
   -4.2325    1.5669   25.1936 C   0  0  0  0  0  0  0  0  0  0  0  0
   -3.9194    0.7457   24.0101 N   0  0  0  0  0  0  0  0  0  0  0  0
  1  2  1  6  0  0  0
  1  7  1  0  0  0  0
  1 30  1  0  0  0  0
  3  4  1  6  0  0  0
  3  9  1  0  0  0  0
  3 39  1  0  0  0  0
  5 10  1  0  0  0  0
  5 26  1  0  0  0  0
  5 32  1  1  0  0  0
  6 12  1  0  0  0  0
  6 36  1  0  0  0  0
  6 19  1  6  0  0  0
  7  8  1  6  0  0  0
  7 14  1  0  0  0  0
  9 16  1  0  0  0  0
 10 11  1  6  0  0  0
 10 18  1  0  0  0  0
 12 13  1  6  0  0  0
 12 20  1  0  0  0  0
 14 15  1  1  0  0  0
 14 22  1  0  0  0  0
 16 17  1  6  0  0  0
 16 24  1  0  0  0  0
 18 19  1  6  0  0  0
 18 25  1  0  0  0  0
 20 21  1  1  0  0  0
 20 27  1  0  0  0  0
 22 23  1  6  0  0  0
 22 29  1  0  0  0  0
 24  2  1  1  0  0  0
 24 31  1  0  0  0  0
 25 26  1  0  0  0  0
 25 33  1  1  0  0  0
 27 28  1  6  0  0  0
 27 35  1  0  0  0  0
 29 30  1  0  0  0  0
 29 37  1  1  0  0  0
 31 32  1  6  0  0  0
 31 39  1  0  0  0  0
 33 34  1  0  0  0  0
 35 36  1  0  0  0  0
 35 41  1  6  0  0  0
 37 38  1  0  0  0  0
 39 40  1  1  0  0  0
 41 42  1  0  0  0  0
M  END
>  <CHROM.1>
-166.43828605,-139.01561671,68.59889250,-70.40463314,-64.86097388,-36.03072875
58.84776722,75.21981536,178.13847560,-64.79143573,79.55309998,67.75928493
173.75114209,-35.29487520,-63.11044395,168.86754098,179.73700438,69.46310213
-70.45713166,-156.27621338,-58.55137732,50.97889012,3.16876762,4.61762932
26.41765571,-0.21443380,0.55820163,2.07337933

>  <Name>
1fyp_lig

>  <RI>
0

>  <Rbt.Current_Directory>
/home/itssahil/PROJECTS/Mol_Feturizer/New_Systems/rnas/1fyp

>  <Rbt.Executable>
rbdock ($Id: //depot/dev/client3/rdock/2013.1/src/exe/rbdock.cxx#4 $)

>  <Rbt.Library>
libRbt.so (2013.1, Build901 2013/11/27)

>  <Rbt.Parameter_File>
/export/apps/rDock/src/rDock_2013.1_src/data/scripts/dock_solv.prm

>  <Rbt.Receptor>
prm/pocket_docking_4.prm

>  <SCORE>
-50.9943

>  <SCORE.INTER>
-37.7309

>  <SCORE.INTER.CONST>
1

>  <SCORE.INTER.POLAR>
-3.72727

>  <SCORE.INTER.ROT>
14

>  <SCORE.INTER.SOLV>
16.5201

>  <SCORE.INTER.VDW>
-31.1697

>  <SCORE.INTER.norm>
-0.898354

>  <SCORE.INTRA>
-13.2634

>  <SCORE.INTRA.DIHEDRAL>
-31.3616

>  <SCORE.INTRA.DIHEDRAL.0>
48.7173

>  <SCORE.INTRA.POLAR>
-0.118894

>  <SCORE.INTRA.POLAR.0>
-1.54691

>  <SCORE.INTRA.REPUL>
0

>  <SCORE.INTRA.REPUL.0>
0

>  <SCORE.INTRA.SOLV>
-0.652276

>  <SCORE.INTRA.SOLV.lig_0>
-64.052

>  <SCORE.INTRA.VDW>
3.14781

>  <SCORE.INTRA.VDW.0>
-7.0667

>  <SCORE.INTRA.norm>
-0.315795

>  <SCORE.RESTR>
0

>  <SCORE.RESTR.CAVITY>
0

>  <SCORE.RESTR.norm>
0

>  <SCORE.SYSTEM>
0

>  <SCORE.SYSTEM.CONST>
0

>  <SCORE.SYSTEM.DIHEDRAL>
0

>  <SCORE.SYSTEM.SOLV>
0

>  <SCORE.SYSTEM.norm>
0

>  <SCORE.heavy>
42

>  <SCORE.norm>
-1.21415

>  <RMSD>
1.950

$$$$
1fyp_lig
 OpenBabel11021811393D
libRbt.so/2013.1/901 2013/11/27
 42 45  0  0  0  0  0  0  0  0999 V2000
    6.9829    6.4363   26.5742 C   0  0  2  0  0  0  0  0  0  0  0  0
    5.6635    6.9686   26.2609 O   0  0  0  0  0  0  0  0  0  0  0  0
    3.1469    8.2337   23.0505 C   0  0  2  0  0  0  0  0  0  0  0  0
    2.5030    8.4948   21.7498 N   0  0  0  0  0  0  0  0  0  0  0  0
    2.5431    4.3593   25.5297 C   0  0  1  0  0  0  0  0  0  0  0  0
   -0.2441    1.0545   26.6204 C   0  0  1  0  0  0  0  0  0  0  0  0
    6.9043    4.9444   27.0326 C   0  0  2  0  0  0  0  0  0  0  0  0
    6.1255    4.1298   26.0758 N   0  0  0  0  0  0  0  0  0  0  0  0
    4.6296    8.6507   22.9817 C   0  0  0  0  0  0  0  0  0  0  0  0
    2.6404    2.8531   25.2730 C   0  0  2  0  0  0  0  0  0  0  0  0
    1.9642    2.5317   24.0569 O   0  0  0  0  0  0  0  0  0  0  0  0
    0.4538   -0.1896   25.9909 C   0  0  2  0  0  0  0  0  0  0  0  0
    0.7988    0.0107   24.5622 N   0  0  0  0  0  0  0  0  0  0  0  0
    6.2901    4.8339   28.4632 C   0  0  1  0  0  0  0  0  0  0  0  0
    6.3709    3.4897   28.9305 O   0  0  0  0  0  0  0  0  0  0  0  0
    5.3660    8.4280   24.3310 C   0  0  2  0  0  0  0  0  0  0  0  0
    6.7874    8.7804   24.1330 N   0  0  0  0  0  0  0  0  0  0  0  0
    1.9041    2.2799   26.4869 C   0  0  2  0  0  0  0  0  0  0  0  0
    0.4622    2.2795   26.2929 O   0  0  0  0  0  0  0  0  0  0  0  0
   -0.4108   -1.4723   26.1912 C   0  0  1  0  0  0  0  0  0  0  0  0
   -0.3304   -1.8642   27.5600 O   0  0  0  0  0  0  0  0  0  0  0  0
    7.0193    5.7521   29.4759 C   0  0  2  0  0  0  0  0  0  0  0  0
    6.3557    5.6763   30.7339 O   0  0  0  0  0  0  0  0  0  0  0  0
    5.2085    6.9635   24.8773 C   0  0  2  0  0  0  0  0  0  0  0  0
    2.2990    3.2639   27.5970 C   0  0  2  0  0  0  0  0  0  0  0  0
    2.4653    4.5417   26.9525 O   0  0  0  0  0  0  0  0  0  0  0  0
   -1.9147   -1.2900   25.8236 C   0  0  2  0  0  0  0  0  0  0  0  0
   -2.0301   -1.2264   24.4012 O   0  0  0  0  0  0  0  0  0  0  0  0
    7.0426    7.2177   28.9567 C   0  0  2  0  0  0  0  0  0  0  0  0
    7.6253    7.2420   27.6189 O   0  0  0  0  0  0  0  0  0  0  0  0
    3.7259    6.4452   24.8194 C   0  0  2  0  0  0  0  0  0  0  0  0
    3.7421    5.0076   25.0179 O   0  0  0  0  0  0  0  0  0  0  0  0
    3.5959    2.8648   28.3233 C   0  0  0  0  0  0  0  0  0  0  0  0
    3.4298    1.6409   29.0177 O   0  0  0  0  0  0  0  0  0  0  0  0
   -2.4892    0.0090   26.4694 C   0  0  1  0  0  0  0  0  0  0  0  0
   -1.6288    1.1422   26.1406 O   0  0  0  0  0  0  0  0  0  0  0  0
    7.8708    8.1977   29.8175 C   0  0  0  0  0  0  0  0  0  0  0  0
    7.3307    8.3197   31.1225 O   0  0  0  0  0  0  0  0  0  0  0  0
    3.0293    6.7446   23.4557 C   0  0  1  0  0  0  0  0  0  0  0  0
    1.6497    6.3951   23.5582 O   0  0  0  0  0  0  0  0  0  0  0  0
   -3.9347    0.3197   26.0033 C   0  0  0  0  0  0  0  0  0  0  0  0
   -4.7429    0.9546   27.0600 N   0  0  0  0  0  0  0  0  0  0  0  0
  1  2  1  1  0  0  0
  1  7  1  0  0  0  0
  1 30  1  0  0  0  0
  3  4  1  6  0  0  0
  3  9  1  0  0  0  0
  3 39  1  0  0  0  0
  5 10  1  0  0  0  0
  5 26  1  0  0  0  0
  5 32  1  1  0  0  0
  6 12  1  0  0  0  0
  6 36  1  0  0  0  0
  6 19  1  6  0  0  0
  7  8  1  6  0  0  0
  7 14  1  0  0  0  0
  9 16  1  0  0  0  0
 10 11  1  6  0  0  0
 10 18  1  0  0  0  0
 12 13  1  6  0  0  0
 12 20  1  0  0  0  0
 14 15  1  1  0  0  0
 14 22  1  0  0  0  0
 16 17  1  6  0  0  0
 16 24  1  0  0  0  0
 18 19  1  6  0  0  0
 18 25  1  0  0  0  0
 20 21  1  1  0  0  0
 20 27  1  0  0  0  0
 22 23  1  1  0  0  0
 22 29  1  0  0  0  0
 24  2  1  1  0  0  0
 24 31  1  0  0  0  0
 25 26  1  0  0  0  0
 25 33  1  6  0  0  0
 27 28  1  6  0  0  0
 27 35  1  0  0  0  0
 29 30  1  0  0  0  0
 29 37  1  1  0  0  0
 31 32  1  6  0  0  0
 31 39  1  0  0  0  0
 33 34  1  0  0  0  0
 35 36  1  0  0  0  0
 35 41  1  6  0  0  0
 37 38  1  0  0  0  0
 39 40  1  1  0  0  0
 41 42  1  0  0  0  0
M  END
>  <CHROM.1>
-95.75609097,-102.51054678,-63.55664761,-59.11321224,33.53114944,45.03017424
57.77155198,171.99195341,132.64226454,-48.11698460,-174.26113353,-60.39536824
-64.57265176,173.63759496,-62.95585892,155.95907063,163.60516147,-173.65732212
146.35332785,57.89444898,-39.21881282,124.37854708,2.99602452,4.06248190
26.33974681,-0.37979288,0.66496629,2.28554677

>  <Name>
1fyp_lig

>  <RI>
0

>  <Rbt.Current_Directory>
/home/itssahil/PROJECTS/Mol_Feturizer/New_Systems/rnas/1fyp

>  <Rbt.Executable>
rbdock ($Id: //depot/dev/client3/rdock/2013.1/src/exe/rbdock.cxx#4 $)

>  <Rbt.Library>
libRbt.so (2013.1, Build901 2013/11/27)

>  <Rbt.Parameter_File>
/export/apps/rDock/src/rDock_2013.1_src/data/scripts/dock_solv.prm

>  <Rbt.Receptor>
prm/blind_docking_80.prm

>  <SCORE>
-49.7286

>  <SCORE.INTER>
-42.7408

>  <SCORE.INTER.CONST>
1

>  <SCORE.INTER.POLAR>
-5.38274

>  <SCORE.INTER.ROT>
14

>  <SCORE.INTER.SOLV>
19.7393

>  <SCORE.INTER.VDW>
-30.0645

>  <SCORE.INTER.norm>
-1.01764

>  <SCORE.INTRA>
-7.86005

>  <SCORE.INTRA.DIHEDRAL>
-15.5708

>  <SCORE.INTRA.DIHEDRAL.0>
48.7173

>  <SCORE.INTRA.POLAR>
-0.760214

>  <SCORE.INTRA.POLAR.0>
-1.54691

>  <SCORE.INTRA.REPUL>
0

>  <SCORE.INTRA.REPUL.0>
0

>  <SCORE.INTRA.SOLV>
-0.190527

>  <SCORE.INTRA.SOLV.lig_0>
-64.052

>  <SCORE.INTRA.VDW>
2.60532

>  <SCORE.INTRA.VDW.0>
-7.0667

>  <SCORE.INTRA.norm>
-0.187144

>  <SCORE.RESTR>
0.872224

>  <SCORE.RESTR.CAVITY>
0.872224

>  <SCORE.RESTR.norm>
0.0207672

>  <SCORE.SYSTEM>
0

>  <SCORE.SYSTEM.CONST>
0

>  <SCORE.SYSTEM.DIHEDRAL>
0

>  <SCORE.SYSTEM.SOLV>
0

>  <SCORE.SYSTEM.norm>
0

>  <SCORE.heavy>
42

>  <SCORE.norm>
-1.18401

>  <RMSD>
2.015

$$$$
1fyp_lig
 OpenBabel11021811393D
libRbt.so/2013.1/901 2013/11/27
 42 45  0  0  0  0  0  0  0  0999 V2000
    6.6731    5.9187   26.9072 C   0  0  2  0  0  0  0  0  0  0  0  0
    5.5721    6.7350   26.4134 O   0  0  0  0  0  0  0  0  0  0  0  0
    3.7462    8.3319   22.8982 C   0  0  2  0  0  0  0  0  0  0  0  0
    3.3315    8.6685   21.5237 N   0  0  0  0  0  0  0  0  0  0  0  0
    2.3374    4.6912   25.6562 C   0  0  1  0  0  0  0  0  0  0  0  0
   -0.8382    1.9170   26.8099 C   0  0  1  0  0  0  0  0  0  0  0  0
    6.5913    5.7235   28.4555 C   0  0  2  0  0  0  0  0  0  0  0  0
    5.2498    5.2582   28.8673 N   0  0  0  0  0  0  0  0  0  0  0  0
    5.2738    8.4953   23.0275 C   0  0  0  0  0  0  0  0  0  0  0  0
    2.0925    3.1971   25.4299 C   0  0  2  0  0  0  0  0  0  0  0  0
    1.1620    3.0226   24.3607 O   0  0  0  0  0  0  0  0  0  0  0  0
   -0.5019    0.9065   27.9487 C   0  0  2  0  0  0  0  0  0  0  0  0
    0.9474    0.6019   28.0328 N   0  0  0  0  0  0  0  0  0  0  0  0
    6.9594    7.0435   29.2027 C   0  0  1  0  0  0  0  0  0  0  0  0
    7.0355    6.8090   30.6066 O   0  0  0  0  0  0  0  0  0  0  0  0
    5.7790    8.1822   24.4625 C   0  0  2  0  0  0  0  0  0  0  0  0
    7.2528    8.2894   24.4557 N   0  0  0  0  0  0  0  0  0  0  0  0
    1.4858    2.7722   26.7699 C   0  0  2  0  0  0  0  0  0  0  0  0
    0.0603    3.0567   26.8314 O   0  0  0  0  0  0  0  0  0  0  0  0
   -1.3478   -0.3960   27.8036 C   0  0  1  0  0  0  0  0  0  0  0  0
   -2.6931   -0.1070   28.1780 O   0  0  0  0  0  0  0  0  0  0  0  0
    8.3170    7.6168   28.7247 C   0  0  2  0  0  0  0  0  0  0  0  0
    8.5497    8.8634   29.3733 O   0  0  0  0  0  0  0  0  0  0  0  0
    5.3082    6.7761   24.9816 C   0  0  2  0  0  0  0  0  0  0  0  0
    2.2551    3.6522   27.7650 C   0  0  2  0  0  0  0  0  0  0  0  0
    2.5502    4.8764   27.0648 O   0  0  0  0  0  0  0  0  0  0  0  0
   -1.3595   -0.9899   26.3624 C   0  0  2  0  0  0  0  0  0  0  0  0
   -0.0859   -1.5837   26.1055 O   0  0  0  0  0  0  0  0  0  0  0  0
    8.3142    7.7957   27.1799 C   0  0  2  0  0  0  0  0  0  0  0  0
    7.9606    6.5265   26.5522 O   0  0  0  0  0  0  0  0  0  0  0  0
    3.7804    6.5100   24.7265 C   0  0  2  0  0  0  0  0  0  0  0  0
    3.5296    5.0942   24.9240 O   0  0  0  0  0  0  0  0  0  0  0  0
    3.5573    3.0012   28.2642 C   0  0  0  0  0  0  0  0  0  0  0  0
    4.5434    2.9994   27.2467 O   0  0  0  0  0  0  0  0  0  0  0  0
   -1.6588    0.1205   25.3080 C   0  0  1  0  0  0  0  0  0  0  0  0
   -0.7485    1.2448   25.5079 O   0  0  0  0  0  0  0  0  0  0  0  0
    9.6687    8.2263   26.5743 C   0  0  0  0  0  0  0  0  0  0  0  0
   10.6517    7.2190   26.7429 O   0  0  0  0  0  0  0  0  0  0  0  0
    3.3288    6.8919   23.2826 C   0  0  1  0  0  0  0  0  0  0  0  0
    1.9089    6.7785   23.2005 O   0  0  0  0  0  0  0  0  0  0  0  0
   -1.5226   -0.3872   23.8496 C   0  0  0  0  0  0  0  0  0  0  0  0
   -1.2893    0.7084   22.8913 N   0  0  0  0  0  0  0  0  0  0  0  0
  1  2  1  1  0  0  0
  1  7  1  0  0  0  0
  1 30  1  0  0  0  0
  3  4  1  6  0  0  0
  3  9  1  0  0  0  0
  3 39  1  0  0  0  0
  5 10  1  0  0  0  0
  5 26  1  0  0  0  0
  5 32  1  6  0  0  0
  6 12  1  0  0  0  0
  6 36  1  0  0  0  0
  6 19  1  6  0  0  0
  7  8  1  6  0  0  0
  7 14  1  0  0  0  0
  9 16  1  0  0  0  0
 10 11  1  6  0  0  0
 10 18  1  0  0  0  0
 12 13  1  6  0  0  0
 12 20  1  0  0  0  0
 14 15  1  1  0  0  0
 14 22  1  0  0  0  0
 16 17  1  6  0  0  0
 16 24  1  0  0  0  0
 18 19  1  6  0  0  0
 18 25  1  0  0  0  0
 20 21  1  6  0  0  0
 20 27  1  0  0  0  0
 22 23  1  1  0  0  0
 22 29  1  0  0  0  0
 24  2  1  1  0  0  0
 24 31  1  0  0  0  0
 25 26  1  0  0  0  0
 25 33  1  6  0  0  0
 27 28  1  6  0  0  0
 27 35  1  0  0  0  0
 29 30  1  0  0  0  0
 29 37  1  6  0  0  0
 31 32  1  6  0  0  0
 31 39  1  0  0  0  0
 33 34  1  0  0  0  0
 35 36  1  0  0  0  0
 35 41  1  6  0  0  0
 37 38  1  0  0  0  0
 39 40  1  1  0  0  0
 41 42  1  0  0  0  0
M  END
>  <CHROM.1>
-166.27777924,-106.94562996,-52.04359904,-168.12810771,-143.25867169,85.03267437
58.95703583,-55.23187103,109.93576676,55.35234628,178.72152912,-177.90807411
72.59536967,-49.10361238,65.27230415,137.21928225,165.51661210,77.33738465
-157.99935831,159.91598819,50.73614098,176.35353510,3.44257818,4.54258664
26.22470760,-0.31965400,0.64554737,2.15321157

>  <Name>
1fyp_lig

>  <RI>
0

>  <Rbt.Current_Directory>
/home/itssahil/PROJECTS/Mol_Feturizer/New_Systems/rnas/1fyp

>  <Rbt.Executable>
rbdock ($Id: //depot/dev/client3/rdock/2013.1/src/exe/rbdock.cxx#4 $)

>  <Rbt.Library>
libRbt.so (2013.1, Build901 2013/11/27)

>  <Rbt.Parameter_File>
/export/apps/rDock/src/rDock_2013.1_src/data/scripts/dock_solv.prm

>  <Rbt.Receptor>
prm/pocket_docking_2.prm

>  <SCORE>
-39.8192

>  <SCORE.INTER>
-34.2481

>  <SCORE.INTER.CONST>
1

>  <SCORE.INTER.POLAR>
-4.91241

>  <SCORE.INTER.ROT>
14

>  <SCORE.INTER.SOLV>
16.4178

>  <SCORE.INTER.VDW>
-24.8633

>  <SCORE.INTER.norm>
-0.815431

>  <SCORE.INTRA>
-6.19242

>  <SCORE.INTRA.DIHEDRAL>
-15.5118

>  <SCORE.INTRA.DIHEDRAL.0>
48.7173

>  <SCORE.INTRA.POLAR>
-0.667917

>  <SCORE.INTRA.POLAR.0>
-1.54691

>  <SCORE.INTRA.REPUL>
0.0334881

>  <SCORE.INTRA.REPUL.0>
0

>  <SCORE.INTRA.SOLV>
1.5954

>  <SCORE.INTRA.SOLV.lig_0>
-64.052

>  <SCORE.INTRA.VDW>
2.86925

>  <SCORE.INTRA.VDW.0>
-7.0667

>  <SCORE.INTRA.norm>
-0.147439

>  <SCORE.RESTR>
0.621321

>  <SCORE.RESTR.CAVITY>
0.621321

>  <SCORE.RESTR.norm>
0.0147934

>  <SCORE.SYSTEM>
0

>  <SCORE.SYSTEM.CONST>
0

>  <SCORE.SYSTEM.DIHEDRAL>
0

>  <SCORE.SYSTEM.SOLV>
0

>  <SCORE.SYSTEM.norm>
0

>  <SCORE.heavy>
42

>  <SCORE.norm>
-0.948076

>  <RMSD>
2.043

$$$$
1fyp_lig
 OpenBabel11021811393D
libRbt.so/2013.1/901 2013/11/27
 42 45  0  0  0  0  0  0  0  0999 V2000
    6.2281    5.3694   28.4225 C   0  0  2  0  0  0  0  0  0  0  0  0
    5.3182    6.2377   27.6873 O   0  0  0  0  0  0  0  0  0  0  0  0
    3.6112    7.0651   23.8607 C   0  0  2  0  0  0  0  0  0  0  0  0
    3.3029    7.1890   22.4241 N   0  0  0  0  0  0  0  0  0  0  0  0
    2.7497    3.2155   26.0672 C   0  0  1  0  0  0  0  0  0  0  0  0
   -0.2965    0.2002   27.2712 C   0  0  1  0  0  0  0  0  0  0  0  0
    6.1862    5.6641   29.9566 C   0  0  2  0  0  0  0  0  0  0  0  0
    4.7977    5.6682   30.4642 N   0  0  0  0  0  0  0  0  0  0  0  0
    5.0205    7.6277   24.1332 C   0  0  0  0  0  0  0  0  0  0  0  0
    2.6892    2.2713   27.2707 C   0  0  2  0  0  0  0  0  0  0  0  0
    3.2400    1.0037   26.9109 O   0  0  0  0  0  0  0  0  0  0  0  0
   -1.1779   -0.5412   26.2202 C   0  0  2  0  0  0  0  0  0  0  0  0
   -1.8390    0.3879   25.2715 N   0  0  0  0  0  0  0  0  0  0  0  0
    6.8855    7.0211   30.2814 C   0  0  1  0  0  0  0  0  0  0  0  0
    6.9805    7.1999   31.6924 O   0  0  0  0  0  0  0  0  0  0  0  0
    5.4022    7.5540   25.6370 C   0  0  2  0  0  0  0  0  0  0  0  0
    6.7912    8.0392   25.7745 N   0  0  0  0  0  0  0  0  0  0  0  0
    1.1812    2.1726   27.5165 C   0  0  2  0  0  0  0  0  0  0  0  0
    0.5547    1.1933   26.6419 O   0  0  0  0  0  0  0  0  0  0  0  0
   -2.2165   -1.4695   26.9218 C   0  0  1  0  0  0  0  0  0  0  0  0
   -1.5292   -2.6030   27.4477 O   0  0  0  0  0  0  0  0  0  0  0  0
    8.3109    7.0936   29.6786 C   0  0  2  0  0  0  0  0  0  0  0  0
    8.8565    8.3853   29.9290 O   0  0  0  0  0  0  0  0  0  0  0  0
    5.2357    6.1122   26.2385 C   0  0  2  0  0  0  0  0  0  0  0  0
    0.7050    3.5898   27.1683 C   0  0  2  0  0  0  0  0  0  0  0  0
    1.5915    4.0627   26.1357 O   0  0  0  0  0  0  0  0  0  0  0  0
   -2.9949   -0.7871   28.0874 C   0  0  2  0  0  0  0  0  0  0  0  0
   -3.9360    0.1310   27.5288 O   0  0  0  0  0  0  0  0  0  0  0  0
    8.2669    6.8047   28.1513 C   0  0  2  0  0  0  0  0  0  0  0  0
    7.5997    5.5266   27.9254 O   0  0  0  0  0  0  0  0  0  0  0  0
    3.8677    5.4423   25.8516 C   0  0  2  0  0  0  0  0  0  0  0  0
    3.9554    4.0265   26.1589 O   0  0  0  0  0  0  0  0  0  0  0  0
    0.7353    4.5488   28.3717 C   0  0  0  0  0  0  0  0  0  0  0  0
   -0.4337    4.4075   29.1598 O   0  0  0  0  0  0  0  0  0  0  0  0
   -2.0155   -0.0393   29.0444 C   0  0  1  0  0  0  0  0  0  0  0  0
   -1.1554    0.8502   28.2688 O   0  0  0  0  0  0  0  0  0  0  0  0
    9.6499    6.7081   27.4692 C   0  0  0  0  0  0  0  0  0  0  0  0
    9.5412    6.1843   26.1565 O   0  0  0  0  0  0  0  0  0  0  0  0
    3.5214    5.5956   24.3380 C   0  0  1  0  0  0  0  0  0  0  0  0
    2.1970    5.1124   24.1187 O   0  0  0  0  0  0  0  0  0  0  0  0
   -2.7534    0.7886   30.1276 C   0  0  0  0  0  0  0  0  0  0  0  0
   -3.4833   -0.0611   31.0858 N   0  0  0  0  0  0  0  0  0  0  0  0
  1  2  1  6  0  0  0
  1  7  1  0  0  0  0
  1 30  1  0  0  0  0
  3  4  1  6  0  0  0
  3  9  1  0  0  0  0
  3 39  1  0  0  0  0
  5 10  1  0  0  0  0
  5 26  1  0  0  0  0
  5 32  1  1  0  0  0
  6 12  1  0  0  0  0
  6 36  1  0  0  0  0
  6 19  1  6  0  0  0
  7  8  1  6  0  0  0
  7 14  1  0  0  0  0
  9 16  1  0  0  0  0
 10 11  1  6  0  0  0
 10 18  1  0  0  0  0
 12 13  1  1  0  0  0
 12 20  1  0  0  0  0
 14 15  1  1  0  0  0
 14 22  1  0  0  0  0
 16 17  1  6  0  0  0
 16 24  1  0  0  0  0
 18 19  1  6  0  0  0
 18 25  1  0  0  0  0
 20 21  1  1  0  0  0
 20 27  1  0  0  0  0
 22 23  1  6  0  0  0
 22 29  1  0  0  0  0
 24  2  1  1  0  0  0
 24 31  1  0  0  0  0
 25 26  1  0  0  0  0
 25 33  1  1  0  0  0
 27 28  1  6  0  0  0
 27 35  1  0  0  0  0
 29 30  1  0  0  0  0
 29 37  1  1  0  0  0
 31 32  1  6  0  0  0
 31 39  1  0  0  0  0
 33 34  1  0  0  0  0
 35 36  1  0  0  0  0
 35 41  1  1  0  0  0
 37 38  1  0  0  0  0
 39 40  1  1  0  0  0
 41 42  1  0  0  0  0
M  END
>  <CHROM.1>
179.38403274,-129.43509168,158.85109914,90.10486399,-67.87250155,-103.76151395
-64.45101619,56.65428684,129.19765619,165.45172868,178.42923137,-178.05930283
-83.18534376,-75.92360066,168.24411383,171.43845044,-137.25337774,62.91549248
66.80599832,-77.98910542,102.95803338,177.55305295,2.87328990,3.92231103
27.37003139,-0.15953911,0.63259639,1.81022438

>  <Name>
1fyp_lig

>  <RI>
0

>  <Rbt.Current_Directory>
/home/itssahil/PROJECTS/Mol_Feturizer/New_Systems/rnas/1fyp

>  <Rbt.Executable>
rbdock ($Id: //depot/dev/client3/rdock/2013.1/src/exe/rbdock.cxx#4 $)

>  <Rbt.Library>
libRbt.so (2013.1, Build901 2013/11/27)

>  <Rbt.Parameter_File>
/export/apps/rDock/src/rDock_2013.1_src/data/scripts/dock_solv.prm

>  <Rbt.Receptor>
prm/pocket_docking_5.prm

>  <SCORE>
-19.8784

>  <SCORE.INTER>
-24.1043

>  <SCORE.INTER.CONST>
1

>  <SCORE.INTER.POLAR>
-3.98363

>  <SCORE.INTER.ROT>
14

>  <SCORE.INTER.SOLV>
19.2514

>  <SCORE.INTER.VDW>
-22.1412

>  <SCORE.INTER.norm>
-0.573912

>  <SCORE.INTRA>
4.19565

>  <SCORE.INTRA.DIHEDRAL>
-12.4602

>  <SCORE.INTRA.DIHEDRAL.0>
48.7173

>  <SCORE.INTRA.POLAR>
1.32891

>  <SCORE.INTRA.POLAR.0>
-1.54691

>  <SCORE.INTRA.REPUL>
0.0871749

>  <SCORE.INTRA.REPUL.0>
0

>  <SCORE.INTRA.SOLV>
-2.13703

>  <SCORE.INTRA.SOLV.lig_0>
-64.052

>  <SCORE.INTRA.VDW>
6.54009

>  <SCORE.INTRA.VDW.0>
-7.0667

>  <SCORE.INTRA.norm>
0.0998965

>  <SCORE.RESTR>
0.0301857

>  <SCORE.RESTR.CAVITY>
0.0301857

>  <SCORE.RESTR.norm>
0.000718706

>  <SCORE.SYSTEM>
0

>  <SCORE.SYSTEM.CONST>
0

>  <SCORE.SYSTEM.DIHEDRAL>
0

>  <SCORE.SYSTEM.SOLV>
0

>  <SCORE.SYSTEM.norm>
0

>  <SCORE.heavy>
42

>  <SCORE.norm>
-0.473296

>  <RMSD>
2.047

$$$$
1fyp_lig
 OpenBabel11021811393D
libRbt.so/2013.1/901 2013/11/27
 42 45  0  0  0  0  0  0  0  0999 V2000
    7.4659    7.0453   26.7865 C   0  0  2  0  0  0  0  0  0  0  0  0
    6.2242    7.6495   26.3223 O   0  0  0  0  0  0  0  0  0  0  0  0
    3.3455    7.7323   23.1684 C   0  0  2  0  0  0  0  0  0  0  0  0
    2.5464    7.5087   21.9494 N   0  0  0  0  0  0  0  0  0  0  0  0
    2.9927    4.5864   26.0330 C   0  0  1  0  0  0  0  0  0  0  0  0
    0.2605    1.2139   26.1825 C   0  0  1  0  0  0  0  0  0  0  0  0
    7.2719    5.5344   27.1352 C   0  0  2  0  0  0  0  0  0  0  0  0
    6.6128    4.8089   26.0284 N   0  0  0  0  0  0  0  0  0  0  0  0
    4.8157    7.9844   22.7789 C   0  0  0  0  0  0  0  0  0  0  0  0
    3.5227    3.1615   25.8529 C   0  0  2  0  0  0  0  0  0  0  0  0
    3.5972    2.8525   24.4606 O   0  0  0  0  0  0  0  0  0  0  0  0
    0.5403   -0.2776   25.8243 C   0  0  2  0  0  0  0  0  0  0  0  0
    0.9179   -0.4625   24.4018 N   0  0  0  0  0  0  0  0  0  0  0  0
    6.4539    5.3687   28.4542 C   0  0  1  0  0  0  0  0  0  0  0  0
    6.4212    3.9979   28.8435 O   0  0  0  0  0  0  0  0  0  0  0  0
    5.7136    8.2557   24.0169 C   0  0  2  0  0  0  0  0  0  0  0  0
    7.1052    8.4023   23.5418 N   0  0  0  0  0  0  0  0  0  0  0  0
    2.4391    2.3335   26.5489 C   0  0  2  0  0  0  0  0  0  0  0  0
    1.3040    2.0850   25.6735 O   0  0  0  0  0  0  0  0  0  0  0  0
   -0.6727   -1.1788   26.2110 C   0  0  1  0  0  0  0  0  0  0  0  0
   -0.7040   -1.3124   27.6304 O   0  0  0  0  0  0  0  0  0  0  0  0
    7.0593    6.1964   29.6155 C   0  0  2  0  0  0  0  0  0  0  0  0
    6.2185    6.0773   30.7591 O   0  0  0  0  0  0  0  0  0  0  0  0
    5.5962    7.1360   25.1126 C   0  0  2  0  0  0  0  0  0  0  0  0
    2.0330    3.2483   27.7128 C   0  0  2  0  0  0  0  0  0  0  0  0
    2.2073    4.5966   27.2358 O   0  0  0  0  0  0  0  0  0  0  0  0
   -2.0523   -0.6246   25.7427 C   0  0  2  0  0  0  0  0  0  0  0  0
   -2.1548   -0.7975   24.3284 O   0  0  0  0  0  0  0  0  0  0  0  0
    7.2065    7.6869   29.1972 C   0  0  2  0  0  0  0  0  0  0  0  0
    7.9770    7.7626   27.9601 O   0  0  0  0  0  0  0  0  0  0  0  0
    4.1077    6.7414   25.4268 C   0  0  2  0  0  0  0  0  0  0  0  0
    4.1187    5.4983   26.1759 O   0  0  0  0  0  0  0  0  0  0  0  0
    2.8764    3.0222   28.9802 C   0  0  0  0  0  0  0  0  0  0  0  0
    2.7785    4.1313   29.8565 O   0  0  0  0  0  0  0  0  0  0  0  0
   -2.1977    0.8841   26.1130 C   0  0  1  0  0  0  0  0  0  0  0  0
   -1.0355    1.6227   25.6270 O   0  0  0  0  0  0  0  0  0  0  0  0
    7.9337    8.5807   30.2264 C   0  0  0  0  0  0  0  0  0  0  0  0
    9.2913    8.1994   30.3712 O   0  0  0  0  0  0  0  0  0  0  0  0
    3.2491    6.5321   24.1409 C   0  0  1  0  0  0  0  0  0  0  0  0
    1.8869    6.3479   24.5233 O   0  0  0  0  0  0  0  0  0  0  0  0
   -3.4834    1.5224   25.5275 C   0  0  0  0  0  0  0  0  0  0  0  0
   -4.7095    0.9930   26.1516 N   0  0  0  0  0  0  0  0  0  0  0  0
  1  2  1  1  0  0  0
  1  7  1  0  0  0  0
  1 30  1  0  0  0  0
  3  4  1  6  0  0  0
  3  9  1  0  0  0  0
  3 39  1  0  0  0  0
  5 10  1  0  0  0  0
  5 26  1  0  0  0  0
  5 32  1  1  0  0  0
  6 12  1  0  0  0  0
  6 36  1  0  0  0  0
  6 19  1  6  0  0  0
  7  8  1  6  0  0  0
  7 14  1  0  0  0  0
  9 16  1  0  0  0  0
 10 11  1  6  0  0  0
 10 18  1  0  0  0  0
 12 13  1  6  0  0  0
 12 20  1  0  0  0  0
 14 15  1  1  0  0  0
 14 22  1  0  0  0  0
 16 17  1  6  0  0  0
 16 24  1  0  0  0  0
 18 19  1  6  0  0  0
 18 25  1  0  0  0  0
 20 21  1  1  0  0  0
 20 27  1  0  0  0  0
 22 23  1  1  0  0  0
 22 29  1  0  0  0  0
 24  2  1  1  0  0  0
 24 31  1  0  0  0  0
 25 26  1  0  0  0  0
 25 33  1  1  0  0  0
 27 28  1  6  0  0  0
 27 35  1  0  0  0  0
 29 30  1  0  0  0  0
 29 37  1  1  0  0  0
 31 32  1  6  0  0  0
 31 39  1  0  0  0  0
 33 34  1  0  0  0  0
 35 36  1  0  0  0  0
 35 41  1  6  0  0  0
 37 38  1  0  0  0  0
 39 40  1  1  0  0  0
 41 42  1  0  0  0  0
M  END
>  <CHROM.1>
-61.57901304,-111.82909204,95.34155837,-76.19901400,174.23179774,70.46999829
56.79690580,62.19711198,174.93409250,-89.77326440,-170.83177692,70.62648998
161.26057009,-47.77672106,65.76454089,-149.82306535,134.60542154,-178.26507859
68.20140001,-174.54410992,-46.18559306,137.95089991,3.26026267,4.33235958
26.41882871,0.21895435,-0.68264906,-0.99925596

>  <Name>
1fyp_lig

>  <RI>
0

>  <Rbt.Current_Directory>
/home/itssahil/PROJECTS/Mol_Feturizer/New_Systems/rnas/1fyp

>  <Rbt.Executable>
rbdock ($Id: //depot/dev/client3/rdock/2013.1/src/exe/rbdock.cxx#4 $)

>  <Rbt.Library>
libRbt.so (2013.1, Build901 2013/11/27)

>  <Rbt.Parameter_File>
/export/apps/rDock/src/rDock_2013.1_src/data/scripts/dock_solv.prm

>  <Rbt.Receptor>
prm/pocket_docking_2.prm

>  <SCORE>
-46.0211

>  <SCORE.INTER>
-44.3421

>  <SCORE.INTER.CONST>
1

>  <SCORE.INTER.POLAR>
-5.44831

>  <SCORE.INTER.ROT>
14

>  <SCORE.INTER.SOLV>
16.4728

>  <SCORE.INTER.VDW>
-29.8246

>  <SCORE.INTER.norm>
-1.05576

>  <SCORE.INTRA>
-2.87753

>  <SCORE.INTRA.DIHEDRAL>
-19.4757

>  <SCORE.INTRA.DIHEDRAL.0>
48.7173

>  <SCORE.INTRA.POLAR>
0.166024

>  <SCORE.INTRA.POLAR.0>
-1.54691

>  <SCORE.INTRA.REPUL>
0

>  <SCORE.INTRA.REPUL.0>
0

>  <SCORE.INTRA.SOLV>
-0.4679

>  <SCORE.INTRA.SOLV.lig_0>
-64.052

>  <SCORE.INTRA.VDW>
6.52977

>  <SCORE.INTRA.VDW.0>
-7.0667

>  <SCORE.INTRA.norm>
-0.0685127

>  <SCORE.RESTR>
1.19849

>  <SCORE.RESTR.CAVITY>
1.19849

>  <SCORE.RESTR.norm>
0.0285355

>  <SCORE.SYSTEM>
0

>  <SCORE.SYSTEM.CONST>
0

>  <SCORE.SYSTEM.DIHEDRAL>
0

>  <SCORE.SYSTEM.SOLV>
0

>  <SCORE.SYSTEM.norm>
0

>  <SCORE.heavy>
42

>  <SCORE.norm>
-1.09574

>  <RMSD>
2.059

$$$$
1fyp_lig
 OpenBabel11021811393D
libRbt.so/2013.1/901 2013/11/27
 42 45  0  0  0  0  0  0  0  0999 V2000
    7.0530    6.3889   26.6043 C   0  0  2  0  0  0  0  0  0  0  0  0
    5.7615    6.9004   26.1652 O   0  0  0  0  0  0  0  0  0  0  0  0
    3.6255    8.2994   22.7416 C   0  0  2  0  0  0  0  0  0  0  0  0
    3.1345    8.6149   21.3874 N   0  0  0  0  0  0  0  0  0  0  0  0
    2.7502    4.3209   24.9327 C   0  0  1  0  0  0  0  0  0  0  0  0
   -0.1506    1.1382   26.1003 C   0  0  1  0  0  0  0  0  0  0  0  0
    6.9651    4.8812   27.0056 C   0  0  2  0  0  0  0  0  0  0  0  0
    6.3168    4.0809   25.9450 N   0  0  0  0  0  0  0  0  0  0  0  0
    5.1043    8.7186   22.8616 C   0  0  0  0  0  0  0  0  0  0  0  0
    2.9955    2.8113   25.0012 C   0  0  2  0  0  0  0  0  0  0  0  0
    2.6896    2.2204   23.7376 O   0  0  0  0  0  0  0  0  0  0  0  0
    0.3675   -0.2692   25.6735 C   0  0  2  0  0  0  0  0  0  0  0  0
    0.6353   -0.3621   24.2175 N   0  0  0  0  0  0  0  0  0  0  0  0
    6.2027    4.7088   28.3566 C   0  0  1  0  0  0  0  0  0  0  0  0
    6.2684    3.3520   28.7885 O   0  0  0  0  0  0  0  0  0  0  0  0
    5.6815    8.4394   24.2762 C   0  0  2  0  0  0  0  0  0  0  0  0
    7.1145    8.7995   24.2583 N   0  0  0  0  0  0  0  0  0  0  0  0
    1.9927    2.3790   26.0745 C   0  0  2  0  0  0  0  0  0  0  0  0
    0.6583    2.1968   25.5243 O   0  0  0  0  0  0  0  0  0  0  0  0
   -0.6131   -1.3879   26.1425 C   0  0  1  0  0  0  0  0  0  0  0  0
   -0.4832   -1.5422   27.5541 O   0  0  0  0  0  0  0  0  0  0  0  0
    6.7930    5.6096   29.4703 C   0  0  2  0  0  0  0  0  0  0  0  0
    5.9992    5.4765   30.6455 O   0  0  0  0  0  0  0  0  0  0  0  0
    5.4689    6.9533   24.7394 C   0  0  2  0  0  0  0  0  0  0  0  0
    2.0201    3.5723   27.0398 C   0  0  2  0  0  0  0  0  0  0  0  0
    2.2831    4.7327   26.2274 O   0  0  0  0  0  0  0  0  0  0  0  0
   -2.1103   -1.0985   25.8191 C   0  0  2  0  0  0  0  0  0  0  0  0
   -2.3133   -1.2705   24.4156 O   0  0  0  0  0  0  0  0  0  0  0  0
    6.8331    7.0918   29.0018 C   0  0  2  0  0  0  0  0  0  0  0  0
    7.5565    7.1742   27.7370 O   0  0  0  0  0  0  0  0  0  0  0  0
    4.0052    6.4382   24.4894 C   0  0  2  0  0  0  0  0  0  0  0  0
    4.0051    4.9936   24.6285 O   0  0  0  0  0  0  0  0  0  0  0  0
    3.0941    3.4381   28.1340 C   0  0  0  0  0  0  0  0  0  0  0  0
    3.0970    4.5742   28.9808 O   0  0  0  0  0  0  0  0  0  0  0  0
   -2.4991    0.3509   26.2462 C   0  0  1  0  0  0  0  0  0  0  0  0
   -1.5471    1.3016   25.6782 O   0  0  0  0  0  0  0  0  0  0  0  0
    7.5364    8.0617   29.9774 C   0  0  0  0  0  0  0  0  0  0  0  0
    8.9286    7.8037   30.0457 O   0  0  0  0  0  0  0  0  0  0  0  0
    3.4689    6.7947   23.0682 C   0  0  1  0  0  0  0  0  0  0  0  0
    2.0883    6.4415   22.9965 O   0  0  0  0  0  0  0  0  0  0  0  0
   -3.9313    0.7419   25.8002 C   0  0  0  0  0  0  0  0  0  0  0  0
   -4.9537   -0.1907   26.3082 N   0  0  0  0  0  0  0  0  0  0  0  0
  1  2  1  1  0  0  0
  1  7  1  0  0  0  0
  1 30  1  0  0  0  0
  3  4  1  6  0  0  0
  3  9  1  0  0  0  0
  3 39  1  0  0  0  0
  5 10  1  0  0  0  0
  5 26  1  0  0  0  0
  5 32  1  1  0  0  0
  6 12  1  0  0  0  0
  6 36  1  0  0  0  0
  6 19  1  6  0  0  0
  7  8  1  6  0  0  0
  7 14  1  0  0  0  0
  9 16  1  0  0  0  0
 10 11  1  6  0  0  0
 10 18  1  0  0  0  0
 12 13  1  6  0  0  0
 12 20  1  0  0  0  0
 14 15  1  1  0  0  0
 14 22  1  0  0  0  0
 16 17  1  6  0  0  0
 16 24  1  0  0  0  0
 18 19  1  6  0  0  0
 18 25  1  0  0  0  0
 20 21  1  1  0  0  0
 20 27  1  0  0  0  0
 22 23  1  1  0  0  0
 22 29  1  0  0  0  0
 24  2  1  1  0  0  0
 24 31  1  0  0  0  0
 25 26  1  0  0  0  0
 25 33  1  1  0  0  0
 27 28  1  6  0  0  0
 27 35  1  0  0  0  0
 29 30  1  0  0  0  0
 29 37  1  1  0  0  0
 31 32  1  6  0  0  0
 31 39  1  0  0  0  0
 33 34  1  0  0  0  0
 35 36  1  0  0  0  0
 35 41  1  6  0  0  0
 37 38  1  0  0  0  0
 39 40  1  1  0  0  0
 41 42  1  0  0  0  0
M  END
>  <CHROM.1>
-96.86132367,-100.85681674,-46.48144436,-177.38902291,-169.82584647,167.89193115
58.53494089,-48.41849998,145.34428855,-72.25856008,-179.36597301,170.78003504
178.80918614,67.66191636,68.11574206,157.73018140,178.83862362,-61.26384533
56.71141430,-177.40489273,-58.61911389,45.00048517,3.08867585,4.11319338
26.08404264,-0.31050477,0.67451909,2.19969719

>  <Name>
1fyp_lig

>  <RI>
0

>  <Rbt.Current_Directory>
/home/itssahil/PROJECTS/Mol_Feturizer/New_Systems/rnas/1fyp

>  <Rbt.Executable>
rbdock ($Id: //depot/dev/client3/rdock/2013.1/src/exe/rbdock.cxx#4 $)

>  <Rbt.Library>
libRbt.so (2013.1, Build901 2013/11/27)

>  <Rbt.Parameter_File>
/export/apps/rDock/src/rDock_2013.1_src/data/scripts/dock_solv.prm

>  <Rbt.Receptor>
prm/pocket_docking_2.prm

>  <SCORE>
-47.4063

>  <SCORE.INTER>
-35.4015

>  <SCORE.INTER.CONST>
1

>  <SCORE.INTER.POLAR>
-3.63058

>  <SCORE.INTER.ROT>
14

>  <SCORE.INTER.SOLV>
16.936

>  <SCORE.INTER.VDW>
-30.0777

>  <SCORE.INTER.norm>
-0.842894

>  <SCORE.INTRA>
-12.767

>  <SCORE.INTRA.DIHEDRAL>
-28.0458

>  <SCORE.INTRA.DIHEDRAL.0>
48.7173

>  <SCORE.INTRA.POLAR>
0.379223

>  <SCORE.INTRA.POLAR.0>
-1.54691

>  <SCORE.INTRA.REPUL>
0

>  <SCORE.INTRA.REPUL.0>
0

>  <SCORE.INTRA.SOLV>
-0.138742

>  <SCORE.INTRA.SOLV.lig_0>
-64.052

>  <SCORE.INTRA.VDW>
0.0359414

>  <SCORE.INTRA.VDW.0>
-7.0667

>  <SCORE.INTRA.norm>
-0.303976

>  <SCORE.RESTR>
0.762203

>  <SCORE.RESTR.CAVITY>
0.762203

>  <SCORE.RESTR.norm>
0.0181477

>  <SCORE.SYSTEM>
0

>  <SCORE.SYSTEM.CONST>
0

>  <SCORE.SYSTEM.DIHEDRAL>
0

>  <SCORE.SYSTEM.SOLV>
0

>  <SCORE.SYSTEM.norm>
0

>  <SCORE.heavy>
42

>  <SCORE.norm>
-1.12872

>  <RMSD>
2.063

$$$$
1fyp_lig
 OpenBabel11021811393D
libRbt.so/2013.1/901 2013/11/27
 42 45  0  0  0  0  0  0  0  0999 V2000
    7.3326    7.4319   27.3923 C   0  0  2  0  0  0  0  0  0  0  0  0
    5.9526    7.7845   27.0863 O   0  0  0  0  0  0  0  0  0  0  0  0
    3.1658    7.7507   23.8500 C   0  0  2  0  0  0  0  0  0  0  0  0
    2.3801    7.4596   22.6366 N   0  0  0  0  0  0  0  0  0  0  0  0
    2.9220    4.6477   26.6473 C   0  0  1  0  0  0  0  0  0  0  0  0
    1.2235    0.7833   25.9601 C   0  0  1  0  0  0  0  0  0  0  0  0
    7.4358    5.9935   27.9944 C   0  0  2  0  0  0  0  0  0  0  0  0
    6.7225    5.0080   27.1543 N   0  0  0  0  0  0  0  0  0  0  0  0
    4.6606    7.8417   23.4836 C   0  0  0  0  0  0  0  0  0  0  0  0
    3.8834    3.4810   26.4057 C   0  0  2  0  0  0  0  0  0  0  0  0
    4.2480    3.4412   25.0255 O   0  0  0  0  0  0  0  0  0  0  0  0
    0.5838    0.2447   24.6441 C   0  0  2  0  0  0  0  0  0  0  0  0
    0.0922    1.3308   23.7615 N   0  0  0  0  0  0  0  0  0  0  0  0
    6.8841    5.9608   29.4541 C   0  0  1  0  0  0  0  0  0  0  0  0
    7.1295    4.6867   30.0440 O   0  0  0  0  0  0  0  0  0  0  0  0
    5.5481    8.1744   24.7141 C   0  0  2  0  0  0  0  0  0  0  0  0
    6.9579    8.1578   24.2715 N   0  0  0  0  0  0  0  0  0  0  0  0
    3.0176    2.2771   26.7870 C   0  0  2  0  0  0  0  0  0  0  0  0
    2.1513    1.8669   25.6925 O   0  0  0  0  0  0  0  0  0  0  0  0
   -0.5438   -0.7869   24.9561 C   0  0  1  0  0  0  0  0  0  0  0  0
    0.0612   -1.9995   25.4001 O   0  0  0  0  0  0  0  0  0  0  0  0
    7.5383    7.0490   30.3419 C   0  0  2  0  0  0  0  0  0  0  0  0
    6.9280    7.0281   31.6287 O   0  0  0  0  0  0  0  0  0  0  0  0
    5.3132    7.1936   25.9186 C   0  0  2  0  0  0  0  0  0  0  0  0
    2.1880    2.8335   27.9525 C   0  0  2  0  0  0  0  0  0  0  0  0
    2.0072    4.2358   27.6756 O   0  0  0  0  0  0  0  0  0  0  0  0
   -1.5522   -0.3167   26.0478 C   0  0  2  0  0  0  0  0  0  0  0  0
   -2.3936    0.6912   25.4850 O   0  0  0  0  0  0  0  0  0  0  0  0
    7.3810    8.4494   29.6842 C   0  0  2  0  0  0  0  0  0  0  0  0
    7.9141    8.4026   28.3264 O   0  0  0  0  0  0  0  0  0  0  0  0
    3.7903    6.9546   26.2247 C   0  0  2  0  0  0  0  0  0  0  0  0
    3.6814    5.8036   27.1021 O   0  0  0  0  0  0  0  0  0  0  0  0
    2.8690    2.6479   29.3201 C   0  0  0  0  0  0  0  0  0  0  0  0
    2.0556    3.1568   30.3627 O   0  0  0  0  0  0  0  0  0  0  0  0
   -0.7985    0.2443   27.2934 C   0  0  1  0  0  0  0  0  0  0  0  0
    0.1694    1.2518   26.8683 O   0  0  0  0  0  0  0  0  0  0  0  0
    8.1217    9.5941   30.4108 C   0  0  0  0  0  0  0  0  0  0  0  0
    7.4970    9.9111   31.6432 O   0  0  0  0  0  0  0  0  0  0  0  0
    2.9481    6.6751   24.9414 C   0  0  1  0  0  0  0  0  0  0  0  0
    1.5667    6.6420   25.2969 O   0  0  0  0  0  0  0  0  0  0  0  0
   -1.7556    0.8720   28.3390 C   0  0  0  0  0  0  0  0  0  0  0  0
   -1.0320    1.5643   29.4207 N   0  0  0  0  0  0  0  0  0  0  0  0
  1  2  1  1  0  0  0
  1  7  1  0  0  0  0
  1 30  1  0  0  0  0
  3  4  1  6  0  0  0
  3  9  1  0  0  0  0
  3 39  1  0  0  0  0
  5 10  1  0  0  0  0
  5 26  1  0  0  0  0
  5 32  1  1  0  0  0
  6 12  1  0  0  0  0
  6 36  1  0  0  0  0
  6 19  1  6  0  0  0
  7  8  1  6  0  0  0
  7 14  1  0  0  0  0
  9 16  1  0  0  0  0
 10 11  1  6  0  0  0
 10 18  1  0  0  0  0
 12 13  1  1  0  0  0
 12 20  1  0  0  0  0
 14 15  1  1  0  0  0
 14 22  1  0  0  0  0
 16 17  1  6  0  0  0
 16 24  1  0  0  0  0
 18 19  1  6  0  0  0
 18 25  1  0  0  0  0
 20 21  1  1  0  0  0
 20 27  1  0  0  0  0
 22 23  1  1  0  0  0
 22 29  1  0  0  0  0
 24  2  1  1  0  0  0
 24 31  1  0  0  0  0
 25 26  1  0  0  0  0
 25 33  1  1  0  0  0
 27 28  1  6  0  0  0
 27 35  1  0  0  0  0
 29 30  1  0  0  0  0
 29 37  1  1  0  0  0
 31 32  1  1  0  0  0
 31 39  1  0  0  0  0
 33 34  1  0  0  0  0
 35 36  1  0  0  0  0
 35 41  1  1  0  0  0
 37 38  1  0  0  0  0
 39 40  1  1  0  0  0
 41 42  1  0  0  0  0
M  END
>  <CHROM.1>
-74.77926725,-91.83815447,69.94178121,164.36184566,179.69227535,-27.87777624
-66.88073699,66.62378727,-176.42179365,-167.80525853,-56.16966070,-60.42084935
-179.04078995,172.16663503,-71.06806448,-119.93195972,111.58166795,-56.04983315
-172.06435016,53.01256319,-16.67840237,-157.70966467,3.46701298,4.57918255
27.02189036,0.09263984,-0.80992416,-1.13327918

>  <Name>
1fyp_lig

>  <RI>
0

>  <Rbt.Current_Directory>
/home/itssahil/PROJECTS/Mol_Feturizer/New_Systems/rnas/1fyp

>  <Rbt.Executable>
rbdock ($Id: //depot/dev/client3/rdock/2013.1/src/exe/rbdock.cxx#4 $)

>  <Rbt.Library>
libRbt.so (2013.1, Build901 2013/11/27)

>  <Rbt.Parameter_File>
/export/apps/rDock/src/rDock_2013.1_src/data/scripts/dock_solv.prm

>  <Rbt.Receptor>
prm/pocket_docking_4.prm

>  <SCORE>
-42.7319

>  <SCORE.INTER>
-39.5528

>  <SCORE.INTER.CONST>
1

>  <SCORE.INTER.POLAR>
-5.8893

>  <SCORE.INTER.ROT>
14

>  <SCORE.INTER.SOLV>
15.5508

>  <SCORE.INTER.VDW>
-24.8545

>  <SCORE.INTER.norm>
-0.941733

>  <SCORE.INTRA>
-3.17908

>  <SCORE.INTRA.DIHEDRAL>
-18.2811

>  <SCORE.INTRA.DIHEDRAL.0>
48.7173

>  <SCORE.INTRA.POLAR>
0.324102

>  <SCORE.INTRA.POLAR.0>
-1.54691

>  <SCORE.INTRA.REPUL>
0

>  <SCORE.INTRA.REPUL.0>
0

>  <SCORE.INTRA.SOLV>
-0.5894

>  <SCORE.INTRA.SOLV.lig_0>
-64.052

>  <SCORE.INTRA.VDW>
5.15421

>  <SCORE.INTRA.VDW.0>
-7.0667

>  <SCORE.INTRA.norm>
-0.0756925

>  <SCORE.RESTR>
0

>  <SCORE.RESTR.CAVITY>
0

>  <SCORE.RESTR.norm>
0

>  <SCORE.SYSTEM>
0

>  <SCORE.SYSTEM.CONST>
0

>  <SCORE.SYSTEM.DIHEDRAL>
0

>  <SCORE.SYSTEM.SOLV>
0

>  <SCORE.SYSTEM.norm>
0

>  <SCORE.heavy>
42

>  <SCORE.norm>
-1.01743

>  <RMSD>
2.064

$$$$
1fyp_lig
 OpenBabel11021811393D
libRbt.so/2013.1/901 2013/11/27
 42 45  0  0  0  0  0  0  0  0999 V2000
    6.3854    5.1307   27.3138 C   0  0  2  0  0  0  0  0  0  0  0  0
    5.1709    5.7374   26.7853 O   0  0  0  0  0  0  0  0  0  0  0  0
    3.6182    7.6103   23.2750 C   0  0  2  0  0  0  0  0  0  0  0  0
    3.3157    8.0604   21.9038 N   0  0  0  0  0  0  0  0  0  0  0  0
    2.0806    3.7182   25.6137 C   0  0  1  0  0  0  0  0  0  0  0  0
   -1.1453    1.2865   25.5166 C   0  0  1  0  0  0  0  0  0  0  0  0
    6.2460    4.8025   28.8353 C   0  0  2  0  0  0  0  0  0  0  0  0
    5.0100    4.0387   29.1080 N   0  0  0  0  0  0  0  0  0  0  0  0
    5.1250    7.7845   23.5513 C   0  0  0  0  0  0  0  0  0  0  0  0
    1.8028    2.2924   25.1304 C   0  0  2  0  0  0  0  0  0  0  0  0
    0.8960    2.3306   24.0277 O   0  0  0  0  0  0  0  0  0  0  0  0
   -2.6364    1.3901   25.9604 C   0  0  2  0  0  0  0  0  0  0  0  0
   -2.8270    1.0848   27.3994 N   0  0  0  0  0  0  0  0  0  0  0  0
    6.2760    6.1076   29.6907 C   0  0  1  0  0  0  0  0  0  0  0  0
    6.3083    5.7850   31.0788 O   0  0  0  0  0  0  0  0  0  0  0  0
    5.5119    7.3538   24.9925 C   0  0  2  0  0  0  0  0  0  0  0  0
    6.9781    7.4832   25.1241 N   0  0  0  0  0  0  0  0  0  0  0  0
    1.1507    1.6641   26.3650 C   0  0  2  0  0  0  0  0  0  0  0  0
   -0.2680    1.9768   26.4442 O   0  0  0  0  0  0  0  0  0  0  0  0
   -3.5462    0.4937   25.0650 C   0  0  1  0  0  0  0  0  0  0  0  0
   -3.6710    1.1099   23.7850 O   0  0  0  0  0  0  0  0  0  0  0  0
    7.5092    6.9851   29.3601 C   0  0  2  0  0  0  0  0  0  0  0  0
    7.4292    8.1983   30.1021 O   0  0  0  0  0  0  0  0  0  0  0  0
    5.0302    5.9005   25.3448 C   0  0  2  0  0  0  0  0  0  0  0  0
    1.9167    2.3383   27.5118 C   0  0  2  0  0  0  0  0  0  0  0  0
    2.2616    3.6544   27.0375 O   0  0  0  0  0  0  0  0  0  0  0  0
   -3.0075   -0.9544   24.8587 C   0  0  2  0  0  0  0  0  0  0  0  0
   -3.1904   -1.6843   26.0731 O   0  0  0  0  0  0  0  0  0  0  0  0
    7.5693    7.2796   27.8343 C   0  0  2  0  0  0  0  0  0  0  0  0
    7.5349    6.0178   27.1020 O   0  0  0  0  0  0  0  0  0  0  0  0
    3.5363    5.6351   24.9349 C   0  0  2  0  0  0  0  0  0  0  0  0
    3.3015    4.2038   24.9865 O   0  0  0  0  0  0  0  0  0  0  0  0
    3.1881    1.5729   27.9197 C   0  0  0  0  0  0  0  0  0  0  0  0
    4.3052    2.0115   27.1664 O   0  0  0  0  0  0  0  0  0  0  0  0
   -1.4979   -0.9331   24.4650 C   0  0  1  0  0  0  0  0  0  0  0  0
   -0.7519   -0.1250   25.4257 O   0  0  0  0  0  0  0  0  0  0  0  0
    8.8382    8.0274   27.3675 C   0  0  0  0  0  0  0  0  0  0  0  0
    9.9840    7.1967   27.4471 O   0  0  0  0  0  0  0  0  0  0  0  0
    3.2020    6.1360   23.4955 C   0  0  1  0  0  0  0  0  0  0  0  0
    1.7973    6.0090   23.2798 O   0  0  0  0  0  0  0  0  0  0  0  0
   -0.8752   -2.3515   24.4059 C   0  0  0  0  0  0  0  0  0  0  0  0
   -1.8671   -3.3884   24.0685 N   0  0  0  0  0  0  0  0  0  0  0  0
  1  2  1  1  0  0  0
  1  7  1  0  0  0  0
  1 30  1  0  0  0  0
  3  4  1  6  0  0  0
  3  9  1  0  0  0  0
  3 39  1  0  0  0  0
  5 10  1  0  0  0  0
  5 26  1  0  0  0  0
  5 32  1  6  0  0  0
  6 12  1  0  0  0  0
  6 36  1  0  0  0  0
  6 19  1  1  0  0  0
  7  8  1  6  0  0  0
  7 14  1  0  0  0  0
  9 16  1  0  0  0  0
 10 11  1  6  0  0  0
 10 18  1  0  0  0  0
 12 13  1  1  0  0  0
 12 20  1  0  0  0  0
 14 15  1  1  0  0  0
 14 22  1  0  0  0  0
 16 17  1  6  0  0  0
 16 24  1  0  0  0  0
 18 19  1  1  0  0  0
 18 25  1  0  0  0  0
 20 21  1  6  0  0  0
 20 27  1  0  0  0  0
 22 23  1  1  0  0  0
 22 29  1  0  0  0  0
 24  2  1  1  0  0  0
 24 31  1  0  0  0  0
 25 26  1  0  0  0  0
 25 33  1  6  0  0  0
 27 28  1  1  0  0  0
 27 35  1  0  0  0  0
 29 30  1  0  0  0  0
 29 37  1  1  0  0  0
 31 32  1  6  0  0  0
 31 39  1  0  0  0  0
 33 34  1  0  0  0  0
 35 36  1  0  0  0  0
 35 41  1  1  0  0  0
 37 38  1  0  0  0  0
 39 40  1  1  0  0  0
 41 42  1  0  0  0  0
M  END
>  <CHROM.1>
-169.57224412,-94.61589122,69.20618435,-59.33357541,145.07464842,21.04890505
-161.26312042,-56.37009583,73.83012243,163.78279400,-63.45720983,-177.54748009
89.50547714,178.61349037,70.13301461,135.20545544,160.12764120,-97.27301773
28.35991156,57.10492969,-166.82537116,-147.23914870,2.81190873,3.77093052
26.13103535,-0.21166674,0.67086434,2.20502117

>  <Name>
1fyp_lig

>  <RI>
0

>  <Rbt.Current_Directory>
/home/itssahil/PROJECTS/Mol_Feturizer/New_Systems/rnas/1fyp

>  <Rbt.Executable>
rbdock ($Id: //depot/dev/client3/rdock/2013.1/src/exe/rbdock.cxx#4 $)

>  <Rbt.Library>
libRbt.so (2013.1, Build901 2013/11/27)

>  <Rbt.Parameter_File>
/export/apps/rDock/src/rDock_2013.1_src/data/scripts/dock_solv.prm

>  <Rbt.Receptor>
prm/pocket_docking_4.prm

>  <SCORE>
-55.5356

>  <SCORE.INTER>
-52.3707

>  <SCORE.INTER.CONST>
1

>  <SCORE.INTER.POLAR>
-6.68357

>  <SCORE.INTER.ROT>
14

>  <SCORE.INTER.SOLV>
15.7337

>  <SCORE.INTER.VDW>
-30.8131

>  <SCORE.INTER.norm>
-1.24692

>  <SCORE.INTRA>
-3.16488

>  <SCORE.INTRA.DIHEDRAL>
-12.2351

>  <SCORE.INTRA.DIHEDRAL.0>
48.7173

>  <SCORE.INTRA.POLAR>
-0.132963

>  <SCORE.INTRA.POLAR.0>
-1.54691

>  <SCORE.INTRA.REPUL>
0

>  <SCORE.INTRA.REPUL.0>
0

>  <SCORE.INTRA.SOLV>
1.27227

>  <SCORE.INTRA.SOLV.lig_0>
-64.052

>  <SCORE.INTRA.VDW>
2.76861

>  <SCORE.INTRA.VDW.0>
-7.0667

>  <SCORE.INTRA.norm>
-0.0753542

>  <SCORE.RESTR>
0

>  <SCORE.RESTR.CAVITY>
0

>  <SCORE.RESTR.norm>
0

>  <SCORE.SYSTEM>
0

>  <SCORE.SYSTEM.CONST>
0

>  <SCORE.SYSTEM.DIHEDRAL>
0

>  <SCORE.SYSTEM.SOLV>
0

>  <SCORE.SYSTEM.norm>
0

>  <SCORE.heavy>
42

>  <SCORE.norm>
-1.32228

>  <RMSD>
2.071

$$$$
1fyp_lig
 OpenBabel11021811393D
libRbt.so/2013.1/901 2013/11/27
 42 45  0  0  0  0  0  0  0  0999 V2000
    6.7575    5.7270   27.2638 C   0  0  2  0  0  0  0  0  0  0  0  0
    5.6597    6.5118   26.7149 O   0  0  0  0  0  0  0  0  0  0  0  0
    3.5009    7.5209   23.1706 C   0  0  2  0  0  0  0  0  0  0  0  0
    2.9875    7.6646   21.7958 N   0  0  0  0  0  0  0  0  0  0  0  0
    2.5886    4.0262   26.2337 C   0  0  1  0  0  0  0  0  0  0  0  0
   -0.8475    1.9308   26.2389 C   0  0  1  0  0  0  0  0  0  0  0  0
    6.6516    5.6032   28.8180 C   0  0  2  0  0  0  0  0  0  0  0  0
    5.3065    5.1481   29.2293 N   0  0  0  0  0  0  0  0  0  0  0  0
    5.0031    7.8672   23.1959 C   0  0  0  0  0  0  0  0  0  0  0  0
    2.1062    2.7223   25.5928 C   0  0  2  0  0  0  0  0  0  0  0  0
    1.0697    3.0076   24.6528 O   0  0  0  0  0  0  0  0  0  0  0  0
   -2.2245    1.8697   26.9678 C   0  0  2  0  0  0  0  0  0  0  0  0
   -2.1469    1.1805   28.2790 N   0  0  0  0  0  0  0  0  0  0  0  0
    6.9992    6.9590   29.5088 C   0  0  1  0  0  0  0  0  0  0  0  0
    7.0538    6.7904   30.9231 O   0  0  0  0  0  0  0  0  0  0  0  0
    5.6063    7.7631   24.6234 C   0  0  2  0  0  0  0  0  0  0  0  0
    7.0555    8.0336   24.5219 N   0  0  0  0  0  0  0  0  0  0  0  0
    1.5636    1.9593   26.8043 C   0  0  2  0  0  0  0  0  0  0  0  0
    0.2070    2.3672   27.1357 O   0  0  0  0  0  0  0  0  0  0  0  0
   -3.3101    1.2255   26.0516 C   0  0  1  0  0  0  0  0  0  0  0  0
   -3.6591    2.1621   25.0345 O   0  0  0  0  0  0  0  0  0  0  0  0
    8.3609    7.5190   29.0265 C   0  0  2  0  0  0  0  0  0  0  0  0
    8.5752    8.7959   29.6202 O   0  0  0  0  0  0  0  0  0  0  0  0
    5.3280    6.3745   25.3034 C   0  0  2  0  0  0  0  0  0  0  0  0
    2.5393    2.3791   27.9125 C   0  0  2  0  0  0  0  0  0  0  0  0
    2.9496    3.7223   27.5906 O   0  0  0  0  0  0  0  0  0  0  0  0
   -2.8576   -0.0973   25.3621 C   0  0  2  0  0  0  0  0  0  0  0  0
   -2.8259   -1.1338   26.3445 O   0  0  0  0  0  0  0  0  0  0  0  0
    8.3822    7.6260   27.4753 C   0  0  2  0  0  0  0  0  0  0  0  0
    8.0468    6.3267   26.9016 O   0  0  0  0  0  0  0  0  0  0  0  0
    3.8319    5.9138   25.1632 C   0  0  2  0  0  0  0  0  0  0  0  0
    3.7582    4.5069   25.5121 O   0  0  0  0  0  0  0  0  0  0  0  0
    3.7696    1.4599   28.0128 C   0  0  0  0  0  0  0  0  0  0  0  0
    3.3862    0.1381   28.3500 O   0  0  0  0  0  0  0  0  0  0  0  0
   -1.4498    0.0710   24.7108 C   0  0  1  0  0  0  0  0  0  0  0  0
   -0.5148    0.6081   25.6957 O   0  0  0  0  0  0  0  0  0  0  0  0
    9.7438    8.0375   26.8721 C   0  0  0  0  0  0  0  0  0  0  0  0
    9.5806    8.6568   25.6074 O   0  0  0  0  0  0  0  0  0  0  0  0
    3.2734    6.0909   23.7171 C   0  0  1  0  0  0  0  0  0  0  0  0
    1.8743    5.8111   23.7277 O   0  0  0  0  0  0  0  0  0  0  0  0
   -0.8861   -1.2607   24.1523 C   0  0  0  0  0  0  0  0  0  0  0  0
    0.4952   -1.1236   23.6563 N   0  0  0  0  0  0  0  0  0  0  0  0
  1  2  1  1  0  0  0
  1  7  1  0  0  0  0
  1 30  1  0  0  0  0
  3  4  1  6  0  0  0
  3  9  1  0  0  0  0
  3 39  1  0  0  0  0
  5 10  1  0  0  0  0
  5 26  1  0  0  0  0
  5 32  1  6  0  0  0
  6 12  1  0  0  0  0
  6 36  1  0  0  0  0
  6 19  1  1  0  0  0
  7  8  1  6  0  0  0
  7 14  1  0  0  0  0
  9 16  1  0  0  0  0
 10 11  1  6  0  0  0
 10 18  1  0  0  0  0
 12 13  1  1  0  0  0
 12 20  1  0  0  0  0
 14 15  1  1  0  0  0
 14 22  1  0  0  0  0
 16 17  1  6  0  0  0
 16 24  1  0  0  0  0
 18 19  1  1  0  0  0
 18 25  1  0  0  0  0
 20 21  1  6  0  0  0
 20 27  1  0  0  0  0
 22 23  1  1  0  0  0
 22 29  1  0  0  0  0
 24  2  1  1  0  0  0
 24 31  1  0  0  0  0
 25 26  1  0  0  0  0
 25 33  1  6  0  0  0
 27 28  1  1  0  0  0
 27 35  1  0  0  0  0
 29 30  1  0  0  0  0
 29 37  1  6  0  0  0
 31 32  1  6  0  0  0
 31 39  1  0  0  0  0
 33 34  1  0  0  0  0
 35 36  1  0  0  0  0
 35 41  1  1  0  0  0
 37 38  1  0  0  0  0
 39 40  1  1  0  0  0
 41 42  1  0  0  0  0
M  END
>  <CHROM.1>
-159.74506464,-115.69531814,49.43102476,-84.88899529,46.50691267,-73.25037612
-169.89959259,155.14136868,72.46871748,155.23595645,61.35956793,-75.11916083
-62.64638354,178.59520172,-154.92864230,143.23949927,134.79087999,159.83941668
-174.45946667,-162.86222936,-59.95837225,141.60046221,3.17984565,4.23984540
26.28302509,-0.22752140,0.63112266,2.13526582

>  <Name>
1fyp_lig

>  <RI>
0

>  <Rbt.Current_Directory>
/home/itssahil/PROJECTS/Mol_Feturizer/New_Systems/rnas/1fyp

>  <Rbt.Executable>
rbdock ($Id: //depot/dev/client3/rdock/2013.1/src/exe/rbdock.cxx#4 $)

>  <Rbt.Library>
libRbt.so (2013.1, Build901 2013/11/27)

>  <Rbt.Parameter_File>
/export/apps/rDock/src/rDock_2013.1_src/data/scripts/dock_solv.prm

>  <Rbt.Receptor>
prm/pocket_docking_3.prm

>  <SCORE>
-45.4106

>  <SCORE.INTER>
-39.5672

>  <SCORE.INTER.CONST>
1

>  <SCORE.INTER.POLAR>
-5.33039

>  <SCORE.INTER.ROT>
14

>  <SCORE.INTER.SOLV>
18.8921

>  <SCORE.INTER.VDW>
-27.8409

>  <SCORE.INTER.norm>
-0.942076

>  <SCORE.INTRA>
-5.84338

>  <SCORE.INTRA.DIHEDRAL>
-13.0265

>  <SCORE.INTRA.DIHEDRAL.0>
48.7173

>  <SCORE.INTRA.POLAR>
-0.566293

>  <SCORE.INTRA.POLAR.0>
-1.54691

>  <SCORE.INTRA.REPUL>
0

>  <SCORE.INTRA.REPUL.0>
0

>  <SCORE.INTRA.SOLV>
-0.0879159

>  <SCORE.INTRA.SOLV.lig_0>
-64.052

>  <SCORE.INTRA.VDW>
2.63921

>  <SCORE.INTRA.VDW.0>
-7.0667

>  <SCORE.INTRA.norm>
-0.139128

>  <SCORE.RESTR>
0

>  <SCORE.RESTR.CAVITY>
0

>  <SCORE.RESTR.norm>
0

>  <SCORE.SYSTEM>
0

>  <SCORE.SYSTEM.CONST>
0

>  <SCORE.SYSTEM.DIHEDRAL>
0

>  <SCORE.SYSTEM.SOLV>
0

>  <SCORE.SYSTEM.norm>
0

>  <SCORE.heavy>
42

>  <SCORE.norm>
-1.0812

>  <RMSD>
2.090

$$$$
1fyp_lig
 OpenBabel11021811393D
libRbt.so/2013.1/901 2013/11/27
 42 45  0  0  0  0  0  0  0  0999 V2000
    6.8849    6.1077   27.0626 C   0  0  2  0  0  0  0  0  0  0  0  0
    6.2240    7.2296   26.4092 O   0  0  0  0  0  0  0  0  0  0  0  0
    3.9512    8.2368   22.9363 C   0  0  2  0  0  0  0  0  0  0  0  0
    3.4069    8.3987   21.5755 N   0  0  0  0  0  0  0  0  0  0  0  0
    3.1721    4.4162   25.0563 C   0  0  1  0  0  0  0  0  0  0  0  0
   -0.2005    1.7512   25.6374 C   0  0  1  0  0  0  0  0  0  0  0  0
    6.3859    5.9264   28.5323 C   0  0  2  0  0  0  0  0  0  0  0  0
    4.9094    5.8908   28.5968 N   0  0  0  0  0  0  0  0  0  0  0  0
    5.4319    8.6663   22.9509 C   0  0  0  0  0  0  0  0  0  0  0  0
    3.4093    2.9776   25.5231 C   0  0  2  0  0  0  0  0  0  0  0  0
    3.6867    2.1490   24.3935 O   0  0  0  0  0  0  0  0  0  0  0  0
   -0.0854    1.1268   27.0615 C   0  0  2  0  0  0  0  0  0  0  0  0
    1.0360    0.1624   27.1737 N   0  0  0  0  0  0  0  0  0  0  0  0
    6.9409    7.0590   29.4517 C   0  0  1  0  0  0  0  0  0  0  0  0
    6.6105    6.7937   30.8127 O   0  0  0  0  0  0  0  0  0  0  0  0
    6.0646    8.5473   24.3644 C   0  0  2  0  0  0  0  0  0  0  0  0
    7.4944    8.9026   24.2503 N   0  0  0  0  0  0  0  0  0  0  0  0
    2.0587    2.6254   26.1526 C   0  0  2  0  0  0  0  0  0  0  0  0
    1.0904    2.2036   25.1521 O   0  0  0  0  0  0  0  0  0  0  0  0
   -1.4365    0.4788   27.4949 C   0  0  1  0  0  0  0  0  0  0  0  0
   -2.3607    1.5202   27.8028 O   0  0  0  0  0  0  0  0  0  0  0  0
    8.4800    7.1933   29.3355 C   0  0  2  0  0  0  0  0  0  0  0  0
    8.9111    8.2990   30.1231 O   0  0  0  0  0  0  0  0  0  0  0  0
    5.8761    7.1225   24.9989 C   0  0  2  0  0  0  0  0  0  0  0  0
    1.6384    3.9615   26.7809 C   0  0  2  0  0  0  0  0  0  0  0  0
    2.1874    4.9881   25.9321 O   0  0  0  0  0  0  0  0  0  0  0  0
   -2.0789   -0.4387   26.4108 C   0  0  2  0  0  0  0  0  0  0  0  0
   -1.3248   -1.6496   26.3357 O   0  0  0  0  0  0  0  0  0  0  0  0
    8.8949    7.3850   27.8492 C   0  0  2  0  0  0  0  0  0  0  0  0
    8.3402    6.2947   27.0533 O   0  0  0  0  0  0  0  0  0  0  0  0
    4.4059    6.5832   24.8655 C   0  0  2  0  0  0  0  0  0  0  0  0
    4.4171    5.1632   25.1654 O   0  0  0  0  0  0  0  0  0  0  0  0
    2.1492    4.1373   28.2220 C   0  0  0  0  0  0  0  0  0  0  0  0
    1.6752    5.3497   28.7815 O   0  0  0  0  0  0  0  0  0  0  0  0
   -2.0957    0.2726   25.0222 C   0  0  1  0  0  0  0  0  0  0  0  0
   -0.7568    0.7623   24.7058 O   0  0  0  0  0  0  0  0  0  0  0  0
   10.4191    7.3862   27.5961 C   0  0  0  0  0  0  0  0  0  0  0  0
   10.7472    6.6573   26.4254 O   0  0  0  0  0  0  0  0  0  0  0  0
    3.8135    6.7783   23.4353 C   0  0  1  0  0  0  0  0  0  0  0  0
    2.4326    6.4197   23.4574 O   0  0  0  0  0  0  0  0  0  0  0  0
   -2.5769   -0.6579   23.8795 C   0  0  0  0  0  0  0  0  0  0  0  0
   -2.9285    0.0871   22.6570 N   0  0  0  0  0  0  0  0  0  0  0  0
  1  2  1  1  0  0  0
  1  7  1  0  0  0  0
  1 30  1  0  0  0  0
  3  4  1  6  0  0  0
  3  9  1  0  0  0  0
  3 39  1  0  0  0  0
  5 10  1  0  0  0  0
  5 26  1  0  0  0  0
  5 32  1  1  0  0  0
  6 12  1  0  0  0  0
  6 36  1  0  0  0  0
  6 19  1  6  0  0  0
  7  8  1  6  0  0  0
  7 14  1  0  0  0  0
  9 16  1  0  0  0  0
 10 11  1  6  0  0  0
 10 18  1  0  0  0  0
 12 13  1  6  0  0  0
 12 20  1  0  0  0  0
 14 15  1  1  0  0  0
 14 22  1  0  0  0  0
 16 17  1  6  0  0  0
 16 24  1  0  0  0  0
 18 19  1  6  0  0  0
 18 25  1  0  0  0  0
 20 21  1  6  0  0  0
 20 27  1  0  0  0  0
 22 23  1  1  0  0  0
 22 29  1  0  0  0  0
 24  2  1  1  0  0  0
 24 31  1  0  0  0  0
 25 26  1  0  0  0  0
 25 33  1  1  0  0  0
 27 28  1  6  0  0  0
 27 35  1  0  0  0  0
 29 30  1  0  0  0  0
 29 37  1  1  0  0  0
 31 32  1  6  0  0  0
 31 39  1  0  0  0  0
 33 34  1  0  0  0  0
 35 36  1  0  0  0  0
 35 41  1  6  0  0  0
 37 38  1  0  0  0  0
 39 40  1  1  0  0  0
 41 42  1  0  0  0  0
M  END
>  <CHROM.1>
-142.81310318,-144.70280946,-45.21151326,-88.36281240,-78.33620989,-156.88215552
-57.31295648,-46.41807617,175.70853576,-29.03849152,60.28787417,65.77007218
-176.81241123,-67.76312230,138.69828315,-177.52768905,-175.64163855,99.07185780
165.01772588,96.60983507,70.87270227,74.46480898,3.50658291,4.59559740,26.13454302
-0.16561809,0.65444305,2.03980431

>  <Name>
1fyp_lig

>  <RI>
0

>  <Rbt.Current_Directory>
/home/itssahil/PROJECTS/Mol_Feturizer/New_Systems/rnas/1fyp

>  <Rbt.Executable>
rbdock ($Id: //depot/dev/client3/rdock/2013.1/src/exe/rbdock.cxx#4 $)

>  <Rbt.Library>
libRbt.so (2013.1, Build901 2013/11/27)

>  <Rbt.Parameter_File>
/export/apps/rDock/src/rDock_2013.1_src/data/scripts/dock_solv.prm

>  <Rbt.Receptor>
prm/pocket_docking_5.prm

>  <SCORE>
-50.6171

>  <SCORE.INTER>
-52.0359

>  <SCORE.INTER.CONST>
1

>  <SCORE.INTER.POLAR>
-6.66401

>  <SCORE.INTER.ROT>
14

>  <SCORE.INTER.SOLV>
17.6795

>  <SCORE.INTER.VDW>
-31.3037

>  <SCORE.INTER.norm>
-1.23895

>  <SCORE.INTRA>
1.41884

>  <SCORE.INTRA.DIHEDRAL>
-14.3415

>  <SCORE.INTRA.DIHEDRAL.0>
48.7173

>  <SCORE.INTRA.POLAR>
1.17191

>  <SCORE.INTRA.POLAR.0>
-1.54691

>  <SCORE.INTRA.REPUL>
0

>  <SCORE.INTRA.REPUL.0>
0

>  <SCORE.INTRA.SOLV>
-1.97691

>  <SCORE.INTRA.SOLV.lig_0>
-64.052

>  <SCORE.INTRA.VDW>
5.59354

>  <SCORE.INTRA.VDW.0>
-7.0667

>  <SCORE.INTRA.norm>
0.033782

>  <SCORE.RESTR>
0

>  <SCORE.RESTR.CAVITY>
0

>  <SCORE.RESTR.norm>
0

>  <SCORE.SYSTEM>
0

>  <SCORE.SYSTEM.CONST>
0

>  <SCORE.SYSTEM.DIHEDRAL>
0

>  <SCORE.SYSTEM.SOLV>
0

>  <SCORE.SYSTEM.norm>
0

>  <SCORE.heavy>
42

>  <SCORE.norm>
-1.20517

>  <RMSD>
2.119

$$$$
1fyp_lig
 OpenBabel11021811393D
libRbt.so/2013.1/901 2013/11/27
 42 45  0  0  0  0  0  0  0  0999 V2000
    6.7938    5.4723   27.0743 C   0  0  2  0  0  0  0  0  0  0  0  0
    5.5999    6.1425   26.5762 O   0  0  0  0  0  0  0  0  0  0  0  0
    3.8181    7.8522   23.0916 C   0  0  2  0  0  0  0  0  0  0  0  0
    3.4489    8.2657   21.7252 N   0  0  0  0  0  0  0  0  0  0  0  0
    2.5536    3.8549   25.2031 C   0  0  1  0  0  0  0  0  0  0  0  0
   -0.4317    0.7368   26.3352 C   0  0  1  0  0  0  0  0  0  0  0  0
    6.4410    4.1218   27.7769 C   0  0  2  0  0  0  0  0  0  0  0  0
    5.5778    3.2811   26.9204 N   0  0  0  0  0  0  0  0  0  0  0  0
    5.3098    8.1567   23.3343 C   0  0  0  0  0  0  0  0  0  0  0  0
    2.6878    2.3299   25.2128 C   0  0  2  0  0  0  0  0  0  0  0  0
    2.2488    1.8043   23.9596 O   0  0  0  0  0  0  0  0  0  0  0  0
    0.1858   -0.6085   25.8453 C   0  0  2  0  0  0  0  0  0  0  0  0
    0.5478   -0.5810   24.4070 N   0  0  0  0  0  0  0  0  0  0  0  0
    5.7541    4.3749   29.1554 C   0  0  1  0  0  0  0  0  0  0  0  0
    5.5832    3.1437   29.8530 O   0  0  0  0  0  0  0  0  0  0  0  0
    5.7628    7.7703   24.7688 C   0  0  2  0  0  0  0  0  0  0  0  0
    7.2149    8.0257   24.8678 N   0  0  0  0  0  0  0  0  0  0  0  0
    1.7340    1.9383   26.3447 C   0  0  2  0  0  0  0  0  0  0  0  0
    0.3538    1.8729   25.8893 O   0  0  0  0  0  0  0  0  0  0  0  0
   -0.7610   -1.8050   26.1691 C   0  0  1  0  0  0  0  0  0  0  0  0
   -0.7107   -2.0563   27.5719 O   0  0  0  0  0  0  0  0  0  0  0  0
    6.5837    5.3342   30.0451 C   0  0  2  0  0  0  0  0  0  0  0  0
    5.8617    5.5974   31.2444 O   0  0  0  0  0  0  0  0  0  0  0  0
    5.4151    6.2834   25.1384 C   0  0  2  0  0  0  0  0  0  0  0  0
    1.9206    3.0944   27.3372 C   0  0  2  0  0  0  0  0  0  0  0  0
    2.2125    4.2580   26.5391 O   0  0  0  0  0  0  0  0  0  0  0  0
   -2.2486   -1.5656   25.7695 C   0  0  2  0  0  0  0  0  0  0  0  0
   -2.3550   -1.6435   24.3471 O   0  0  0  0  0  0  0  0  0  0  0  0
    6.8802    6.6571   29.2832 C   0  0  2  0  0  0  0  0  0  0  0  0
    7.5172    6.3423   28.0085 O   0  0  0  0  0  0  0  0  0  0  0  0
    3.9412    5.8884   24.7623 C   0  0  2  0  0  0  0  0  0  0  0  0
    3.8311    4.4426   24.8258 O   0  0  0  0  0  0  0  0  0  0  0  0
    3.0564    2.8461   28.3456 C   0  0  0  0  0  0  0  0  0  0  0  0
    2.7889    1.7008   29.1358 O   0  0  0  0  0  0  0  0  0  0  0  0
   -2.7396   -0.1721   26.2711 C   0  0  1  0  0  0  0  0  0  0  0  0
   -1.8062    0.8628   25.8350 O   0  0  0  0  0  0  0  0  0  0  0  0
    7.8245    7.6327   30.0205 C   0  0  0  0  0  0  0  0  0  0  0  0
    9.1430    7.1173   30.0927 O   0  0  0  0  0  0  0  0  0  0  0  0
    3.5346    6.3492   23.3281 C   0  0  1  0  0  0  0  0  0  0  0  0
    2.1417    6.1010   23.1436 O   0  0  0  0  0  0  0  0  0  0  0  0
   -4.1602    0.1806   25.7608 C   0  0  0  0  0  0  0  0  0  0  0  0
   -4.3518    1.6318   25.5864 N   0  0  0  0  0  0  0  0  0  0  0  0
  1  2  1  1  0  0  0
  1  7  1  0  0  0  0
  1 30  1  0  0  0  0
  3  4  1  6  0  0  0
  3  9  1  0  0  0  0
  3 39  1  0  0  0  0
  5 10  1  0  0  0  0
  5 26  1  0  0  0  0
  5 32  1  1  0  0  0
  6 12  1  0  0  0  0
  6 36  1  0  0  0  0
  6 19  1  6  0  0  0
  7  8  1  6  0  0  0
  7 14  1  0  0  0  0
  9 16  1  0  0  0  0
 10 11  1  6  0  0  0
 10 18  1  0  0  0  0
 12 13  1  6  0  0  0
 12 20  1  0  0  0  0
 14 15  1  1  0  0  0
 14 22  1  0  0  0  0
 16 17  1  6  0  0  0
 16 24  1  0  0  0  0
 18 19  1  6  0  0  0
 18 25  1  0  0  0  0
 20 21  1  1  0  0  0
 20 27  1  0  0  0  0
 22 23  1  1  0  0  0
 22 29  1  0  0  0  0
 24  2  1  1  0  0  0
 24 31  1  0  0  0  0
 25 26  1  0  0  0  0
 25 33  1  1  0  0  0
 27 28  1  6  0  0  0
 27 35  1  0  0  0  0
 29 30  1  0  0  0  0
 29 37  1  1  0  0  0
 31 32  1  6  0  0  0
 31 39  1  0  0  0  0
 33 34  1  0  0  0  0
 35 36  1  0  0  0  0
 35 41  1  6  0  0  0
 37 38  1  0  0  0  0
 39 40  1  1  0  0  0
 41 42  1  0  0  0  0
M  END
>  <CHROM.1>
-113.23973275,-103.20241632,81.04055103,62.17951813,-169.63398273,169.09390992
-178.07543290,-58.46896643,136.08422765,-60.93095860,51.34538587,177.76918153
-61.44923734,66.75293931,68.53334827,148.78449478,-179.46413998,-62.66983960
-149.50376633,53.29240775,75.91678284,22.99563142,2.96305829,3.62178707,26.36769050
-0.25889110,0.67286680,2.20326320

>  <Name>
1fyp_lig

>  <RI>
0

>  <Rbt.Current_Directory>
/home/itssahil/PROJECTS/Mol_Feturizer/New_Systems/rnas/1fyp

>  <Rbt.Executable>
rbdock ($Id: //depot/dev/client3/rdock/2013.1/src/exe/rbdock.cxx#4 $)

>  <Rbt.Library>
libRbt.so (2013.1, Build901 2013/11/27)

>  <Rbt.Parameter_File>
/export/apps/rDock/src/rDock_2013.1_src/data/scripts/dock_solv.prm

>  <Rbt.Receptor>
prm/pocket_docking_8.prm

>  <SCORE>
-55.1869

>  <SCORE.INTER>
-48.8818

>  <SCORE.INTER.CONST>
1

>  <SCORE.INTER.POLAR>
-5.87067

>  <SCORE.INTER.ROT>
14

>  <SCORE.INTER.SOLV>
17.9627

>  <SCORE.INTER.VDW>
-31.9399

>  <SCORE.INTER.norm>
-1.16385

>  <SCORE.INTRA>
-6.30514

>  <SCORE.INTRA.DIHEDRAL>
-17.852

>  <SCORE.INTRA.DIHEDRAL.0>
48.7173

>  <SCORE.INTRA.POLAR>
0.307443

>  <SCORE.INTRA.POLAR.0>
-1.54691

>  <SCORE.INTRA.REPUL>
0.092225

>  <SCORE.INTRA.REPUL.0>
0

>  <SCORE.INTRA.SOLV>
0.173635

>  <SCORE.INTRA.SOLV.lig_0>
-64.052

>  <SCORE.INTRA.VDW>
1.02762

>  <SCORE.INTRA.VDW.0>
-7.0667

>  <SCORE.INTRA.norm>
-0.150122

>  <SCORE.RESTR>
0

>  <SCORE.RESTR.CAVITY>
0

>  <SCORE.RESTR.norm>
0

>  <SCORE.SYSTEM>
0

>  <SCORE.SYSTEM.CONST>
0

>  <SCORE.SYSTEM.DIHEDRAL>
0

>  <SCORE.SYSTEM.SOLV>
0

>  <SCORE.SYSTEM.norm>
0

>  <SCORE.heavy>
42

>  <SCORE.norm>
-1.31397

>  <RMSD>
2.136

$$$$
1fyp_lig
 OpenBabel11021811393D
libRbt.so/2013.1/901 2013/11/27
 42 45  0  0  0  0  0  0  0  0999 V2000
    7.3617    6.6645   26.8130 C   0  0  2  0  0  0  0  0  0  0  0  0
    6.4641    7.6428   26.2135 O   0  0  0  0  0  0  0  0  0  0  0  0
    3.9032    8.3145   22.8622 C   0  0  2  0  0  0  0  0  0  0  0  0
    3.2710    8.3882   21.5320 N   0  0  0  0  0  0  0  0  0  0  0  0
    3.6934    4.4805   25.1494 C   0  0  1  0  0  0  0  0  0  0  0  0
    0.5272    2.0709   26.0557 C   0  0  1  0  0  0  0  0  0  0  0  0
    6.9418    6.3255   28.2796 C   0  0  2  0  0  0  0  0  0  0  0  0
    5.5084    5.9725   28.3590 N   0  0  0  0  0  0  0  0  0  0  0  0
    5.3196    8.9191   22.7911 C   0  0  0  0  0  0  0  0  0  0  0  0
    4.1363    3.0893   25.6099 C   0  0  2  0  0  0  0  0  0  0  0  0
    4.3616    2.2587   24.4702 O   0  0  0  0  0  0  0  0  0  0  0  0
    0.4307    1.3023   27.4089 C   0  0  2  0  0  0  0  0  0  0  0  0
    1.1198   -0.0107   27.3708 N   0  0  0  0  0  0  0  0  0  0  0  0
    7.2604    7.5152   29.2383 C   0  0  1  0  0  0  0  0  0  0  0  0
    7.0210    7.1344   30.5909 O   0  0  0  0  0  0  0  0  0  0  0  0
    6.0370    8.8993   24.1685 C   0  0  2  0  0  0  0  0  0  0  0  0
    7.4052    9.4221   23.9725 N   0  0  0  0  0  0  0  0  0  0  0  0
    2.9165    2.6199   26.4076 C   0  0  2  0  0  0  0  0  0  0  0  0
    1.8848    2.0695   25.5421 O   0  0  0  0  0  0  0  0  0  0  0  0
   -1.0558    1.1501   27.8566 C   0  0  1  0  0  0  0  0  0  0  0  0
   -1.5254    2.4185   28.3084 O   0  0  0  0  0  0  0  0  0  0  0  0
    8.7328    7.9799   29.1107 C   0  0  2  0  0  0  0  0  0  0  0  0
    8.9336    9.1218   29.9380 O   0  0  0  0  0  0  0  0  0  0  0  0
    6.0565    7.4724   24.8256 C   0  0  2  0  0  0  0  0  0  0  0  0
    2.4359    3.9246   27.0581 C   0  0  2  0  0  0  0  0  0  0  0  0
    2.7665    4.9752   26.1292 O   0  0  0  0  0  0  0  0  0  0  0  0
   -2.0111    0.6488   26.7314 C   0  0  2  0  0  0  0  0  0  0  0  0
   -1.7577   -0.7387   26.5052 O   0  0  0  0  0  0  0  0  0  0  0  0
    9.0681    8.3117   27.6289 C   0  0  2  0  0  0  0  0  0  0  0  0
    8.7432    7.1587   26.7953 O   0  0  0  0  0  0  0  0  0  0  0  0
    4.6573    6.7582   24.7785 C   0  0  2  0  0  0  0  0  0  0  0  0
    4.8561    5.3547   25.0904 O   0  0  0  0  0  0  0  0  0  0  0  0
    3.0954    4.1971   28.4217 C   0  0  0  0  0  0  0  0  0  0  0  0
    2.7891    3.1675   29.3457 O   0  0  0  0  0  0  0  0  0  0  0  0
   -1.7905    1.4583   25.4159 C   0  0  1  0  0  0  0  0  0  0  0  0
   -0.3715    1.4563   25.0709 O   0  0  0  0  0  0  0  0  0  0  0  0
   10.5517    8.6484   27.3591 C   0  0  0  0  0  0  0  0  0  0  0  0
   10.6934    9.9483   26.8118 O   0  0  0  0  0  0  0  0  0  0  0  0
    3.9697    6.8580   23.3814 C   0  0  1  0  0  0  0  0  0  0  0  0
    2.6456    6.3364   23.4830 O   0  0  0  0  0  0  0  0  0  0  0  0
   -2.6019    0.8924   24.2224 C   0  0  0  0  0  0  0  0  0  0  0  0
   -4.0203    1.2912   24.2660 N   0  0  0  0  0  0  0  0  0  0  0  0
  1  2  1  1  0  0  0
  1  7  1  0  0  0  0
  1 30  1  0  0  0  0
  3  4  1  6  0  0  0
  3  9  1  0  0  0  0
  3 39  1  0  0  0  0
  5 10  1  0  0  0  0
  5 26  1  0  0  0  0
  5 32  1  1  0  0  0
  6 12  1  0  0  0  0
  6 36  1  0  0  0  0
  6 19  1  6  0  0  0
  7  8  1  6  0  0  0
  7 14  1  0  0  0  0
  9 16  1  0  0  0  0
 10 11  1  6  0  0  0
 10 18  1  0  0  0  0
 12 13  1  6  0  0  0
 12 20  1  0  0  0  0
 14 15  1  1  0  0  0
 14 22  1  0  0  0  0
 16 17  1  6  0  0  0
 16 24  1  0  0  0  0
 18 19  1  6  0  0  0
 18 25  1  0  0  0  0
 20 21  1  6  0  0  0
 20 27  1  0  0  0  0
 22 23  1  1  0  0  0
 22 29  1  0  0  0  0
 24  2  1  1  0  0  0
 24 31  1  0  0  0  0
 25 26  1  0  0  0  0
 25 33  1  1  0  0  0
 27 28  1  6  0  0  0
 27 35  1  0  0  0  0
 29 30  1  0  0  0  0
 29 37  1  1  0  0  0
 31 32  1  6  0  0  0
 31 39  1  0  0  0  0
 33 34  1  0  0  0  0
 35 36  1  0  0  0  0
 35 41  1  6  0  0  0
 37 38  1  0  0  0  0
 39 40  1  1  0  0  0
 41 42  1  0  0  0  0
M  END
>  <CHROM.1>
-139.20938741,-140.68950265,-49.78790387,69.35248993,99.39972079,71.15772484
176.95593475,84.51643847,-156.81404763,-57.12152695,-50.13659727,-73.85868703
-61.26362143,-49.38197480,-120.77283526,178.20019195,-175.15422670,65.78993042
78.63321484,34.09540596,-61.33748652,78.30398683,3.82136705,5.03967158,26.24761582
-0.24473125,0.63484019,2.07842489

>  <Name>
1fyp_lig

>  <RI>
0

>  <Rbt.Current_Directory>
/home/itssahil/PROJECTS/Mol_Feturizer/New_Systems/rnas/1fyp

>  <Rbt.Executable>
rbdock ($Id: //depot/dev/client3/rdock/2013.1/src/exe/rbdock.cxx#4 $)

>  <Rbt.Library>
libRbt.so (2013.1, Build901 2013/11/27)

>  <Rbt.Parameter_File>
/export/apps/rDock/src/rDock_2013.1_src/data/scripts/dock_solv.prm

>  <Rbt.Receptor>
prm/pocket_docking_3.prm

>  <SCORE>
-46.1452

>  <SCORE.INTER>
-44.643

>  <SCORE.INTER.CONST>
1

>  <SCORE.INTER.POLAR>
-4.78721

>  <SCORE.INTER.ROT>
14

>  <SCORE.INTER.SOLV>
15.9563

>  <SCORE.INTER.VDW>
-32.0567

>  <SCORE.INTER.norm>
-1.06293

>  <SCORE.INTRA>
-1.93978

>  <SCORE.INTRA.DIHEDRAL>
-16.7861

>  <SCORE.INTRA.DIHEDRAL.0>
48.7173

>  <SCORE.INTRA.POLAR>
0.979262

>  <SCORE.INTRA.POLAR.0>
-1.54691

>  <SCORE.INTRA.REPUL>
0

>  <SCORE.INTRA.REPUL.0>
0

>  <SCORE.INTRA.SOLV>
-2.02574

>  <SCORE.INTRA.SOLV.lig_0>
-64.052

>  <SCORE.INTRA.VDW>
4.13666

>  <SCORE.INTRA.VDW.0>
-7.0667

>  <SCORE.INTRA.norm>
-0.0461851

>  <SCORE.RESTR>
0.437618

>  <SCORE.RESTR.CAVITY>
0.437618

>  <SCORE.RESTR.norm>
0.0104195

>  <SCORE.SYSTEM>
0

>  <SCORE.SYSTEM.CONST>
0

>  <SCORE.SYSTEM.DIHEDRAL>
0

>  <SCORE.SYSTEM.SOLV>
0

>  <SCORE.SYSTEM.norm>
0

>  <SCORE.heavy>
42

>  <SCORE.norm>
-1.09869

>  <RMSD>
2.142

$$$$
1fyp_lig
 OpenBabel11021811393D
libRbt.so/2013.1/901 2013/11/27
 42 45  0  0  0  0  0  0  0  0999 V2000
    7.2242    7.0820   27.0191 C   0  0  2  0  0  0  0  0  0  0  0  0
    5.9354    7.6200   26.6044 O   0  0  0  0  0  0  0  0  0  0  0  0
    3.3709    8.2064   23.2398 C   0  0  2  0  0  0  0  0  0  0  0  0
    2.6945    8.1792   21.9298 N   0  0  0  0  0  0  0  0  0  0  0  0
    2.7114    4.7006   25.6414 C   0  0  1  0  0  0  0  0  0  0  0  0
   -0.1187    1.2732   25.5145 C   0  0  1  0  0  0  0  0  0  0  0  0
    7.1437    5.5442   27.2851 C   0  0  2  0  0  0  0  0  0  0  0  0
    6.5203    4.8351   26.1474 N   0  0  0  0  0  0  0  0  0  0  0  0
    4.8689    8.5093   23.0374 C   0  0  0  0  0  0  0  0  0  0  0  0
    3.0790    3.2298   25.8540 C   0  0  2  0  0  0  0  0  0  0  0  0
    3.4548    2.6466   24.6057 O   0  0  0  0  0  0  0  0  0  0  0  0
   -0.2085    0.2931   24.3052 C   0  0  2  0  0  0  0  0  0  0  0  0
   -0.3100    0.9984   23.0042 N   0  0  0  0  0  0  0  0  0  0  0  0
    6.3607    5.2479   28.6024 C   0  0  1  0  0  0  0  0  0  0  0  0
    6.4319    3.8590   28.9148 O   0  0  0  0  0  0  0  0  0  0  0  0
    5.6414    8.5802   24.3830 C   0  0  2  0  0  0  0  0  0  0  0  0
    7.0704    8.7926   24.0725 N   0  0  0  0  0  0  0  0  0  0  0  0
    1.7583    2.6471   26.3647 C   0  0  2  0  0  0  0  0  0  0  0  0
    0.8528    2.3241   25.2728 O   0  0  0  0  0  0  0  0  0  0  0  0
   -1.3808   -0.7181   24.4953 C   0  0  1  0  0  0  0  0  0  0  0  0
   -1.0072   -1.6626   25.4962 O   0  0  0  0  0  0  0  0  0  0  0  0
    6.9242    6.0519   29.8009 C   0  0  2  0  0  0  0  0  0  0  0  0
    6.1124    5.8100   30.9460 O   0  0  0  0  0  0  0  0  0  0  0  0
    5.4313    7.3041   25.2749 C   0  0  2  0  0  0  0  0  0  0  0  0
    1.1997    3.8041   27.2049 C   0  0  2  0  0  0  0  0  0  0  0  0
    1.6610    5.0126   26.5705 O   0  0  0  0  0  0  0  0  0  0  0  0
   -2.7265   -0.0588   24.9249 C   0  0  2  0  0  0  0  0  0  0  0  0
   -3.2749    0.6291   23.7995 O   0  0  0  0  0  0  0  0  0  0  0  0
    6.9583    7.5698   29.4649 C   0  0  2  0  0  0  0  0  0  0  0  0
    7.7016    7.7686   28.2248 O   0  0  0  0  0  0  0  0  0  0  0  0
    3.9237    6.8723   25.3793 C   0  0  2  0  0  0  0  0  0  0  0  0
    3.8760    5.5277   25.9236 O   0  0  0  0  0  0  0  0  0  0  0  0
    1.6663    3.7649   28.6709 C   0  0  0  0  0  0  0  0  0  0  0  0
    3.0809    3.7779   28.7513 O   0  0  0  0  0  0  0  0  0  0  0  0
   -2.5041    0.9343   26.1075 C   0  0  1  0  0  0  0  0  0  0  0  0
   -1.4358    1.8702   25.7678 O   0  0  0  0  0  0  0  0  0  0  0  0
    7.6365    8.4557   30.5337 C   0  0  0  0  0  0  0  0  0  0  0  0
    7.5325    9.8306   30.2045 O   0  0  0  0  0  0  0  0  0  0  0  0
    3.1943    6.8699   24.0000 C   0  0  1  0  0  0  0  0  0  0  0  0
    1.8038    6.6347   24.2164 O   0  0  0  0  0  0  0  0  0  0  0  0
   -3.7828    1.7346   26.4649 C   0  0  0  0  0  0  0  0  0  0  0  0
   -4.9799    0.8780   26.5427 N   0  0  0  0  0  0  0  0  0  0  0  0
  1  2  1  1  0  0  0
  1  7  1  0  0  0  0
  1 30  1  0  0  0  0
  3  4  1  6  0  0  0
  3  9  1  0  0  0  0
  3 39  1  0  0  0  0
  5 10  1  0  0  0  0
  5 26  1  0  0  0  0
  5 32  1  1  0  0  0
  6 12  1  0  0  0  0
  6 36  1  0  0  0  0
  6 19  1  6  0  0  0
  7  8  1  6  0  0  0
  7 14  1  0  0  0  0
  9 16  1  0  0  0  0
 10 11  1  6  0  0  0
 10 18  1  0  0  0  0
 12 13  1  6  0  0  0
 12 20  1  0  0  0  0
 14 15  1  1  0  0  0
 14 22  1  0  0  0  0
 16 17  1  6  0  0  0
 16 24  1  0  0  0  0
 18 19  1  6  0  0  0
 18 25  1  0  0  0  0
 20 21  1  1  0  0  0
 20 27  1  0  0  0  0
 22 23  1  1  0  0  0
 22 29  1  0  0  0  0
 24  2  1  1  0  0  0
 24 31  1  0  0  0  0
 25 26  1  0  0  0  0
 25 33  1  1  0  0  0
 27 28  1  6  0  0  0
 27 35  1  0  0  0  0
 29 30  1  0  0  0  0
 29 37  1  1  0  0  0
 31 32  1  6  0  0  0
 31 39  1  0  0  0  0
 33 34  1  0  0  0  0
 35 36  1  0  0  0  0
 35 41  1  6  0  0  0
 37 38  1  0  0  0  0
 39 40  1  1  0  0  0
 41 42  1  0  0  0  0
M  END
>  <CHROM.1>
-71.80878469,-103.83124341,50.07073873,163.33827958,-178.75157198,80.50907688
-59.57038355,-66.47180005,153.40707398,-135.52452240,-174.55620939,-68.33966197
57.25130294,64.97975514,-175.33513370,-155.90442438,159.65685589,-66.12764078
45.93185261,-51.98419632,-36.60141558,27.78006177,2.89555420,4.57958408,26.20820358
-0.13433285,0.69315973,2.11773499

>  <Name>
1fyp_lig

>  <RI>
0

>  <Rbt.Current_Directory>
/home/itssahil/PROJECTS/Mol_Feturizer/New_Systems/rnas/1fyp

>  <Rbt.Executable>
rbdock ($Id: //depot/dev/client3/rdock/2013.1/src/exe/rbdock.cxx#4 $)

>  <Rbt.Library>
libRbt.so (2013.1, Build901 2013/11/27)

>  <Rbt.Parameter_File>
/export/apps/rDock/src/rDock_2013.1_src/data/scripts/dock_solv.prm

>  <Rbt.Receptor>
prm/pocket_docking_6.prm

>  <SCORE>
-54.126

>  <SCORE.INTER>
-49.7092

>  <SCORE.INTER.CONST>
1

>  <SCORE.INTER.POLAR>
-6.48264

>  <SCORE.INTER.ROT>
14

>  <SCORE.INTER.SOLV>
19.4442

>  <SCORE.INTER.VDW>
-30.9454

>  <SCORE.INTER.norm>
-1.18355

>  <SCORE.INTRA>
-4.41685

>  <SCORE.INTRA.DIHEDRAL>
-21.3301

>  <SCORE.INTRA.DIHEDRAL.0>
48.7173

>  <SCORE.INTRA.POLAR>
0.499355

>  <SCORE.INTRA.POLAR.0>
-1.54691

>  <SCORE.INTRA.REPUL>
0

>  <SCORE.INTRA.REPUL.0>
0

>  <SCORE.INTRA.SOLV>
-0.589888

>  <SCORE.INTRA.SOLV.lig_0>
-64.052

>  <SCORE.INTRA.VDW>
4.84535

>  <SCORE.INTRA.VDW.0>
-7.0667

>  <SCORE.INTRA.norm>
-0.105163

>  <SCORE.RESTR>
0

>  <SCORE.RESTR.CAVITY>
0

>  <SCORE.RESTR.norm>
0

>  <SCORE.SYSTEM>
0

>  <SCORE.SYSTEM.CONST>
0

>  <SCORE.SYSTEM.DIHEDRAL>
0

>  <SCORE.SYSTEM.SOLV>
0

>  <SCORE.SYSTEM.norm>
0

>  <SCORE.heavy>
42

>  <SCORE.norm>
-1.28871

>  <RMSD>
2.166

$$$$
1fyp_lig
 OpenBabel11021811393D
libRbt.so/2013.1/901 2013/11/27
 42 45  0  0  0  0  0  0  0  0999 V2000
    8.5204    7.1691   25.8798 C   0  0  2  0  0  0  0  0  0  0  0  0
    7.3017    7.9304   25.6402 O   0  0  0  0  0  0  0  0  0  0  0  0
    3.9392    8.4490   23.0584 C   0  0  2  0  0  0  0  0  0  0  0  0
    2.9641    8.4335   21.9523 N   0  0  0  0  0  0  0  0  0  0  0  0
    4.1811    4.8042   25.4503 C   0  0  1  0  0  0  0  0  0  0  0  0
    1.4118    1.6323   26.5892 C   0  0  1  0  0  0  0  0  0  0  0  0
    8.5008    6.4844   27.2844 C   0  0  2  0  0  0  0  0  0  0  0  0
    7.2508    5.7228   27.4923 N   0  0  0  0  0  0  0  0  0  0  0  0
    5.3057    8.9299   22.5307 C   0  0  0  0  0  0  0  0  0  0  0  0
    4.6553    3.3535   25.5695 C   0  0  2  0  0  0  0  0  0  0  0  0
    4.5992    2.7263   24.2878 O   0  0  0  0  0  0  0  0  0  0  0  0
    0.3518    0.9696   25.6574 C   0  0  2  0  0  0  0  0  0  0  0  0
   -0.1700    1.9039   24.6302 N   0  0  0  0  0  0  0  0  0  0  0  0
    8.6875    7.5390   28.4198 C   0  0  1  0  0  0  0  0  0  0  0  0
    8.8267    6.8861   29.6792 O   0  0  0  0  0  0  0  0  0  0  0  0
    6.3782    8.9972   23.6522 C   0  0  2  0  0  0  0  0  0  0  0  0
    7.6596    9.3878   23.0284 N   0  0  0  0  0  0  0  0  0  0  0  0
    3.6154    2.7610   26.5244 C   0  0  2  0  0  0  0  0  0  0  0  0
    2.4017    2.3687   25.8247 O   0  0  0  0  0  0  0  0  0  0  0  0
   -0.8059    0.3403   26.4922 C   0  0  1  0  0  0  0  0  0  0  0  0
   -0.3195   -0.8431   27.1219 O   0  0  0  0  0  0  0  0  0  0  0  0
    9.9362    8.4251   28.1836 C   0  0  2  0  0  0  0  0  0  0  0  0
    9.9976    9.4223   29.1988 O   0  0  0  0  0  0  0  0  0  0  0  0
    6.5144    7.6492   24.4475 C   0  0  2  0  0  0  0  0  0  0  0  0
    3.3372    3.9391   27.4685 C   0  0  2  0  0  0  0  0  0  0  0  0
    3.5047    5.1301   26.6752 O   0  0  0  0  0  0  0  0  0  0  0  0
   -1.3783    1.2803   27.5962 C   0  0  2  0  0  0  0  0  0  0  0  0
   -2.1561    2.2996   26.9664 O   0  0  0  0  0  0  0  0  0  0  0  0
    9.8746    9.0811   26.7750 C   0  0  2  0  0  0  0  0  0  0  0  0
    9.6973    8.0385   25.7693 O   0  0  0  0  0  0  0  0  0  0  0  0
    5.1263    7.0459   24.8709 C   0  0  2  0  0  0  0  0  0  0  0  0
    5.3390    5.6713   25.2850 O   0  0  0  0  0  0  0  0  0  0  0  0
    4.2823    3.9750   28.6827 C   0  0  0  0  0  0  0  0  0  0  0  0
    4.8868    2.7103   28.8897 O   0  0  0  0  0  0  0  0  0  0  0  0
   -0.2258    1.9203   28.4309 C   0  0  1  0  0  0  0  0  0  0  0  0
    0.7455    2.5385   27.5326 O   0  0  0  0  0  0  0  0  0  0  0  0
   11.1385    9.8734   26.3725 C   0  0  0  0  0  0  0  0  0  0  0  0
   11.0066   10.4288   25.0750 O   0  0  0  0  0  0  0  0  0  0  0  0
    4.0806    7.0537   23.7129 C   0  0  1  0  0  0  0  0  0  0  0  0
    2.8150    6.6510   24.2344 O   0  0  0  0  0  0  0  0  0  0  0  0
   -0.7353    2.9856   29.4353 C   0  0  0  0  0  0  0  0  0  0  0  0
   -1.4410    4.0954   28.7695 N   0  0  0  0  0  0  0  0  0  0  0  0
  1  2  1  1  0  0  0
  1  7  1  0  0  0  0
  1 30  1  0  0  0  0
  3  4  1  6  0  0  0
  3  9  1  0  0  0  0
  3 39  1  0  0  0  0
  5 10  1  0  0  0  0
  5 26  1  0  0  0  0
  5 32  1  1  0  0  0
  6 12  1  0  0  0  0
  6 36  1  0  0  0  0
  6 19  1  6  0  0  0
  7  8  1  1  0  0  0
  7 14  1  0  0  0  0
  9 16  1  0  0  0  0
 10 11  1  6  0  0  0
 10 18  1  0  0  0  0
 12 13  1  6  0  0  0
 12 20  1  0  0  0  0
 14 15  1  1  0  0  0
 14 22  1  0  0  0  0
 16 17  1  6  0  0  0
 16 24  1  0  0  0  0
 18 19  1  6  0  0  0
 18 25  1  0  0  0  0
 20 21  1  1  0  0  0
 20 27  1  0  0  0  0
 22 23  1  1  0  0  0
 22 29  1  0  0  0  0
 24  2  1  1  0  0  0
 24 31  1  0  0  0  0
 25 26  1  0  0  0  0
 25 33  1  1  0  0  0
 27 28  1  6  0  0  0
 27 35  1  0  0  0  0
 29 30  1  0  0  0  0
 29 37  1  6  0  0  0
 31 32  1  6  0  0  0
 31 39  1  0  0  0  0
 33 34  1  0  0  0  0
 35 36  1  0  0  0  0
 35 41  1  1  0  0  0
 37 38  1  0  0  0  0
 39 40  1  1  0  0  0
 41 42  1  0  0  0  0
M  END
>  <CHROM.1>
-125.01512204,-123.47135843,-59.15132747,21.62372233,130.16569847,172.94212013
67.64141427,-50.98139189,172.05010791,-165.58392745,-172.08214558,-65.59590683
-19.14419239,168.28160585,179.51942116,-166.96690440,167.13060452,-159.35415015
-59.41329349,-64.54817400,113.00408344,-63.84752641,4.55940687,5.38190471
26.22599571,-0.41913671,0.52763555,2.15539829

>  <Name>
1fyp_lig

>  <RI>
0

>  <Rbt.Current_Directory>
/home/itssahil/PROJECTS/Mol_Feturizer/New_Systems/rnas/1fyp

>  <Rbt.Executable>
rbdock ($Id: //depot/dev/client3/rdock/2013.1/src/exe/rbdock.cxx#4 $)

>  <Rbt.Library>
libRbt.so (2013.1, Build901 2013/11/27)

>  <Rbt.Parameter_File>
/export/apps/rDock/src/rDock_2013.1_src/data/scripts/dock_solv.prm

>  <Rbt.Receptor>
prm/pocket_docking_7.prm

>  <SCORE>
-67.1673

>  <SCORE.INTER>
-66.3401

>  <SCORE.INTER.CONST>
1

>  <SCORE.INTER.POLAR>
-8.55998

>  <SCORE.INTER.ROT>
14

>  <SCORE.INTER.SOLV>
17.4193

>  <SCORE.INTER.VDW>
-34.4332

>  <SCORE.INTER.norm>
-1.57953

>  <SCORE.INTRA>
-0.827235

>  <SCORE.INTRA.DIHEDRAL>
-8.35811

>  <SCORE.INTRA.DIHEDRAL.0>
48.7173

>  <SCORE.INTRA.POLAR>
0.0827472

>  <SCORE.INTRA.POLAR.0>
-1.54691

>  <SCORE.INTRA.REPUL>
0

>  <SCORE.INTRA.REPUL.0>
0

>  <SCORE.INTRA.SOLV>
-1.2405

>  <SCORE.INTRA.SOLV.lig_0>
-64.052

>  <SCORE.INTRA.VDW>
3.69073

>  <SCORE.INTRA.VDW.0>
-7.0667

>  <SCORE.INTRA.norm>
-0.0196961

>  <SCORE.RESTR>
0

>  <SCORE.RESTR.CAVITY>
0

>  <SCORE.RESTR.norm>
0

>  <SCORE.SYSTEM>
0

>  <SCORE.SYSTEM.CONST>
0

>  <SCORE.SYSTEM.DIHEDRAL>
0

>  <SCORE.SYSTEM.SOLV>
0

>  <SCORE.SYSTEM.norm>
0

>  <SCORE.heavy>
42

>  <SCORE.norm>
-1.59922

>  <RMSD>
2.194

$$$$
1fyp_lig
 OpenBabel11021811393D
libRbt.so/2013.1/901 2013/11/27
 42 45  0  0  0  0  0  0  0  0999 V2000
    6.7657    5.7308   28.6407 C   0  0  2  0  0  0  0  0  0  0  0  0
    5.5255    6.4463   28.3714 O   0  0  0  0  0  0  0  0  0  0  0  0
    2.5316    7.1690   25.4125 C   0  0  2  0  0  0  0  0  0  0  0  0
    1.6433    7.1479   24.2357 N   0  0  0  0  0  0  0  0  0  0  0  0
    2.0258    3.7682   27.8340 C   0  0  1  0  0  0  0  0  0  0  0  0
   -0.4310    0.4662   26.6187 C   0  0  1  0  0  0  0  0  0  0  0  0
    7.2406    5.9431   30.1143 C   0  0  2  0  0  0  0  0  0  0  0  0
    6.1511    5.6651   31.0742 N   0  0  0  0  0  0  0  0  0  0  0  0
    4.0003    7.2147   24.9458 C   0  0  0  0  0  0  0  0  0  0  0  0
    2.5152    2.8896   26.6798 C   0  0  2  0  0  0  0  0  0  0  0  0
    2.1315    3.4779   25.4363 O   0  0  0  0  0  0  0  0  0  0  0  0
    0.1481   -0.7881   25.8959 C   0  0  2  0  0  0  0  0  0  0  0  0
    0.5400   -0.5090   24.4928 N   0  0  0  0  0  0  0  0  0  0  0  0
    7.7867    7.3908   30.3194 C   0  0  1  0  0  0  0  0  0  0  0  0
    8.3605    7.5204   31.6178 O   0  0  0  0  0  0  0  0  0  0  0  0
    4.9946    7.2665   26.1379 C   0  0  2  0  0  0  0  0  0  0  0  0
    6.3645    7.2256   25.5853 N   0  0  0  0  0  0  0  0  0  0  0  0
    1.7559    1.5847   26.9352 C   0  0  2  0  0  0  0  0  0  0  0  0
    0.4032    1.6340   26.4020 O   0  0  0  0  0  0  0  0  0  0  0  0
   -0.8470   -1.9863   25.9794 C   0  0  1  0  0  0  0  0  0  0  0  0
   -0.8341   -2.4945   27.3117 O   0  0  0  0  0  0  0  0  0  0  0  0
    8.8631    7.7552   29.2665 C   0  0  2  0  0  0  0  0  0  0  0  0
    9.2513    9.1134   29.4492 O   0  0  0  0  0  0  0  0  0  0  0  0
    4.7606    6.1123   27.1778 C   0  0  2  0  0  0  0  0  0  0  0  0
    1.7296    1.5226   28.4688 C   0  0  2  0  0  0  0  0  0  0  0  0
    1.6871    2.8904   28.9196 O   0  0  0  0  0  0  0  0  0  0  0  0
   -2.3167   -1.6198   25.6113 C   0  0  2  0  0  0  0  0  0  0  0  0
   -2.3969   -1.4291   24.1979 O   0  0  0  0  0  0  0  0  0  0  0  0
    8.3110    7.5323   27.8299 C   0  0  2  0  0  0  0  0  0  0  0  0
    7.8180    6.1635   27.7142 O   0  0  0  0  0  0  0  0  0  0  0  0
    3.2473    5.9336   27.5630 C   0  0  2  0  0  0  0  0  0  0  0  0
    3.1020    4.6596   28.2428 O   0  0  0  0  0  0  0  0  0  0  0  0
    2.9551    0.8071   29.0645 C   0  0  0  0  0  0  0  0  0  0  0  0
    2.8702    0.7519   30.4778 O   0  0  0  0  0  0  0  0  0  0  0  0
   -2.7680   -0.3253   26.3562 C   0  0  1  0  0  0  0  0  0  0  0  0
   -1.7898    0.7356   26.1323 O   0  0  0  0  0  0  0  0  0  0  0  0
    9.3463    7.7264   26.6997 C   0  0  0  0  0  0  0  0  0  0  0  0
    9.7199    9.0879   26.5718 O   0  0  0  0  0  0  0  0  0  0  0  0
    2.2990    5.9400   26.3240 C   0  0  1  0  0  0  0  0  0  0  0  0
    0.9472    5.9450   26.7804 O   0  0  0  0  0  0  0  0  0  0  0  0
   -4.1646    0.1705   25.9013 C   0  0  0  0  0  0  0  0  0  0  0  0
   -5.2213   -0.8302   26.1359 N   0  0  0  0  0  0  0  0  0  0  0  0
  1  2  1  6  0  0  0
  1  7  1  0  0  0  0
  1 30  1  0  0  0  0
  3  4  1  6  0  0  0
  3  9  1  0  0  0  0
  3 39  1  0  0  0  0
  5 10  1  0  0  0  0
  5 26  1  0  0  0  0
  5 32  1  1  0  0  0
  6 12  1  0  0  0  0
  6 36  1  0  0  0  0
  6 19  1  6  0  0  0
  7  8  1  1  0  0  0
  7 14  1  0  0  0  0
  9 16  1  0  0  0  0
 10 11  1  6  0  0  0
 10 18  1  0  0  0  0
 12 13  1  6  0  0  0
 12 20  1  0  0  0  0
 14 15  1  1  0  0  0
 14 22  1  0  0  0  0
 16 17  1  6  0  0  0
 16 24  1  0  0  0  0
 18 19  1  1  0  0  0
 18 25  1  0  0  0  0
 20 21  1  1  0  0  0
 20 27  1  0  0  0  0
 22 23  1  6  0  0  0
 22 29  1  0  0  0  0
 24  2  1  1  0  0  0
 24 31  1  0  0  0  0
 25 26  1  0  0  0  0
 25 33  1  1  0  0  0
 27 28  1  6  0  0  0
 27 35  1  0  0  0  0
 29 30  1  0  0  0  0
 29 37  1  6  0  0  0
 31 32  1  6  0  0  0
 31 39  1  0  0  0  0
 33 34  1  0  0  0  0
 35 36  1  0  0  0  0
 35 41  1  6  0  0  0
 37 38  1  0  0  0  0
 39 40  1  1  0  0  0
 41 42  1  0  0  0  0
M  END
>  <CHROM.1>
-164.99899940,-104.75302734,-11.32374612,72.13969537,-178.35405304,14.68749124
61.81670011,114.53808356,-178.19678970,-63.72175243,-67.91766520,60.93352063
-178.79607788,-38.48265468,-69.18399993,-132.48919653,87.36179552,-157.22455872
59.92157585,56.26736506,-28.90073908,-52.13747984,3.03740618,3.84464664,27.26920398
-0.35218360,0.65071017,2.39789499

>  <Name>
1fyp_lig

>  <RI>
0

>  <Rbt.Current_Directory>
/home/itssahil/PROJECTS/Mol_Feturizer/New_Systems/rnas/1fyp

>  <Rbt.Executable>
rbdock ($Id: //depot/dev/client3/rdock/2013.1/src/exe/rbdock.cxx#4 $)

>  <Rbt.Library>
libRbt.so (2013.1, Build901 2013/11/27)

>  <Rbt.Parameter_File>
/export/apps/rDock/src/rDock_2013.1_src/data/scripts/dock_solv.prm

>  <Rbt.Receptor>
prm/pocket_docking_6.prm

>  <SCORE>
-35.7541

>  <SCORE.INTER>
-34.7744

>  <SCORE.INTER.CONST>
1

>  <SCORE.INTER.POLAR>
-4.14165

>  <SCORE.INTER.ROT>
14

>  <SCORE.INTER.SOLV>
14.2344

>  <SCORE.INTER.VDW>
-27.0556

>  <SCORE.INTER.norm>
-0.827963

>  <SCORE.INTRA>
-0.979688

>  <SCORE.INTRA.DIHEDRAL>
-15.7325

>  <SCORE.INTRA.DIHEDRAL.0>
48.7173

>  <SCORE.INTRA.POLAR>
-0.457817

>  <SCORE.INTRA.POLAR.0>
-1.54691

>  <SCORE.INTRA.REPUL>
0.054625

>  <SCORE.INTRA.REPUL.0>
0

>  <SCORE.INTRA.SOLV>
-0.336011

>  <SCORE.INTRA.SOLV.lig_0>
-64.052

>  <SCORE.INTRA.VDW>
8.33804

>  <SCORE.INTRA.VDW.0>
-7.0667

>  <SCORE.INTRA.norm>
-0.0233259

>  <SCORE.RESTR>
0

>  <SCORE.RESTR.CAVITY>
0

>  <SCORE.RESTR.norm>
0

>  <SCORE.SYSTEM>
0

>  <SCORE.SYSTEM.CONST>
0

>  <SCORE.SYSTEM.DIHEDRAL>
0

>  <SCORE.SYSTEM.SOLV>
0

>  <SCORE.SYSTEM.norm>
0

>  <SCORE.heavy>
42

>  <SCORE.norm>
-0.851289

>  <RMSD>
2.196

$$$$
1fyp_lig
 OpenBabel11021811393D
libRbt.so/2013.1/901 2013/11/27
 42 45  0  0  0  0  0  0  0  0999 V2000
    4.1766    5.0804   28.3442 C   0  0  2  0  0  0  0  0  0  0  0  0
    3.5146    6.3004   27.9018 O   0  0  0  0  0  0  0  0  0  0  0  0
    2.2829    8.0909   24.2252 C   0  0  2  0  0  0  0  0  0  0  0  0
    2.1946    8.7017   22.8859 N   0  0  0  0  0  0  0  0  0  0  0  0
    2.5352    3.5125   25.0559 C   0  0  1  0  0  0  0  0  0  0  0  0
    0.6780   -0.4620   24.7142 C   0  0  1  0  0  0  0  0  0  0  0  0
    4.7098    5.2165   29.8068 C   0  0  2  0  0  0  0  0  0  0  0  0
    3.6547    5.7072   30.7187 N   0  0  0  0  0  0  0  0  0  0  0  0
    3.2903    8.8812   25.0839 C   0  0  0  0  0  0  0  0  0  0  0  0
    3.3489    2.2160   25.0786 C   0  0  2  0  0  0  0  0  0  0  0  0
    3.7994    1.9122   23.7579 O   0  0  0  0  0  0  0  0  0  0  0  0
   -0.2674   -0.7751   23.5144 C   0  0  2  0  0  0  0  0  0  0  0  0
   -1.0028    0.4221   23.0389 N   0  0  0  0  0  0  0  0  0  0  0  0
    5.9529    6.1589   29.8600 C   0  0  1  0  0  0  0  0  0  0  0  0
    6.5225    6.1480   31.1666 O   0  0  0  0  0  0  0  0  0  0  0  0
    3.4140    8.3076   26.5220 C   0  0  2  0  0  0  0  0  0  0  0  0
    4.4560    9.0814   27.2285 N   0  0  0  0  0  0  0  0  0  0  0  0
    2.3079    1.2008   25.5583 C   0  0  2  0  0  0  0  0  0  0  0  0
    1.4727    0.7268   24.4654 O   0  0  0  0  0  0  0  0  0  0  0  0
   -1.2448   -1.9387   23.8661 C   0  0  1  0  0  0  0  0  0  0  0  0
   -0.5107   -3.1613   23.8719 O   0  0  0  0  0  0  0  0  0  0  0  0
    7.0424    5.7336   28.8440 C   0  0  2  0  0  0  0  0  0  0  0  0
    8.1039    6.6828   28.8759 O   0  0  0  0  0  0  0  0  0  0  0  0
    3.7307    6.7689   26.5397 C   0  0  2  0  0  0  0  0  0  0  0  0
    1.4804    2.0319   26.5487 C   0  0  2  0  0  0  0  0  0  0  0  0
    1.5054    3.3830   26.0492 O   0  0  0  0  0  0  0  0  0  0  0  0
   -1.9463   -1.7844   25.2495 C   0  0  2  0  0  0  0  0  0  0  0  0
   -2.9336   -0.7572   25.1460 O   0  0  0  0  0  0  0  0  0  0  0  0
    6.4389    5.6352   27.4142 C   0  0  2  0  0  0  0  0  0  0  0  0
    5.2842    4.7431   27.4428 O   0  0  0  0  0  0  0  0  0  0  0  0
    2.8218    5.9460   25.5564 C   0  0  2  0  0  0  0  0  0  0  0  0
    3.4071    4.6275   25.3973 O   0  0  0  0  0  0  0  0  0  0  0  0
    2.0351    1.9879   27.9836 C   0  0  0  0  0  0  0  0  0  0  0  0
    1.1848    2.6874   28.8754 O   0  0  0  0  0  0  0  0  0  0  0  0
   -0.9099   -1.4258   26.3593 C   0  0  1  0  0  0  0  0  0  0  0  0
   -0.1155   -0.2762   25.9354 O   0  0  0  0  0  0  0  0  0  0  0  0
    7.4010    5.0790   26.3409 C   0  0  0  0  0  0  0  0  0  0  0  0
    8.5602    5.8859   26.2205 O   0  0  0  0  0  0  0  0  0  0  0  0
    2.7005    6.6027   24.1462 C   0  0  1  0  0  0  0  0  0  0  0  0
    1.7297    5.8839   23.3869 O   0  0  0  0  0  0  0  0  0  0  0  0
   -1.5784   -1.1042   27.7205 C   0  0  0  0  0  0  0  0  0  0  0  0
   -2.4729    0.0652   27.6462 N   0  0  0  0  0  0  0  0  0  0  0  0
  1  2  1  6  0  0  0
  1  7  1  0  0  0  0
  1 30  1  0  0  0  0
  3  4  1  6  0  0  0
  3  9  1  0  0  0  0
  3 39  1  0  0  0  0
  5 10  1  0  0  0  0
  5 26  1  0  0  0  0
  5 32  1  1  0  0  0
  6 12  1  0  0  0  0
  6 36  1  0  0  0  0
  6 19  1  6  0  0  0
  7  8  1  1  0  0  0
  7 14  1  0  0  0  0
  9 16  1  0  0  0  0
 10 11  1  6  0  0  0
 10 18  1  0  0  0  0
 12 13  1  1  0  0  0
 12 20  1  0  0  0  0
 14 15  1  1  0  0  0
 14 22  1  0  0  0  0
 16 17  1  6  0  0  0
 16 24  1  0  0  0  0
 18 19  1  6  0  0  0
 18 25  1  0  0  0  0
 20 21  1  1  0  0  0
 20 27  1  0  0  0  0
 22 23  1  6  0  0  0
 22 29  1  0  0  0  0
 24  2  1  1  0  0  0
 24 31  1  0  0  0  0
 25 26  1  0  0  0  0
 25 33  1  1  0  0  0
 27 28  1  6  0  0  0
 27 35  1  0  0  0  0
 29 30  1  0  0  0  0
 29 37  1  6  0  0  0
 31 32  1  6  0  0  0
 31 39  1  0  0  0  0
 33 34  1  0  0  0  0
 35 36  1  0  0  0  0
 35 41  1  1  0  0  0
 37 38  1  0  0  0  0
 39 40  1  6  0  0  0
 41 42  1  0  0  0  0
M  END
>  <CHROM.1>
139.52128053,-157.52862906,-163.59338093,-154.54647891,-67.95226149,29.85019481
-74.32520269,-38.39943301,165.33225425,174.47216385,49.55357657,65.74065101
-175.71775644,-165.16459407,-59.60291696,153.26761399,-174.48528770,-169.16110528
-61.71852481,-55.35247211,84.25797363,-67.61942837,2.59540814,3.57633602
26.30328891,-0.36152756,0.84461688,2.35711436

>  <Name>
1fyp_lig

>  <RI>
0

>  <Rbt.Current_Directory>
/home/itssahil/PROJECTS/Mol_Feturizer/New_Systems/rnas/1fyp

>  <Rbt.Executable>
rbdock ($Id: //depot/dev/client3/rdock/2013.1/src/exe/rbdock.cxx#4 $)

>  <Rbt.Library>
libRbt.so (2013.1, Build901 2013/11/27)

>  <Rbt.Parameter_File>
/export/apps/rDock/src/rDock_2013.1_src/data/scripts/dock_solv.prm

>  <Rbt.Receptor>
prm/pocket_docking_3.prm

>  <SCORE>
-50.29

>  <SCORE.INTER>
-40.6214

>  <SCORE.INTER.CONST>
1

>  <SCORE.INTER.POLAR>
-5.83588

>  <SCORE.INTER.ROT>
14

>  <SCORE.INTER.SOLV>
23.329

>  <SCORE.INTER.VDW>
-28.3377

>  <SCORE.INTER.norm>
-0.967175

>  <SCORE.INTRA>
-9.94447

>  <SCORE.INTRA.DIHEDRAL>
-26.86

>  <SCORE.INTRA.DIHEDRAL.0>
48.7173

>  <SCORE.INTRA.POLAR>
0.32181

>  <SCORE.INTRA.POLAR.0>
-1.54691

>  <SCORE.INTRA.REPUL>
0

>  <SCORE.INTRA.REPUL.0>
0

>  <SCORE.INTRA.SOLV>
-2.05551

>  <SCORE.INTRA.SOLV.lig_0>
-64.052

>  <SCORE.INTRA.VDW>
3.41914

>  <SCORE.INTRA.VDW.0>
-7.0667

>  <SCORE.INTRA.norm>
-0.236773

>  <SCORE.RESTR>
0.275824

>  <SCORE.RESTR.CAVITY>
0.275824

>  <SCORE.RESTR.norm>
0.00656724

>  <SCORE.SYSTEM>
0

>  <SCORE.SYSTEM.CONST>
0

>  <SCORE.SYSTEM.DIHEDRAL>
0

>  <SCORE.SYSTEM.SOLV>
0

>  <SCORE.SYSTEM.norm>
0

>  <SCORE.heavy>
42

>  <SCORE.norm>
-1.19738

>  <RMSD>
2.216

$$$$
1fyp_lig
 OpenBabel11021811393D
libRbt.so/2013.1/901 2013/11/27
 42 45  0  0  0  0  0  0  0  0999 V2000
    7.1489    7.4736   27.4526 C   0  0  2  0  0  0  0  0  0  0  0  0
    7.4232    6.4975   26.4065 O   0  0  0  0  0  0  0  0  0  0  0  0
    4.3352    8.0037   23.8695 C   0  0  2  0  0  0  0  0  0  0  0  0
    3.4377    8.3471   22.7510 N   0  0  0  0  0  0  0  0  0  0  0  0
    3.9046    3.9770   25.4863 C   0  0  1  0  0  0  0  0  0  0  0  0
    0.8287    0.7613   25.5699 C   0  0  1  0  0  0  0  0  0  0  0  0
    8.4692    8.0321   28.0747 C   0  0  2  0  0  0  0  0  0  0  0  0
    9.3995    8.5017   27.0260 N   0  0  0  0  0  0  0  0  0  0  0  0
    5.7864    8.3606   23.4908 C   0  0  0  0  0  0  0  0  0  0  0  0
    4.1613    2.4783   25.3079 C   0  0  2  0  0  0  0  0  0  0  0  0
    4.1031    2.1461   23.9201 O   0  0  0  0  0  0  0  0  0  0  0  0
    0.2474    0.1278   24.2692 C   0  0  2  0  0  0  0  0  0  0  0  0
   -0.1897    1.1464   23.2835 N   0  0  0  0  0  0  0  0  0  0  0  0
    9.1607    6.9566   28.9698 C   0  0  1  0  0  0  0  0  0  0  0  0
   10.2729    7.5277   29.6542 O   0  0  0  0  0  0  0  0  0  0  0  0
    6.7866    8.0496   24.6377 C   0  0  2  0  0  0  0  0  0  0  0  0
    8.1467    8.3502   24.1444 N   0  0  0  0  0  0  0  0  0  0  0  0
    2.9872    1.8653   26.0760 C   0  0  2  0  0  0  0  0  0  0  0  0
    1.7797    1.8148   25.2661 O   0  0  0  0  0  0  0  0  0  0  0  0
   -0.9047   -0.8692   24.6036 C   0  0  1  0  0  0  0  0  0  0  0  0
   -0.3345   -2.0483   25.1676 O   0  0  0  0  0  0  0  0  0  0  0  0
    8.1857    6.3674   30.0198 C   0  0  2  0  0  0  0  0  0  0  0  0
    8.8473    5.3311   30.7388 O   0  0  0  0  0  0  0  0  0  0  0  0
    6.6783    6.5708   25.1570 C   0  0  2  0  0  0  0  0  0  0  0  0
    2.8151    2.8505   27.2406 C   0  0  2  0  0  0  0  0  0  0  0  0
    3.2007    4.1406   26.7279 O   0  0  0  0  0  0  0  0  0  0  0  0
   -1.9594   -0.3098   25.6059 C   0  0  2  0  0  0  0  0  0  0  0  0
   -2.7621    0.6578   24.9276 O   0  0  0  0  0  0  0  0  0  0  0  0
    6.9075    5.8205   29.3232 C   0  0  2  0  0  0  0  0  0  0  0  0
    6.3195    6.8766   28.5054 O   0  0  0  0  0  0  0  0  0  0  0  0
    5.1945    6.1181   25.4089 C   0  0  2  0  0  0  0  0  0  0  0  0
    5.1812    4.6739   25.5519 O   0  0  0  0  0  0  0  0  0  0  0  0
    3.6729    2.4906   28.4667 C   0  0  0  0  0  0  0  0  0  0  0  0
    3.2347    1.2763   29.0507 O   0  0  0  0  0  0  0  0  0  0  0  0
   -1.2605    0.3398   26.8403 C   0  0  1  0  0  0  0  0  0  0  0  0
   -0.2628    1.3051   26.3874 O   0  0  0  0  0  0  0  0  0  0  0  0
    5.7997    5.3385   30.2864 C   0  0  0  0  0  0  0  0  0  0  0  0
    5.8998    5.9779   31.5476 O   0  0  0  0  0  0  0  0  0  0  0  0
    4.2338    6.5048   24.2418 C   0  0  1  0  0  0  0  0  0  0  0  0
    2.8938    6.2094   24.6330 O   0  0  0  0  0  0  0  0  0  0  0  0
   -2.2601    1.0523   27.7871 C   0  0  0  0  0  0  0  0  0  0  0  0
   -2.5961    0.2368   28.9682 N   0  0  0  0  0  0  0  0  0  0  0  0
  1  2  1  6  0  0  0
  1  7  1  0  0  0  0
  1 30  1  0  0  0  0
  3  4  1  6  0  0  0
  3  9  1  0  0  0  0
  3 39  1  0  0  0  0
  5 10  1  0  0  0  0
  5 26  1  0  0  0  0
  5 32  1  1  0  0  0
  6 12  1  0  0  0  0
  6 36  1  0  0  0  0
  6 19  1  6  0  0  0
  7  8  1  6  0  0  0
  7 14  1  0  0  0  0
  9 16  1  0  0  0  0
 10 11  1  6  0  0  0
 10 18  1  0  0  0  0
 12 13  1  6  0  0  0
 12 20  1  0  0  0  0
 14 15  1  1  0  0  0
 14 22  1  0  0  0  0
 16 17  1  6  0  0  0
 16 24  1  0  0  0  0
 18 19  1  6  0  0  0
 18 25  1  0  0  0  0
 20 21  1  1  0  0  0
 20 27  1  0  0  0  0
 22 23  1  6  0  0  0
 22 29  1  0  0  0  0
 24  2  1  1  0  0  0
 24 31  1  0  0  0  0
 25 26  1  0  0  0  0
 25 33  1  1  0  0  0
 27 28  1  6  0  0  0
 27 35  1  0  0  0  0
 29 30  1  0  0  0  0
 29 37  1  1  0  0  0
 31 32  1  6  0  0  0
 31 39  1  0  0  0  0
 33 34  1  0  0  0  0
 35 36  1  0  0  0  0
 35 41  1  1  0  0  0
 37 38  1  0  0  0  0
 39 40  1  1  0  0  0
 41 42  1  0  0  0  0
M  END
>  <CHROM.1>
-135.25260795,51.11831276,-175.65007885,89.94349647,-82.73257473,75.37741502
-178.92633169,167.44670450,151.85132947,-138.61359473,65.98684673,-179.12486975
-66.52922862,-43.16545483,24.78003401,-166.05453873,165.92985006,-178.93402176
100.40873350,-178.06449123,-56.01617187,171.92787637,3.92179150,4.20754832
26.52702072,0.12934638,-0.69044402,-1.11626152

>  <Name>
1fyp_lig

>  <RI>
0

>  <Rbt.Current_Directory>
/home/itssahil/PROJECTS/Mol_Feturizer/New_Systems/rnas/1fyp

>  <Rbt.Executable>
rbdock ($Id: //depot/dev/client3/rdock/2013.1/src/exe/rbdock.cxx#4 $)

>  <Rbt.Library>
libRbt.so (2013.1, Build901 2013/11/27)

>  <Rbt.Parameter_File>
/export/apps/rDock/src/rDock_2013.1_src/data/scripts/dock_solv.prm

>  <Rbt.Receptor>
prm/pocket_docking_2.prm

>  <SCORE>
-44.4339

>  <SCORE.INTER>
-40.56

>  <SCORE.INTER.CONST>
1

>  <SCORE.INTER.POLAR>
-5.2224

>  <SCORE.INTER.ROT>
14

>  <SCORE.INTER.SOLV>
15.9095

>  <SCORE.INTER.VDW>
-27.8685

>  <SCORE.INTER.norm>
-0.965715

>  <SCORE.INTRA>
-7.17477

>  <SCORE.INTRA.DIHEDRAL>
-18.0453

>  <SCORE.INTRA.DIHEDRAL.0>
48.7173

>  <SCORE.INTRA.POLAR>
-0.59166

>  <SCORE.INTRA.POLAR.0>
-1.54691

>  <SCORE.INTRA.REPUL>
0

>  <SCORE.INTRA.REPUL.0>
0

>  <SCORE.INTRA.SOLV>
-2.3771

>  <SCORE.INTRA.SOLV.lig_0>
-64.052

>  <SCORE.INTRA.VDW>
5.04809

>  <SCORE.INTRA.VDW.0>
-7.0667

>  <SCORE.INTRA.norm>
-0.170828

>  <SCORE.RESTR>
3.30093

>  <SCORE.RESTR.CAVITY>
3.30093

>  <SCORE.RESTR.norm>
0.0785937

>  <SCORE.SYSTEM>
0

>  <SCORE.SYSTEM.CONST>
0

>  <SCORE.SYSTEM.DIHEDRAL>
0

>  <SCORE.SYSTEM.SOLV>
0

>  <SCORE.SYSTEM.norm>
0

>  <SCORE.heavy>
42

>  <SCORE.norm>
-1.05795

>  <RMSD>
2.218

$$$$
1fyp_lig
 OpenBabel11021811393D
libRbt.so/2013.1/901 2013/11/27
 42 45  0  0  0  0  0  0  0  0999 V2000
    6.4201    4.4484   27.3605 C   0  0  2  0  0  0  0  0  0  0  0  0
    5.1382    4.8903   26.8276 O   0  0  0  0  0  0  0  0  0  0  0  0
    3.8367    7.4074   23.6322 C   0  0  2  0  0  0  0  0  0  0  0  0
    3.6094    8.0891   22.3445 N   0  0  0  0  0  0  0  0  0  0  0  0
    1.9500    3.3284   25.3280 C   0  0  1  0  0  0  0  0  0  0  0  0
   -1.3420    0.4629   26.2198 C   0  0  1  0  0  0  0  0  0  0  0  0
    6.2405    3.6347   28.6825 C   0  0  2  0  0  0  0  0  0  0  0  0
    5.2406    2.5582   28.5181 N   0  0  0  0  0  0  0  0  0  0  0  0
    5.3438    7.4141   23.9571 C   0  0  0  0  0  0  0  0  0  0  0  0
    1.7246    1.8862   24.8665 C   0  0  2  0  0  0  0  0  0  0  0  0
    0.9017    1.8818   23.6993 O   0  0  0  0  0  0  0  0  0  0  0  0
   -2.6781    0.6802   25.4460 C   0  0  2  0  0  0  0  0  0  0  0  0
   -3.2465    2.0341   25.6563 N   0  0  0  0  0  0  0  0  0  0  0  0
    5.8368    4.5731   29.8626 C   0  0  1  0  0  0  0  0  0  0  0  0
    5.8321    3.8466   31.0890 O   0  0  0  0  0  0  0  0  0  0  0  0
    5.6546    6.7338   25.3184 C   0  0  2  0  0  0  0  0  0  0  0  0
    7.1220    6.7222   25.4926 N   0  0  0  0  0  0  0  0  0  0  0  0
    0.9897    1.2839   26.0672 C   0  0  2  0  0  0  0  0  0  0  0  0
   -0.4343    1.5799   26.0324 O   0  0  0  0  0  0  0  0  0  0  0  0
   -3.7132   -0.4311   25.8015 C   0  0  1  0  0  0  0  0  0  0  0  0
   -3.3086   -1.6455   25.1729 O   0  0  0  0  0  0  0  0  0  0  0  0
    6.8081    5.7718   30.0039 C   0  0  2  0  0  0  0  0  0  0  0  0
    6.3341    6.6356   31.0325 O   0  0  0  0  0  0  0  0  0  0  0  0
    5.0521    5.2871   25.4289 C   0  0  2  0  0  0  0  0  0  0  0  0
    1.6610    1.9997   27.2476 C   0  0  2  0  0  0  0  0  0  0  0  0
    2.0256    3.3065   26.7625 O   0  0  0  0  0  0  0  0  0  0  0  0
   -3.8599   -0.6986   27.3302 C   0  0  2  0  0  0  0  0  0  0  0  0
   -4.5724    0.3923   27.9158 O   0  0  0  0  0  0  0  0  0  0  0  0
    6.9212    6.5373   28.6551 C   0  0  2  0  0  0  0  0  0  0  0  0
    7.2979    5.5990   27.6027 O   0  0  0  0  0  0  0  0  0  0  0  0
    3.5546    5.2106   24.9579 C   0  0  2  0  0  0  0  0  0  0  0  0
    3.2085    3.8125   24.7789 O   0  0  0  0  0  0  0  0  0  0  0  0
    2.9071    1.2628   27.7700 C   0  0  0  0  0  0  0  0  0  0  0  0
    2.5929    0.4876   28.9137 O   0  0  0  0  0  0  0  0  0  0  0  0
   -2.4604   -0.8511   28.0028 C   0  0  1  0  0  0  0  0  0  0  0  0
   -1.6201    0.2902   27.6509 O   0  0  0  0  0  0  0  0  0  0  0  0
    7.9742    7.6678   28.6371 C   0  0  0  0  0  0  0  0  0  0  0  0
    7.5692    8.7616   29.4429 O   0  0  0  0  0  0  0  0  0  0  0  0
    3.3016    5.9553   23.6103 C   0  0  1  0  0  0  0  0  0  0  0  0
    1.8981    5.9776   23.3544 O   0  0  0  0  0  0  0  0  0  0  0  0
   -2.5473   -0.9580   29.5468 C   0  0  0  0  0  0  0  0  0  0  0  0
   -2.7503    0.3520   30.1915 N   0  0  0  0  0  0  0  0  0  0  0  0
  1  2  1  1  0  0  0
  1  7  1  0  0  0  0
  1 30  1  0  0  0  0
  3  4  1  6  0  0  0
  3  9  1  0  0  0  0
  3 39  1  0  0  0  0
  5 10  1  0  0  0  0
  5 26  1  0  0  0  0
  5 32  1  6  0  0  0
  6 12  1  0  0  0  0
  6 36  1  0  0  0  0
  6 19  1  1  0  0  0
  7  8  1  6  0  0  0
  7 14  1  0  0  0  0
  9 16  1  0  0  0  0
 10 11  1  6  0  0  0
 10 18  1  0  0  0  0
 12 13  1  1  0  0  0
 12 20  1  0  0  0  0
 14 15  1  1  0  0  0
 14 22  1  0  0  0  0
 16 17  1  6  0  0  0
 16 24  1  0  0  0  0
 18 19  1  6  0  0  0
 18 25  1  0  0  0  0
 20 21  1  6  0  0  0
 20 27  1  0  0  0  0
 22 23  1  1  0  0  0
 22 29  1  0  0  0  0
 24  2  1  1  0  0  0
 24 31  1  0  0  0  0
 25 26  1  0  0  0  0
 25 33  1  6  0  0  0
 27 28  1  1  0  0  0
 27 35  1  0  0  0  0
 29 30  1  0  0  0  0
 29 37  1  1  0  0  0
 31 32  1  6  0  0  0
 31 39  1  0  0  0  0
 33 34  1  0  0  0  0
 35 36  1  0  0  0  0
 35 41  1  1  0  0  0
 37 38  1  0  0  0  0
 39 40  1  1  0  0  0
 41 42  1  0  0  0  0
M  END
>  <CHROM.1>
-161.12304172,-77.81841674,-165.48067942,53.87035943,179.97109236,163.07496825
-51.33285102,-55.89674749,130.35412432,-149.29743601,64.06857364,-167.54544843
-98.62554541,66.07179263,-70.19754947,133.83752833,172.96520251,49.76224371
-78.54653021,-169.65923308,76.29095806,157.46489088,2.42058456,3.43593422
26.83982821,-0.22391521,0.58900687,2.03427685

>  <Name>
1fyp_lig

>  <RI>
0

>  <Rbt.Current_Directory>
/home/itssahil/PROJECTS/Mol_Feturizer/New_Systems/rnas/1fyp

>  <Rbt.Executable>
rbdock ($Id: //depot/dev/client3/rdock/2013.1/src/exe/rbdock.cxx#4 $)

>  <Rbt.Library>
libRbt.so (2013.1, Build901 2013/11/27)

>  <Rbt.Parameter_File>
/export/apps/rDock/src/rDock_2013.1_src/data/scripts/dock_solv.prm

>  <Rbt.Receptor>
prm/pocket_docking_3.prm

>  <SCORE>
-48.1437

>  <SCORE.INTER>
-41.9887

>  <SCORE.INTER.CONST>
1

>  <SCORE.INTER.POLAR>
-4.87054

>  <SCORE.INTER.ROT>
14

>  <SCORE.INTER.SOLV>
20.4706

>  <SCORE.INTER.VDW>
-31.5142

>  <SCORE.INTER.norm>
-0.999731

>  <SCORE.INTRA>
-6.15498

>  <SCORE.INTRA.DIHEDRAL>
-17.9034

>  <SCORE.INTRA.DIHEDRAL.0>
48.7173

>  <SCORE.INTRA.POLAR>
-0.0352283

>  <SCORE.INTRA.POLAR.0>
-1.54691

>  <SCORE.INTRA.REPUL>
0.106871

>  <SCORE.INTRA.REPUL.0>
0

>  <SCORE.INTRA.SOLV>
-1.29302

>  <SCORE.INTRA.SOLV.lig_0>
-64.052

>  <SCORE.INTRA.VDW>
3.02868

>  <SCORE.INTRA.VDW.0>
-7.0667

>  <SCORE.INTRA.norm>
-0.146547

>  <SCORE.RESTR>
0

>  <SCORE.RESTR.CAVITY>
0

>  <SCORE.RESTR.norm>
0

>  <SCORE.SYSTEM>
0

>  <SCORE.SYSTEM.CONST>
0

>  <SCORE.SYSTEM.DIHEDRAL>
0

>  <SCORE.SYSTEM.SOLV>
0

>  <SCORE.SYSTEM.norm>
0

>  <SCORE.heavy>
42

>  <SCORE.norm>
-1.14628

>  <RMSD>
2.243

$$$$
1fyp_lig
 OpenBabel11021811393D
libRbt.so/2013.1/901 2013/11/27
 42 45  0  0  0  0  0  0  0  0999 V2000
    7.4890    7.7972   27.0299 C   0  0  2  0  0  0  0  0  0  0  0  0
    7.3627    6.6523   26.1379 O   0  0  0  0  0  0  0  0  0  0  0  0
    3.6552    7.9762   24.4818 C   0  0  2  0  0  0  0  0  0  0  0  0
    2.4744    8.2441   23.6402 N   0  0  0  0  0  0  0  0  0  0  0  0
    3.8207    3.9649   25.8143 C   0  0  1  0  0  0  0  0  0  0  0  0
    0.9081    0.6460   25.6244 C   0  0  1  0  0  0  0  0  0  0  0  0
    8.9858    8.1868   27.2528 C   0  0  2  0  0  0  0  0  0  0  0  0
    9.7000    8.3297   25.9662 N   0  0  0  0  0  0  0  0  0  0  0  0
    4.9350    8.3233   23.6954 C   0  0  0  0  0  0  0  0  0  0  0  0
    4.2169    2.4927   25.6754 C   0  0  2  0  0  0  0  0  0  0  0  0
    4.3649    2.1667   24.2929 O   0  0  0  0  0  0  0  0  0  0  0  0
    0.2197    0.1317   24.3234 C   0  0  2  0  0  0  0  0  0  0  0  0
   -0.1847    1.2339   23.4168 N   0  0  0  0  0  0  0  0  0  0  0  0
    9.7048    7.1376   28.1575 C   0  0  1  0  0  0  0  0  0  0  0  0
   11.0184    7.5860   28.4818 O   0  0  0  0  0  0  0  0  0  0  0  0
    6.2215    8.0903   24.5339 C   0  0  2  0  0  0  0  0  0  0  0  0
    7.3834    8.3734   23.6659 N   0  0  0  0  0  0  0  0  0  0  0  0
    3.0061    1.7830   26.2875 C   0  0  2  0  0  0  0  0  0  0  0  0
    1.9211    1.6425   25.3286 O   0  0  0  0  0  0  0  0  0  0  0  0
   -0.9879   -0.7954   24.6630 C   0  0  1  0  0  0  0  0  0  0  0  0
   -0.4831   -2.0433   25.1337 O   0  0  0  0  0  0  0  0  0  0  0  0
    8.9305    6.8866   29.4758 C   0  0  2  0  0  0  0  0  0  0  0  0
    9.5849    5.8567   30.2105 O   0  0  0  0  0  0  0  0  0  0  0  0
    6.2990    6.6442   25.1430 C   0  0  2  0  0  0  0  0  0  0  0  0
    2.6073    2.7432   27.4168 C   0  0  2  0  0  0  0  0  0  0  0  0
    2.9518    4.0634   26.9540 O   0  0  0  0  0  0  0  0  0  0  0  0
   -1.9486   -0.2180   25.7463 C   0  0  2  0  0  0  0  0  0  0  0  0
   -2.7065    0.8428   25.1623 O   0  0  0  0  0  0  0  0  0  0  0  0
    7.4581    6.4903   29.1704 C   0  0  2  0  0  0  0  0  0  0  0  0
    6.8540    7.5123   28.3217 O   0  0  0  0  0  0  0  0  0  0  0  0
    4.9551    6.1938   25.8221 C   0  0  2  0  0  0  0  0  0  0  0  0
    5.0186    4.7606   26.0419 O   0  0  0  0  0  0  0  0  0  0  0  0
    3.3256    2.4439   28.7447 C   0  0  0  0  0  0  0  0  0  0  0  0
    4.7318    2.4507   28.5709 O   0  0  0  0  0  0  0  0  0  0  0  0
   -1.1450    0.3075   26.9760 C   0  0  1  0  0  0  0  0  0  0  0  0
   -0.0991    1.2212   26.5244 O   0  0  0  0  0  0  0  0  0  0  0  0
    6.5514    6.3557   30.4141 C   0  0  0  0  0  0  0  0  0  0  0  0
    5.2428    5.9452   30.0553 O   0  0  0  0  0  0  0  0  0  0  0  0
    3.6990    6.5013   24.9490 C   0  0  1  0  0  0  0  0  0  0  0  0
    2.5280    6.2175   25.7131 O   0  0  0  0  0  0  0  0  0  0  0  0
   -2.0417    1.0365   28.0093 C   0  0  0  0  0  0  0  0  0  0  0  0
   -3.0419    0.1410   28.6180 N   0  0  0  0  0  0  0  0  0  0  0  0
  1  2  1  6  0  0  0
  1  7  1  0  0  0  0
  1 30  1  0  0  0  0
  3  4  1  6  0  0  0
  3  9  1  0  0  0  0
  3 39  1  0  0  0  0
  5 10  1  0  0  0  0
  5 26  1  0  0  0  0
  5 32  1  1  0  0  0
  6 12  1  0  0  0  0
  6 36  1  0  0  0  0
  6 19  1  6  0  0  0
  7  8  1  6  0  0  0
  7 14  1  0  0  0  0
  9 16  1  0  0  0  0
 10 11  1  6  0  0  0
 10 18  1  0  0  0  0
 12 13  1  1  0  0  0
 12 20  1  0  0  0  0
 14 15  1  1  0  0  0
 14 22  1  0  0  0  0
 16 17  1  6  0  0  0
 16 24  1  0  0  0  0
 18 19  1  6  0  0  0
 18 25  1  0  0  0  0
 20 21  1  1  0  0  0
 20 27  1  0  0  0  0
 22 23  1  6  0  0  0
 22 29  1  0  0  0  0
 24  2  1  1  0  0  0
 24 31  1  0  0  0  0
 25 26  1  0  0  0  0
 25 33  1  1  0  0  0
 27 28  1  6  0  0  0
 27 35  1  0  0  0  0
 29 30  1  0  0  0  0
 29 37  1  1  0  0  0
 31 32  1  6  0  0  0
 31 39  1  0  0  0  0
 33 34  1  0  0  0  0
 35 36  1  0  0  0  0
 35 41  1  1  0  0  0
 37 38  1  0  0  0  0
 39 40  1  1  0  0  0
 41 42  1  0  0  0  0
M  END
>  <CHROM.1>
-139.70946396,41.48807383,-77.50325181,10.70245360,108.28256133,163.20853541
62.11412244,-9.56212325,161.15442522,-153.97434483,-38.03569235,64.42298348
55.67117818,-82.85773717,-177.83395503,-140.49284562,162.41607493,-168.02423251
63.82921908,-58.87297248,66.93792115,-162.43656977,3.93989817,4.33447458
26.47836152,0.26277889,-0.63761607,-0.94689847

>  <Name>
1fyp_lig

>  <RI>
0

>  <Rbt.Current_Directory>
/home/itssahil/PROJECTS/Mol_Feturizer/New_Systems/rnas/1fyp

>  <Rbt.Executable>
rbdock ($Id: //depot/dev/client3/rdock/2013.1/src/exe/rbdock.cxx#4 $)

>  <Rbt.Library>
libRbt.so (2013.1, Build901 2013/11/27)

>  <Rbt.Parameter_File>
/export/apps/rDock/src/rDock_2013.1_src/data/scripts/dock_solv.prm

>  <Rbt.Receptor>
prm/pocket_docking_2.prm

>  <SCORE>
-43.1395

>  <SCORE.INTER>
-49.5104

>  <SCORE.INTER.CONST>
1

>  <SCORE.INTER.POLAR>
-5.90331

>  <SCORE.INTER.ROT>
14

>  <SCORE.INTER.SOLV>
15.914

>  <SCORE.INTER.VDW>
-31.5672

>  <SCORE.INTER.norm>
-1.17882

>  <SCORE.INTRA>
3.83873

>  <SCORE.INTRA.DIHEDRAL>
-12.2044

>  <SCORE.INTRA.DIHEDRAL.0>
48.7173

>  <SCORE.INTRA.POLAR>
0.642796

>  <SCORE.INTRA.POLAR.0>
-1.54691

>  <SCORE.INTRA.REPUL>
0.0437639

>  <SCORE.INTRA.REPUL.0>
0

>  <SCORE.INTRA.SOLV>
-1.4269

>  <SCORE.INTRA.SOLV.lig_0>
-64.052

>  <SCORE.INTRA.VDW>
8.25007

>  <SCORE.INTRA.VDW.0>
-7.0667

>  <SCORE.INTRA.norm>
0.0913982

>  <SCORE.RESTR>
2.5322

>  <SCORE.RESTR.CAVITY>
2.5322

>  <SCORE.RESTR.norm>
0.0602904

>  <SCORE.SYSTEM>
0

>  <SCORE.SYSTEM.CONST>
0

>  <SCORE.SYSTEM.DIHEDRAL>
0

>  <SCORE.SYSTEM.SOLV>
0

>  <SCORE.SYSTEM.norm>
0

>  <SCORE.heavy>
42

>  <SCORE.norm>
-1.02713

>  <RMSD>
2.251

$$$$
1fyp_lig
 OpenBabel11021811393D
libRbt.so/2013.1/901 2013/11/27
 42 45  0  0  0  0  0  0  0  0999 V2000
    7.5597    6.2806   26.8159 C   0  0  2  0  0  0  0  0  0  0  0  0
    7.1347    7.4505   26.0589 O   0  0  0  0  0  0  0  0  0  0  0  0
    4.4668    8.3974   22.8609 C   0  0  2  0  0  0  0  0  0  0  0  0
    3.7426    8.5034   21.5808 N   0  0  0  0  0  0  0  0  0  0  0  0
    3.7184    4.7811   25.1883 C   0  0  1  0  0  0  0  0  0  0  0  0
    0.2903    2.1123   25.9040 C   0  0  1  0  0  0  0  0  0  0  0  0
    7.0317    6.3272   28.2859 C   0  0  2  0  0  0  0  0  0  0  0  0
    5.5770    6.5879   28.3252 N   0  0  0  0  0  0  0  0  0  0  0  0
    5.9646    8.6791   22.6277 C   0  0  0  0  0  0  0  0  0  0  0  0
    3.8669    3.3879   25.8052 C   0  0  2  0  0  0  0  0  0  0  0  0
    4.1484    2.4380   24.7766 O   0  0  0  0  0  0  0  0  0  0  0  0
    0.4789    1.4800   27.3167 C   0  0  2  0  0  0  0  0  0  0  0  0
    1.6822    0.6167   27.4004 N   0  0  0  0  0  0  0  0  0  0  0  0
    7.7973    7.4030   29.1181 C   0  0  1  0  0  0  0  0  0  0  0  0
    7.4182    7.3251   30.4899 O   0  0  0  0  0  0  0  0  0  0  0  0
    6.7873    8.6110   23.9433 C   0  0  2  0  0  0  0  0  0  0  0  0
    8.2095    8.8139   23.5973 N   0  0  0  0  0  0  0  0  0  0  0  0
    2.4770    3.1612   26.4061 C   0  0  2  0  0  0  0  0  0  0  0  0
    1.5298    2.6838   25.4104 O   0  0  0  0  0  0  0  0  0  0  0  0
   -0.8040    0.7091   27.7562 C   0  0  1  0  0  0  0  0  0  0  0  0
   -1.8121    1.6603   28.0913 O   0  0  0  0  0  0  0  0  0  0  0  0
    9.3329    7.2218   29.0203 C   0  0  2  0  0  0  0  0  0  0  0  0
    9.9721    8.2845   29.7210 O   0  0  0  0  0  0  0  0  0  0  0  0
    6.5736    7.2665   24.7275 C   0  0  2  0  0  0  0  0  0  0  0  0
    2.0973    4.5711   26.8799 C   0  0  2  0  0  0  0  0  0  0  0  0
    2.7286    5.4815   25.9587 O   0  0  0  0  0  0  0  0  0  0  0  0
   -1.3775   -0.2458   26.6657 C   0  0  2  0  0  0  0  0  0  0  0  0
   -0.5208   -1.3842   26.5627 O   0  0  0  0  0  0  0  0  0  0  0  0
    9.7806    7.2006   27.5312 C   0  0  2  0  0  0  0  0  0  0  0  0
    9.0234    6.1766   26.8187 O   0  0  0  0  0  0  0  0  0  0  0  0
    5.0591    6.8654   24.8522 C   0  0  2  0  0  0  0  0  0  0  0  0
    4.9928    5.4794   25.2780 O   0  0  0  0  0  0  0  0  0  0  0  0
    2.5586    4.8687   28.3177 C   0  0  0  0  0  0  0  0  0  0  0  0
    1.7715    4.1585   29.2578 O   0  0  0  0  0  0  0  0  0  0  0  0
   -1.4754    0.4812   25.2887 C   0  0  1  0  0  0  0  0  0  0  0  0
   -0.1892    1.0917   24.9638 O   0  0  0  0  0  0  0  0  0  0  0  0
   11.2756    6.8807   27.3079 C   0  0  0  0  0  0  0  0  0  0  0  0
   12.1018    7.9421   27.7554 O   0  0  0  0  0  0  0  0  0  0  0  0
    4.2800    7.0036   23.5074 C   0  0  1  0  0  0  0  0  0  0  0  0
    2.8922    6.7853   23.7562 O   0  0  0  0  0  0  0  0  0  0  0  0
   -1.8880   -0.4714   24.1374 C   0  0  0  0  0  0  0  0  0  0  0  0
   -2.4742    0.2493   22.9928 N   0  0  0  0  0  0  0  0  0  0  0  0
  1  2  1  6  0  0  0
  1  7  1  0  0  0  0
  1 30  1  0  0  0  0
  3  4  1  6  0  0  0
  3  9  1  0  0  0  0
  3 39  1  0  0  0  0
  5 10  1  0  0  0  0
  5 26  1  0  0  0  0
  5 32  1  1  0  0  0
  6 12  1  0  0  0  0
  6 36  1  0  0  0  0
  6 19  1  6  0  0  0
  7  8  1  6  0  0  0
  7 14  1  0  0  0  0
  9 16  1  0  0  0  0
 10 11  1  6  0  0  0
 10 18  1  0  0  0  0
 12 13  1  6  0  0  0
 12 20  1  0  0  0  0
 14 15  1  1  0  0  0
 14 22  1  0  0  0  0
 16 17  1  6  0  0  0
 16 24  1  0  0  0  0
 18 19  1  6  0  0  0
 18 25  1  0  0  0  0
 20 21  1  6  0  0  0
 20 27  1  0  0  0  0
 22 23  1  1  0  0  0
 22 29  1  0  0  0  0
 24  2  1  1  0  0  0
 24 31  1  0  0  0  0
 25 26  1  0  0  0  0
 25 33  1  1  0  0  0
 27 28  1  6  0  0  0
 27 35  1  0  0  0  0
 29 30  1  0  0  0  0
 29 37  1  1  0  0  0
 31 32  1  6  0  0  0
 31 39  1  0  0  0  0
 33 34  1  0  0  0  0
 35 36  1  0  0  0  0
 35 41  1  6  0  0  0
 37 38  1  0  0  0  0
 39 40  1  1  0  0  0
 41 42  1  0  0  0  0
M  END
>  <CHROM.1>
-133.08632162,-156.07515988,175.89397414,136.76652263,176.16106548,-10.14938343
-168.50850235,-72.02109309,164.78982024,-28.36625030,-61.49555894,69.21687694
-72.54047445,-44.51595838,-69.42457431,-166.78303258,-174.99148049,-95.57739928
158.02303370,-56.98633962,-57.69377560,85.82897328,4.14196662,4.84009534
26.19302671,-0.21544720,0.60789515,2.08018211

>  <Name>
1fyp_lig

>  <RI>
0

>  <Rbt.Current_Directory>
/home/itssahil/PROJECTS/Mol_Feturizer/New_Systems/rnas/1fyp

>  <Rbt.Executable>
rbdock ($Id: //depot/dev/client3/rdock/2013.1/src/exe/rbdock.cxx#4 $)

>  <Rbt.Library>
libRbt.so (2013.1, Build901 2013/11/27)

>  <Rbt.Parameter_File>
/export/apps/rDock/src/rDock_2013.1_src/data/scripts/dock_solv.prm

>  <Rbt.Receptor>
prm/pocket_docking_3.prm

>  <SCORE>
-41.7864

>  <SCORE.INTER>
-40.3904

>  <SCORE.INTER.CONST>
1

>  <SCORE.INTER.POLAR>
-4.33186

>  <SCORE.INTER.ROT>
14

>  <SCORE.INTER.SOLV>
14.1581

>  <SCORE.INTER.VDW>
-30.1401

>  <SCORE.INTER.norm>
-0.961676

>  <SCORE.INTRA>
-1.39596

>  <SCORE.INTRA.DIHEDRAL>
-18.3863

>  <SCORE.INTRA.DIHEDRAL.0>
48.7173

>  <SCORE.INTRA.POLAR>
0.86541

>  <SCORE.INTRA.POLAR.0>
-1.54691

>  <SCORE.INTRA.REPUL>
0

>  <SCORE.INTRA.REPUL.0>
0

>  <SCORE.INTRA.SOLV>
-1.57477

>  <SCORE.INTRA.SOLV.lig_0>
-64.052

>  <SCORE.INTRA.VDW>
5.6422

>  <SCORE.INTRA.VDW.0>
-7.0667

>  <SCORE.INTRA.norm>
-0.0332372

>  <SCORE.RESTR>
0

>  <SCORE.RESTR.CAVITY>
0

>  <SCORE.RESTR.norm>
0

>  <SCORE.SYSTEM>
0

>  <SCORE.SYSTEM.CONST>
0

>  <SCORE.SYSTEM.DIHEDRAL>
0

>  <SCORE.SYSTEM.SOLV>
0

>  <SCORE.SYSTEM.norm>
0

>  <SCORE.heavy>
42

>  <SCORE.norm>
-0.994913

>  <RMSD>
2.261

$$$$
1fyp_lig
 OpenBabel11021811393D
libRbt.so/2013.1/901 2013/11/27
 42 45  0  0  0  0  0  0  0  0999 V2000
    6.2315    4.9697   29.0745 C   0  0  2  0  0  0  0  0  0  0  0  0
    4.9864    5.6871   28.8350 O   0  0  0  0  0  0  0  0  0  0  0  0
    2.6489    7.0457   25.5288 C   0  0  2  0  0  0  0  0  0  0  0  0
    1.9293    7.2104   24.2522 N   0  0  0  0  0  0  0  0  0  0  0  0
    1.7560    3.4629   27.6030 C   0  0  1  0  0  0  0  0  0  0  0  0
    0.8293   -0.0686   25.8139 C   0  0  1  0  0  0  0  0  0  0  0  0
    6.4036    4.6107   30.5857 C   0  0  2  0  0  0  0  0  0  0  0  0
    5.1978    3.9416   31.1186 N   0  0  0  0  0  0  0  0  0  0  0  0
    4.1235    6.6966   25.2450 C   0  0  0  0  0  0  0  0  0  0  0  0
    2.9455    2.8825   26.8336 C   0  0  2  0  0  0  0  0  0  0  0  0
    2.9975    3.4604   25.5287 O   0  0  0  0  0  0  0  0  0  0  0  0
    0.2874   -0.5429   24.4310 C   0  0  2  0  0  0  0  0  0  0  0  0
   -0.2707    0.5694   23.6238 N   0  0  0  0  0  0  0  0  0  0  0  0
    6.7322    5.8842   31.4259 C   0  0  1  0  0  0  0  0  0  0  0  0
    7.0423    5.5208   32.7689 O   0  0  0  0  0  0  0  0  0  0  0  0
    4.9508    6.5348   26.5495 C   0  0  2  0  0  0  0  0  0  0  0  0
    6.3184    6.1244   26.1688 N   0  0  0  0  0  0  0  0  0  0  0  0
    2.5827    1.3964   26.7695 C   0  0  2  0  0  0  0  0  0  0  0  0
    1.6628    1.1119   25.6789 O   0  0  0  0  0  0  0  0  0  0  0  0
   -0.7513   -1.6934   24.6061 C   0  0  1  0  0  0  0  0  0  0  0  0
   -0.0537   -2.8825   24.9706 O   0  0  0  0  0  0  0  0  0  0  0  0
    7.9322    6.6685   30.8383 C   0  0  2  0  0  0  0  0  0  0  0  0
    8.1211    7.8625   31.5915 O   0  0  0  0  0  0  0  0  0  0  0  0
    4.3062    5.5175   27.5583 C   0  0  2  0  0  0  0  0  0  0  0  0
    1.8978    1.1736   28.1251 C   0  0  2  0  0  0  0  0  0  0  0  0
    1.2512    2.4191   28.4514 O   0  0  0  0  0  0  0  0  0  0  0  0
   -1.8356   -1.4123   25.6902 C   0  0  2  0  0  0  0  0  0  0  0  0
   -2.7457   -0.4365   25.1800 O   0  0  0  0  0  0  0  0  0  0  0  0
    7.6793    7.0005   29.3403 C   0  0  2  0  0  0  0  0  0  0  0  0
    7.3771    5.7668   28.6215 O   0  0  0  0  0  0  0  0  0  0  0  0
    2.7639    5.7465   27.7563 C   0  0  2  0  0  0  0  0  0  0  0  0
    2.2154    4.5777   28.4191 O   0  0  0  0  0  0  0  0  0  0  0  0
    2.8824    0.7805   29.2408 C   0  0  0  0  0  0  0  0  0  0  0  0
    3.7947    1.8325   29.5031 O   0  0  0  0  0  0  0  0  0  0  0  0
   -1.1798   -0.8994   27.0097 C   0  0  1  0  0  0  0  0  0  0  0  0
   -0.2939    0.2230   26.7132 O   0  0  0  0  0  0  0  0  0  0  0  0
    8.8728    7.6564   28.6107 C   0  0  0  0  0  0  0  0  0  0  0  0
    8.9124    7.2782   27.2451 O   0  0  0  0  0  0  0  0  0  0  0  0
    2.0012    5.9510   26.4106 C   0  0  1  0  0  0  0  0  0  0  0  0
    0.6530    6.3187   26.6982 O   0  0  0  0  0  0  0  0  0  0  0  0
   -2.2257   -0.4534   28.0634 C   0  0  0  0  0  0  0  0  0  0  0  0
   -2.2189   -1.3114   29.2620 N   0  0  0  0  0  0  0  0  0  0  0  0
  1  2  1  1  0  0  0
  1  7  1  0  0  0  0
  1 30  1  0  0  0  0
  3  4  1  6  0  0  0
  3  9  1  0  0  0  0
  3 39  1  0  0  0  0
  5 10  1  0  0  0  0
  5 26  1  0  0  0  0
  5 32  1  1  0  0  0
  6 12  1  0  0  0  0
  6 36  1  0  0  0  0
  6 19  1  6  0  0  0
  7  8  1  1  0  0  0
  7 14  1  0  0  0  0
  9 16  1  0  0  0  0
 10 11  1  6  0  0  0
 10 18  1  0  0  0  0
 12 13  1  1  0  0  0
 12 20  1  0  0  0  0
 14 15  1  1  0  0  0
 14 22  1  0  0  0  0
 16 17  1  6  0  0  0
 16 24  1  0  0  0  0
 18 19  1  6  0  0  0
 18 25  1  0  0  0  0
 20 21  1  1  0  0  0
 20 27  1  0  0  0  0
 22 23  1  1  0  0  0
 22 29  1  0  0  0  0
 24  2  1  1  0  0  0
 24 31  1  0  0  0  0
 25 26  1  0  0  0  0
 25 33  1  1  0  0  0
 27 28  1  6  0  0  0
 27 35  1  0  0  0  0
 29 30  1  0  0  0  0
 29 37  1  6  0  0  0
 31 32  1  6  0  0  0
 31 39  1  0  0  0  0
 33 34  1  0  0  0  0
 35 36  1  0  0  0  0
 35 41  1  1  0  0  0
 37 38  1  0  0  0  0
 39 40  1  1  0  0  0
 41 42  1  0  0  0  0
M  END
>  <CHROM.1>
-148.61687428,-85.19693917,96.39790468,-43.64608957,-64.90692778,-35.82013862
-175.46199663,-168.85880846,-155.53268045,-159.77291287,-175.73397570,-65.76522130
64.41680723,178.93667100,147.60492331,-88.49733484,63.13094195,-68.28577952
114.30656215,42.41743066,176.24428234,-63.30073690,3.05748516,3.43494720
27.57565848,-0.18395667,0.77380550,2.26861451

>  <Name>
1fyp_lig

>  <RI>
0

>  <Rbt.Current_Directory>
/home/itssahil/PROJECTS/Mol_Feturizer/New_Systems/rnas/1fyp

>  <Rbt.Executable>
rbdock ($Id: //depot/dev/client3/rdock/2013.1/src/exe/rbdock.cxx#4 $)

>  <Rbt.Library>
libRbt.so (2013.1, Build901 2013/11/27)

>  <Rbt.Parameter_File>
/export/apps/rDock/src/rDock_2013.1_src/data/scripts/dock_solv.prm

>  <Rbt.Receptor>
prm/pocket_docking_6.prm

>  <SCORE>
-47.3832

>  <SCORE.INTER>
-38.5319

>  <SCORE.INTER.CONST>
1

>  <SCORE.INTER.POLAR>
-4.90128

>  <SCORE.INTER.ROT>
14

>  <SCORE.INTER.SOLV>
14.7005

>  <SCORE.INTER.VDW>
-27.1838

>  <SCORE.INTER.norm>
-0.917425

>  <SCORE.INTRA>
-8.89961

>  <SCORE.INTRA.DIHEDRAL>
-20.7343

>  <SCORE.INTRA.DIHEDRAL.0>
48.7173

>  <SCORE.INTRA.POLAR>
-1.27425

>  <SCORE.INTRA.POLAR.0>
-1.54691

>  <SCORE.INTRA.REPUL>
0

>  <SCORE.INTRA.REPUL.0>
0

>  <SCORE.INTRA.SOLV>
1.37775

>  <SCORE.INTRA.SOLV.lig_0>
-64.052

>  <SCORE.INTRA.VDW>
5.11113

>  <SCORE.INTRA.VDW.0>
-7.0667

>  <SCORE.INTRA.norm>
-0.211896

>  <SCORE.RESTR>
0.0482383

>  <SCORE.RESTR.CAVITY>
0.0482383

>  <SCORE.RESTR.norm>
0.00114853

>  <SCORE.SYSTEM>
0

>  <SCORE.SYSTEM.CONST>
0

>  <SCORE.SYSTEM.DIHEDRAL>
0

>  <SCORE.SYSTEM.SOLV>
0

>  <SCORE.SYSTEM.norm>
0

>  <SCORE.heavy>
42

>  <SCORE.norm>
-1.12817

>  <RMSD>
2.264

$$$$
1fyp_lig
 OpenBabel11021811393D
libRbt.so/2013.1/901 2013/11/27
 42 45  0  0  0  0  0  0  0  0999 V2000
    6.8633    5.6216   26.9636 C   0  0  2  0  0  0  0  0  0  0  0  0
    5.6649    6.2929   26.4785 O   0  0  0  0  0  0  0  0  0  0  0  0
    3.9518    8.1464   23.0331 C   0  0  2  0  0  0  0  0  0  0  0  0
    3.5989    8.6032   21.6761 N   0  0  0  0  0  0  0  0  0  0  0  0
    2.5018    4.1610   24.9572 C   0  0  1  0  0  0  0  0  0  0  0  0
   -0.5336    1.0252   25.7254 C   0  0  1  0  0  0  0  0  0  0  0  0
    6.5670    4.1407   27.3651 C   0  0  2  0  0  0  0  0  0  0  0  0
    5.8571    3.4238   26.2845 N   0  0  0  0  0  0  0  0  0  0  0  0
    5.4548    8.3849   23.2798 C   0  0  0  0  0  0  0  0  0  0  0  0
    2.6054    2.6419   25.1168 C   0  0  2  0  0  0  0  0  0  0  0  0
    2.3181    2.0103   23.8686 O   0  0  0  0  0  0  0  0  0  0  0  0
   -0.1790   -0.0243   24.6282 C   0  0  2  0  0  0  0  0  0  0  0  0
   -0.2075    0.5476   23.2599 N   0  0  0  0  0  0  0  0  0  0  0  0
    5.7428    4.0778   28.6891 C   0  0  1  0  0  0  0  0  0  0  0  0
    5.6172    2.7270   29.1264 O   0  0  0  0  0  0  0  0  0  0  0  0
    5.8927    7.9503   24.7052 C   0  0  2  0  0  0  0  0  0  0  0  0
    7.3540    8.1444   24.8074 N   0  0  0  0  0  0  0  0  0  0  0  0
    1.5096    2.3594   26.1482 C   0  0  2  0  0  0  0  0  0  0  0  0
    0.1968    2.2639   25.5286 O   0  0  0  0  0  0  0  0  0  0  0  0
   -1.1016   -1.2772   24.7388 C   0  0  1  0  0  0  0  0  0  0  0  0
   -0.7044   -2.0335   25.8806 O   0  0  0  0  0  0  0  0  0  0  0  0
    6.4064    4.9022   29.8206 C   0  0  2  0  0  0  0  0  0  0  0  0
    5.5622    4.8811   30.9677 O   0  0  0  0  0  0  0  0  0  0  0  0
    5.4850    6.4714   25.0442 C   0  0  2  0  0  0  0  0  0  0  0  0
    1.5911    3.5977   27.0517 C   0  0  2  0  0  0  0  0  0  0  0  0
    2.0026    4.6836   26.1988 O   0  0  0  0  0  0  0  0  0  0  0  0
   -2.6172   -0.9409   24.8796 C   0  0  2  0  0  0  0  0  0  0  0  0
   -3.1004   -0.4838   23.6154 O   0  0  0  0  0  0  0  0  0  0  0  0
    6.6544    6.3635   29.3503 C   0  0  2  0  0  0  0  0  0  0  0  0
    7.4253    6.3428   28.1112 O   0  0  0  0  0  0  0  0  0  0  0  0
    3.9960    6.1446   24.6621 C   0  0  2  0  0  0  0  0  0  0  0  0
    3.8273    4.7034   24.6955 O   0  0  0  0  0  0  0  0  0  0  0  0
    2.5862    3.4317   28.2141 C   0  0  0  0  0  0  0  0  0  0  0  0
    2.3908    4.4367   29.1936 O   0  0  0  0  0  0  0  0  0  0  0  0
   -2.8432    0.1519   25.9700 C   0  0  1  0  0  0  0  0  0  0  0  0
   -1.9763    1.2966   25.7043 O   0  0  0  0  0  0  0  0  0  0  0  0
    7.4437    7.2408   30.3475 C   0  0  0  0  0  0  0  0  0  0  0  0
    7.5664    8.5723   29.8768 O   0  0  0  0  0  0  0  0  0  0  0  0
    3.6076    6.6515   23.2385 C   0  0  1  0  0  0  0  0  0  0  0  0
    2.2056    6.4641   23.0510 O   0  0  0  0  0  0  0  0  0  0  0  0
   -4.3144    0.6362   26.0354 C   0  0  0  0  0  0  0  0  0  0  0  0
   -5.2639   -0.4729   26.2389 N   0  0  0  0  0  0  0  0  0  0  0  0
  1  2  1  1  0  0  0
  1  7  1  0  0  0  0
  1 30  1  0  0  0  0
  3  4  1  6  0  0  0
  3  9  1  0  0  0  0
  3 39  1  0  0  0  0
  5 10  1  0  0  0  0
  5 26  1  0  0  0  0
  5 32  1  1  0  0  0
  6 12  1  0  0  0  0
  6 36  1  0  0  0  0
  6 19  1  6  0  0  0
  7  8  1  6  0  0  0
  7 14  1  0  0  0  0
  9 16  1  0  0  0  0
 10 11  1  6  0  0  0
 10 18  1  0  0  0  0
 12 13  1  6  0  0  0
 12 20  1  0  0  0  0
 14 15  1  1  0  0  0
 14 22  1  0  0  0  0
 16 17  1  6  0  0  0
 16 24  1  0  0  0  0
 18 19  1  6  0  0  0
 18 25  1  0  0  0  0
 20 21  1  1  0  0  0
 20 27  1  0  0  0  0
 22 23  1  1  0  0  0
 22 29  1  0  0  0  0
 24  2  1  1  0  0  0
 24 31  1  0  0  0  0
 25 26  1  0  0  0  0
 25 33  1  1  0  0  0
 27 28  1  6  0  0  0
 27 35  1  0  0  0  0
 29 30  1  0  0  0  0
 29 37  1  1  0  0  0
 31 32  1  6  0  0  0
 31 39  1  0  0  0  0
 33 34  1  0  0  0  0
 35 36  1  0  0  0  0
 35 41  1  6  0  0  0
 37 38  1  0  0  0  0
 39 40  1  1  0  0  0
 41 42  1  0  0  0  0
M  END
>  <CHROM.1>
-101.90513516,-100.24376917,87.63029109,-36.22888168,179.63003339,-24.86173693
52.73023437,-167.09263826,122.18606806,-88.18739808,64.59521440,-174.43051696
-165.45984012,-39.02444441,-176.93852763,153.63639803,-172.98938511,-53.09126162
55.36656017,63.91068706,-51.25961336,-130.01003143,2.78470920,3.90467153
26.07357061,-0.16028387,0.67878397,2.11173436

>  <Name>
1fyp_lig

>  <RI>
0

>  <Rbt.Current_Directory>
/home/itssahil/PROJECTS/Mol_Feturizer/New_Systems/rnas/1fyp

>  <Rbt.Executable>
rbdock ($Id: //depot/dev/client3/rdock/2013.1/src/exe/rbdock.cxx#4 $)

>  <Rbt.Library>
libRbt.so (2013.1, Build901 2013/11/27)

>  <Rbt.Parameter_File>
/export/apps/rDock/src/rDock_2013.1_src/data/scripts/dock_solv.prm

>  <Rbt.Receptor>
prm/pocket_docking_4.prm

>  <SCORE>
-48.1768

>  <SCORE.INTER>
-39.444

>  <SCORE.INTER.CONST>
1

>  <SCORE.INTER.POLAR>
-4.27526

>  <SCORE.INTER.ROT>
14

>  <SCORE.INTER.SOLV>
16.9043

>  <SCORE.INTER.VDW>
-30.6132

>  <SCORE.INTER.norm>
-0.939143

>  <SCORE.INTRA>
-8.73283

>  <SCORE.INTRA.DIHEDRAL>
-14.2331

>  <SCORE.INTRA.DIHEDRAL.0>
48.7173

>  <SCORE.INTRA.POLAR>
-0.808688

>  <SCORE.INTRA.POLAR.0>
-1.54691

>  <SCORE.INTRA.REPUL>
0

>  <SCORE.INTRA.REPUL.0>
0

>  <SCORE.INTRA.SOLV>
-0.543332

>  <SCORE.INTRA.SOLV.lig_0>
-64.052

>  <SCORE.INTRA.VDW>
1.40495

>  <SCORE.INTRA.VDW.0>
-7.0667

>  <SCORE.INTRA.norm>
-0.207925

>  <SCORE.RESTR>
0

>  <SCORE.RESTR.CAVITY>
0

>  <SCORE.RESTR.norm>
0

>  <SCORE.SYSTEM>
0

>  <SCORE.SYSTEM.CONST>
0

>  <SCORE.SYSTEM.DIHEDRAL>
0

>  <SCORE.SYSTEM.SOLV>
0

>  <SCORE.SYSTEM.norm>
0

>  <SCORE.heavy>
42

>  <SCORE.norm>
-1.14707

>  <RMSD>
2.271

$$$$
1fyp_lig
 OpenBabel11021811393D
libRbt.so/2013.1/901 2013/11/27
 42 45  0  0  0  0  0  0  0  0999 V2000
    6.4692    4.7571   27.2151 C   0  0  2  0  0  0  0  0  0  0  0  0
    5.1830    5.1816   26.6787 O   0  0  0  0  0  0  0  0  0  0  0  0
    3.7913    7.5932   23.4401 C   0  0  2  0  0  0  0  0  0  0  0  0
    3.5435    8.2471   22.1418 N   0  0  0  0  0  0  0  0  0  0  0  0
    2.0431    3.4685   25.0789 C   0  0  1  0  0  0  0  0  0  0  0  0
   -0.9797    0.5308   26.5408 C   0  0  1  0  0  0  0  0  0  0  0  0
    6.2934    3.7161   28.3673 C   0  0  2  0  0  0  0  0  0  0  0  0
    5.4036    2.6086   27.9582 N   0  0  0  0  0  0  0  0  0  0  0  0
    5.2933    7.6767   23.7779 C   0  0  0  0  0  0  0  0  0  0  0  0
    2.1467    1.9502   25.2446 C   0  0  2  0  0  0  0  0  0  0  0  0
    1.6794    1.3076   24.0579 O   0  0  0  0  0  0  0  0  0  0  0  0
   -0.3808   -0.8584   26.1632 C   0  0  2  0  0  0  0  0  0  0  0  0
   -0.0311   -0.9583   24.7252 N   0  0  0  0  0  0  0  0  0  0  0  0
    5.7458    4.4022   29.6578 C   0  0  1  0  0  0  0  0  0  0  0  0
    5.7411    3.4771   30.7422 O   0  0  0  0  0  0  0  0  0  0  0  0
    5.6239    7.0291   25.1504 C   0  0  2  0  0  0  0  0  0  0  0  0
    7.0884    7.0906   25.3375 N   0  0  0  0  0  0  0  0  0  0  0  0
    1.2015    1.6980   26.4225 C   0  0  2  0  0  0  0  0  0  0  0  0
   -0.1861    1.6156   25.9930 O   0  0  0  0  0  0  0  0  0  0  0  0
   -1.3375   -2.0120   26.5958 C   0  0  1  0  0  0  0  0  0  0  0  0
   -1.2776   -2.1427   28.0146 O   0  0  0  0  0  0  0  0  0  0  0  0
    6.5974    5.6314   30.0626 C   0  0  2  0  0  0  0  0  0  0  0  0
    5.9946    6.2649   31.1870 O   0  0  0  0  0  0  0  0  0  0  0  0
    5.0908    5.5565   25.2742 C   0  0  2  0  0  0  0  0  0  0  0  0
    1.4255    2.9461   27.2877 C   0  0  2  0  0  0  0  0  0  0  0  0
    1.7292    4.0145   26.3701 O   0  0  0  0  0  0  0  0  0  0  0  0
   -2.8259   -1.7908   26.1888 C   0  0  2  0  0  0  0  0  0  0  0  0
   -2.9455   -1.9890   24.7792 O   0  0  0  0  0  0  0  0  0  0  0  0
    6.7129    6.6245   28.8716 C   0  0  2  0  0  0  0  0  0  0  0  0
    7.2269    5.9143   27.7049 O   0  0  0  0  0  0  0  0  0  0  0  0
    3.6032    5.4019   24.7913 C   0  0  2  0  0  0  0  0  0  0  0  0
    3.3267    3.9866   24.6273 O   0  0  0  0  0  0  0  0  0  0  0  0
    2.5704    2.7787   28.3025 C   0  0  0  0  0  0  0  0  0  0  0  0
    3.1109    4.0370   28.6662 O   0  0  0  0  0  0  0  0  0  0  0  0
   -3.2976   -0.3540   26.5728 C   0  0  1  0  0  0  0  0  0  0  0  0
   -2.3571    0.6291   26.0424 O   0  0  0  0  0  0  0  0  0  0  0  0
    7.6603    7.8207   29.1139 C   0  0  0  0  0  0  0  0  0  0  0  0
    8.1260    8.3648   27.8906 O   0  0  0  0  0  0  0  0  0  0  0  0
    3.3271    6.1168   23.4321 C   0  0  1  0  0  0  0  0  0  0  0  0
    1.9266    6.0680   23.1638 O   0  0  0  0  0  0  0  0  0  0  0  0
   -4.7188   -0.0302   26.0452 C   0  0  0  0  0  0  0  0  0  0  0  0
   -4.8760    1.3909   25.6861 N   0  0  0  0  0  0  0  0  0  0  0  0
  1  2  1  1  0  0  0
  1  7  1  0  0  0  0
  1 30  1  0  0  0  0
  3  4  1  6  0  0  0
  3  9  1  0  0  0  0
  3 39  1  0  0  0  0
  5 10  1  0  0  0  0
  5 26  1  0  0  0  0
  5 32  1  1  0  0  0
  6 12  1  0  0  0  0
  6 36  1  0  0  0  0
  6 19  1  6  0  0  0
  7  8  1  6  0  0  0
  7 14  1  0  0  0  0
  9 16  1  0  0  0  0
 10 11  1  6  0  0  0
 10 18  1  0  0  0  0
 12 13  1  6  0  0  0
 12 20  1  0  0  0  0
 14 15  1  1  0  0  0
 14 22  1  0  0  0  0
 16 17  1  6  0  0  0
 16 24  1  0  0  0  0
 18 19  1  6  0  0  0
 18 25  1  0  0  0  0
 20 21  1  1  0  0  0
 20 27  1  0  0  0  0
 22 23  1  1  0  0  0
 22 29  1  0  0  0  0
 24  2  1  1  0  0  0
 24 31  1  0  0  0  0
 25 26  1  0  0  0  0
 25 33  1  1  0  0  0
 27 28  1  6  0  0  0
 27 35  1  0  0  0  0
 29 30  1  0  0  0  0
 29 37  1  1  0  0  0
 31 32  1  6  0  0  0
 31 39  1  0  0  0  0
 33 34  1  0  0  0  0
 35 36  1  0  0  0  0
 35 41  1  6  0  0  0
 37 38  1  0  0  0  0
 39 40  1  1  0  0  0
 41 42  1  0  0  0  0
M  END
>  <CHROM.1>
-149.02034321,-80.26952239,80.79211195,55.97237540,153.88085811,43.39661511
-170.40660385,43.79030674,134.75503974,-60.46896642,57.26688120,78.10006656
155.57434474,-41.60260313,156.93280882,138.54083170,-161.26419461,-69.97865349
-146.69782790,163.53797668,90.67087711,37.69734520,2.63077823,3.47252003
26.46869012,-0.26536475,0.65502042,2.17747754

>  <Name>
1fyp_lig

>  <RI>
0

>  <Rbt.Current_Directory>
/home/itssahil/PROJECTS/Mol_Feturizer/New_Systems/rnas/1fyp

>  <Rbt.Executable>
rbdock ($Id: //depot/dev/client3/rdock/2013.1/src/exe/rbdock.cxx#4 $)

>  <Rbt.Library>
libRbt.so (2013.1, Build901 2013/11/27)

>  <Rbt.Parameter_File>
/export/apps/rDock/src/rDock_2013.1_src/data/scripts/dock_solv.prm

>  <Rbt.Receptor>
prm/blind_docking_40.prm

>  <SCORE>
-56.4176

>  <SCORE.INTER>
-47.2749

>  <SCORE.INTER.CONST>
1

>  <SCORE.INTER.POLAR>
-6.31007

>  <SCORE.INTER.ROT>
14

>  <SCORE.INTER.SOLV>
18.7269

>  <SCORE.INTER.VDW>
-29.6587

>  <SCORE.INTER.norm>
-1.12559

>  <SCORE.INTRA>
-9.25227

>  <SCORE.INTRA.DIHEDRAL>
-8.80211

>  <SCORE.INTRA.DIHEDRAL.0>
48.7173

>  <SCORE.INTRA.POLAR>
-2.18123

>  <SCORE.INTRA.POLAR.0>
-1.54691

>  <SCORE.INTRA.REPUL>
0

>  <SCORE.INTRA.REPUL.0>
0

>  <SCORE.INTRA.SOLV>
2.33373

>  <SCORE.INTRA.SOLV.lig_0>
-64.052

>  <SCORE.INTRA.VDW>
1.39812

>  <SCORE.INTRA.VDW.0>
-7.0667

>  <SCORE.INTRA.norm>
-0.220292

>  <SCORE.RESTR>
0.109542

>  <SCORE.RESTR.CAVITY>
0.109542

>  <SCORE.RESTR.norm>
0.00260814

>  <SCORE.SYSTEM>
0

>  <SCORE.SYSTEM.CONST>
0

>  <SCORE.SYSTEM.DIHEDRAL>
0

>  <SCORE.SYSTEM.SOLV>
0

>  <SCORE.SYSTEM.norm>
0

>  <SCORE.heavy>
42

>  <SCORE.norm>
-1.34328

>  <RMSD>
2.281

$$$$
1fyp_lig
 OpenBabel11021811393D
libRbt.so/2013.1/901 2013/11/27
 42 45  0  0  0  0  0  0  0  0999 V2000
    7.6790    7.5216   26.9769 C   0  0  2  0  0  0  0  0  0  0  0  0
    7.2602    6.3605   26.2031 O   0  0  0  0  0  0  0  0  0  0  0  0
    3.6967    8.0864   24.6021 C   0  0  2  0  0  0  0  0  0  0  0  0
    2.5610    8.5141   23.7643 N   0  0  0  0  0  0  0  0  0  0  0  0
    3.5122    3.9889   26.0045 C   0  0  1  0  0  0  0  0  0  0  0  0
    0.7743    0.6758   25.4693 C   0  0  1  0  0  0  0  0  0  0  0  0
    9.2362    7.6410   27.0326 C   0  0  2  0  0  0  0  0  0  0  0  0
    9.8290    7.5583   25.6808 N   0  0  0  0  0  0  0  0  0  0  0  0
    5.0189    8.4215   23.8835 C   0  0  0  0  0  0  0  0  0  0  0  0
    3.6665    2.5092   25.6435 C   0  0  2  0  0  0  0  0  0  0  0  0
    3.3125    2.3127   24.2740 O   0  0  0  0  0  0  0  0  0  0  0  0
   -0.0964    0.9616   24.2078 C   0  0  2  0  0  0  0  0  0  0  0  0
   -1.0693    2.0606   24.4220 N   0  0  0  0  0  0  0  0  0  0  0  0
    9.8454    6.5425   27.9591 C   0  0  1  0  0  0  0  0  0  0  0  0
   11.2440    6.7607   28.1263 O   0  0  0  0  0  0  0  0  0  0  0  0
    6.2624    8.0217   24.7240 C   0  0  2  0  0  0  0  0  0  0  0  0
    7.4653    8.3092   23.9153 N   0  0  0  0  0  0  0  0  0  0  0  0
    2.6504    1.8503   26.5804 C   0  0  2  0  0  0  0  0  0  0  0  0
    1.3019    1.9029   26.0372 O   0  0  0  0  0  0  0  0  0  0  0  0
   -0.8069   -0.3374   23.7171 C   0  0  1  0  0  0  0  0  0  0  0  0
    0.1655   -1.1831   23.1065 O   0  0  0  0  0  0  0  0  0  0  0  0
    9.1777    6.5327   29.3571 C   0  0  2  0  0  0  0  0  0  0  0  0
    9.7097    5.4532   30.1189 O   0  0  0  0  0  0  0  0  0  0  0  0
    6.2280    6.5212   25.1881 C   0  0  2  0  0  0  0  0  0  0  0  0
    2.7598    2.7228   27.8387 C   0  0  2  0  0  0  0  0  0  0  0  0
    3.0842    4.0477   27.3746 O   0  0  0  0  0  0  0  0  0  0  0  0
   -1.5122   -1.1436   24.8496 C   0  0  2  0  0  0  0  0  0  0  0  0
   -2.6926   -0.4402   25.2402 O   0  0  0  0  0  0  0  0  0  0  0  0
    7.6349    6.3964   29.2180 C   0  0  2  0  0  0  0  0  0  0  0  0
    7.1389    7.4509   28.3394 O   0  0  0  0  0  0  0  0  0  0  0  0
    4.8383    6.0982   25.7882 C   0  0  2  0  0  0  0  0  0  0  0  0
    4.8023    4.6494   25.8660 O   0  0  0  0  0  0  0  0  0  0  0  0
    3.8349    2.2292   28.8232 C   0  0  0  0  0  0  0  0  0  0  0  0
    3.6099    0.8766   29.1803 O   0  0  0  0  0  0  0  0  0  0  0  0
   -0.5628   -1.3249   26.0743 C   0  0  1  0  0  0  0  0  0  0  0  0
   -0.0290   -0.0268   26.4775 O   0  0  0  0  0  0  0  0  0  0  0  0
    6.8506    6.5200   30.5435 C   0  0  0  0  0  0  0  0  0  0  0  0
    5.4801    6.2067   30.3621 O   0  0  0  0  0  0  0  0  0  0  0  0
    3.6311    6.5735   24.9214 C   0  0  1  0  0  0  0  0  0  0  0  0
    2.4221    6.2960   25.6265 O   0  0  0  0  0  0  0  0  0  0  0  0
   -1.2708   -1.9795   27.2881 C   0  0  0  0  0  0  0  0  0  0  0  0
   -1.9626   -0.9921   28.1364 N   0  0  0  0  0  0  0  0  0  0  0  0
  1  2  1  6  0  0  0
  1  7  1  0  0  0  0
  1 30  1  0  0  0  0
  3  4  1  6  0  0  0
  3  9  1  0  0  0  0
  3 39  1  0  0  0  0
  5 10  1  0  0  0  0
  5 26  1  0  0  0  0
  5 32  1  1  0  0  0
  6 12  1  0  0  0  0
  6 36  1  0  0  0  0
  6 19  1  1  0  0  0
  7  8  1  6  0  0  0
  7 14  1  0  0  0  0
  9 16  1  0  0  0  0
 10 11  1  6  0  0  0
 10 18  1  0  0  0  0
 12 13  1  1  0  0  0
 12 20  1  0  0  0  0
 14 15  1  1  0  0  0
 14 22  1  0  0  0  0
 16 17  1  6  0  0  0
 16 24  1  0  0  0  0
 18 19  1  6  0  0  0
 18 25  1  0  0  0  0
 20 21  1  1  0  0  0
 20 27  1  0  0  0  0
 22 23  1  1  0  0  0
 22 29  1  0  0  0  0
 24  2  1  1  0  0  0
 24 31  1  0  0  0  0
 25 26  1  0  0  0  0
 25 33  1  1  0  0  0
 27 28  1  1  0  0  0
 27 35  1  0  0  0  0
 29 30  1  0  0  0  0
 29 37  1  1  0  0  0
 31 32  1  6  0  0  0
 31 39  1  0  0  0  0
 33 34  1  0  0  0  0
 35 36  1  0  0  0  0
 35 41  1  1  0  0  0
 37 38  1  0  0  0  0
 39 40  1  1  0  0  0
 41 42  1  0  0  0  0
M  END
>  <CHROM.1>
-132.03645473,25.37998403,65.67509343,96.43380984,-166.38758151,-80.68750190
-165.64430448,55.84750630,103.81746961,-142.79879652,64.59976633,67.05066249
-55.48821015,-149.90371566,-172.07399885,-161.91439805,162.99641246,178.08064812
-86.02483184,-176.54185541,-49.73678946,-90.69999650,3.96388501,4.05567586
26.43192242,0.33761711,-0.63971641,-0.81243716

>  <Name>
1fyp_lig

>  <RI>
0

>  <Rbt.Current_Directory>
/home/itssahil/PROJECTS/Mol_Feturizer/New_Systems/rnas/1fyp

>  <Rbt.Executable>
rbdock ($Id: //depot/dev/client3/rdock/2013.1/src/exe/rbdock.cxx#4 $)

>  <Rbt.Library>
libRbt.so (2013.1, Build901 2013/11/27)

>  <Rbt.Parameter_File>
/export/apps/rDock/src/rDock_2013.1_src/data/scripts/dock_solv.prm

>  <Rbt.Receptor>
prm/pocket_docking_3.prm

>  <SCORE>
-49.866

>  <SCORE.INTER>
-48.8306

>  <SCORE.INTER.CONST>
1

>  <SCORE.INTER.POLAR>
-6.0722

>  <SCORE.INTER.ROT>
14

>  <SCORE.INTER.SOLV>
21.09

>  <SCORE.INTER.VDW>
-32.2764

>  <SCORE.INTER.norm>
-1.16263

>  <SCORE.INTRA>
-1.03543

>  <SCORE.INTRA.DIHEDRAL>
-11.5388

>  <SCORE.INTRA.DIHEDRAL.0>
48.7173

>  <SCORE.INTRA.POLAR>
-0.757263

>  <SCORE.INTRA.POLAR.0>
-1.54691

>  <SCORE.INTRA.REPUL>
0.00270724

>  <SCORE.INTRA.REPUL.0>
0

>  <SCORE.INTRA.SOLV>
-1.56306

>  <SCORE.INTRA.SOLV.lig_0>
-64.052

>  <SCORE.INTRA.VDW>
8.07667

>  <SCORE.INTRA.VDW.0>
-7.0667

>  <SCORE.INTRA.norm>
-0.0246531

>  <SCORE.RESTR>
0

>  <SCORE.RESTR.CAVITY>
0

>  <SCORE.RESTR.norm>
0

>  <SCORE.SYSTEM>
0

>  <SCORE.SYSTEM.CONST>
0

>  <SCORE.SYSTEM.DIHEDRAL>
0

>  <SCORE.SYSTEM.SOLV>
0

>  <SCORE.SYSTEM.norm>
0

>  <SCORE.heavy>
42

>  <SCORE.norm>
-1.18729

>  <RMSD>
2.313

$$$$
1fyp_lig
 OpenBabel11021811393D
libRbt.so/2013.1/901 2013/11/27
 42 45  0  0  0  0  0  0  0  0999 V2000
    8.2398    7.4866   25.0588 C   0  0  2  0  0  0  0  0  0  0  0  0
    6.9752    8.1900   25.2275 O   0  0  0  0  0  0  0  0  0  0  0  0
    3.0853    8.7319   23.5495 C   0  0  2  0  0  0  0  0  0  0  0  0
    1.8225    8.6342   22.7943 N   0  0  0  0  0  0  0  0  0  0  0  0
    3.5430    5.5730   26.2986 C   0  0  1  0  0  0  0  0  0  0  0  0
    0.7556    2.2526   26.3267 C   0  0  1  0  0  0  0  0  0  0  0  0
    8.5102    6.5031   26.2427 C   0  0  2  0  0  0  0  0  0  0  0  0
    7.3468    5.6238   26.4858 N   0  0  0  0  0  0  0  0  0  0  0  0
    4.2733    8.7128   22.5670 C   0  0  0  0  0  0  0  0  0  0  0  0
    3.4822    4.6216   25.1007 C   0  0  2  0  0  0  0  0  0  0  0  0
    2.6104    5.1612   24.1066 O   0  0  0  0  0  0  0  0  0  0  0  0
    1.2414    0.9605   25.6015 C   0  0  2  0  0  0  0  0  0  0  0  0
    1.2904    1.1167   24.1273 N   0  0  0  0  0  0  0  0  0  0  0  0
    8.8787    7.2852   27.5422 C   0  0  1  0  0  0  0  0  0  0  0  0
    9.2761    6.3771   28.5665 O   0  0  0  0  0  0  0  0  0  0  0  0
    5.6397    8.8403   23.2944 C   0  0  2  0  0  0  0  0  0  0  0  0
    6.7050    8.7300   22.2764 N   0  0  0  0  0  0  0  0  0  0  0  0
    2.8905    3.3588   25.7329 C   0  0  2  0  0  0  0  0  0  0  0  0
    1.4403    3.4300   25.8251 O   0  0  0  0  0  0  0  0  0  0  0  0
    0.3726   -0.2677   26.0133 C   0  0  1  0  0  0  0  0  0  0  0  0
    0.7167   -0.6402   27.3461 O   0  0  0  0  0  0  0  0  0  0  0  0
   10.0316    8.2917   27.3016 C   0  0  2  0  0  0  0  0  0  0  0  0
   10.2560    9.0358   28.4952 O   0  0  0  0  0  0  0  0  0  0  0  0
    5.8244    7.7768   24.4360 C   0  0  2  0  0  0  0  0  0  0  0  0
    3.5216    3.3735   27.1322 C   0  0  2  0  0  0  0  0  0  0  0  0
    3.6911    4.7625   27.4754 O   0  0  0  0  0  0  0  0  0  0  0  0
   -1.1634   -0.0070   25.9609 C   0  0  2  0  0  0  0  0  0  0  0  0
   -1.5699    0.0388   24.5922 O   0  0  0  0  0  0  0  0  0  0  0  0
    9.6817    9.2422   26.1216 C   0  0  2  0  0  0  0  0  0  0  0  0
    9.3469    8.4432   24.9471 O   0  0  0  0  0  0  0  0  0  0  0  0
    4.5663    7.6577   25.3704 C   0  0  2  0  0  0  0  0  0  0  0  0
    4.7005    6.4445   26.1557 O   0  0  0  0  0  0  0  0  0  0  0  0
    4.8760    2.6450   27.1905 C   0  0  0  0  0  0  0  0  0  0  0  0
    5.8157    3.3858   27.9493 O   0  0  0  0  0  0  0  0  0  0  0  0
   -1.5225    1.3331   26.6747 C   0  0  1  0  0  0  0  0  0  0  0  0
   -0.6923    2.4101   26.1425 O   0  0  0  0  0  0  0  0  0  0  0  0
   10.8205   10.1962   25.6974 C   0  0  0  0  0  0  0  0  0  0  0  0
   10.7592   10.4870   24.3114 O   0  0  0  0  0  0  0  0  0  0  0  0
    3.2244    7.5836   24.5778 C   0  0  1  0  0  0  0  0  0  0  0  0
    2.1403    7.6501   25.5031 O   0  0  0  0  0  0  0  0  0  0  0  0
   -3.0154    1.7170   26.5102 C   0  0  0  0  0  0  0  0  0  0  0  0
   -3.3693    2.0151   25.1106 N   0  0  0  0  0  0  0  0  0  0  0  0
  1  2  1  1  0  0  0
  1  7  1  0  0  0  0
  1 30  1  0  0  0  0
  3  4  1  6  0  0  0
  3  9  1  0  0  0  0
  3 39  1  0  0  0  0
  5 10  1  0  0  0  0
  5 26  1  0  0  0  0
  5 32  1  6  0  0  0
  6 12  1  0  0  0  0
  6 36  1  0  0  0  0
  6 19  1  6  0  0  0
  7  8  1  1  0  0  0
  7 14  1  0  0  0  0
  9 16  1  0  0  0  0
 10 11  1  6  0  0  0
 10 18  1  0  0  0  0
 12 13  1  6  0  0  0
 12 20  1  0  0  0  0
 14 15  1  1  0  0  0
 14 22  1  0  0  0  0
 16 17  1  6  0  0  0
 16 24  1  0  0  0  0
 18 19  1  1  0  0  0
 18 25  1  0  0  0  0
 20 21  1  1  0  0  0
 20 27  1  0  0  0  0
 22 23  1  1  0  0  0
 22 29  1  0  0  0  0
 24  2  1  1  0  0  0
 24 31  1  0  0  0  0
 25 26  1  0  0  0  0
 25 33  1  6  0  0  0
 27 28  1  6  0  0  0
 27 35  1  0  0  0  0
 29 30  1  0  0  0  0
 29 37  1  6  0  0  0
 31 32  1  6  0  0  0
 31 39  1  0  0  0  0
 33 34  1  0  0  0  0
 35 36  1  0  0  0  0
 35 41  1  6  0  0  0
 37 38  1  0  0  0  0
 39 40  1  1  0  0  0
 41 42  1  0  0  0  0
M  END
>  <CHROM.1>
-103.64615847,-103.93361775,-46.54119099,-49.02032464,-168.43658448,-80.97126025
-171.76879125,57.15078336,176.01502320,-48.94326135,68.96704955,68.59239999
136.75387169,160.85781756,148.96741605,-135.12514537,85.54521674,-66.23378069
-65.55429523,-67.06782859,-56.98101262,114.10432274,4.21875786,5.36097940
25.66272878,-0.53244652,0.41609372,2.52722349

>  <Name>
1fyp_lig

>  <RI>
0

>  <Rbt.Current_Directory>
/home/itssahil/PROJECTS/Mol_Feturizer/New_Systems/rnas/1fyp

>  <Rbt.Executable>
rbdock ($Id: //depot/dev/client3/rdock/2013.1/src/exe/rbdock.cxx#4 $)

>  <Rbt.Library>
libRbt.so (2013.1, Build901 2013/11/27)

>  <Rbt.Parameter_File>
/export/apps/rDock/src/rDock_2013.1_src/data/scripts/dock_solv.prm

>  <Rbt.Receptor>
prm/pocket_docking_7.prm

>  <SCORE>
-23.9499

>  <SCORE.INTER>
-23.629

>  <SCORE.INTER.CONST>
1

>  <SCORE.INTER.POLAR>
-1.19284

>  <SCORE.INTER.ROT>
14

>  <SCORE.INTER.SOLV>
18.6701

>  <SCORE.INTER.VDW>
-30.9332

>  <SCORE.INTER.norm>
-0.562596

>  <SCORE.INTRA>
-0.320865

>  <SCORE.INTRA.DIHEDRAL>
-12.1124

>  <SCORE.INTRA.DIHEDRAL.0>
48.7173

>  <SCORE.INTRA.POLAR>
-0.848033

>  <SCORE.INTRA.POLAR.0>
-1.54691

>  <SCORE.INTRA.REPUL>
0.077408

>  <SCORE.INTRA.REPUL.0>
0

>  <SCORE.INTRA.SOLV>
1.6109

>  <SCORE.INTRA.SOLV.lig_0>
-64.052

>  <SCORE.INTRA.VDW>
7.42614

>  <SCORE.INTRA.VDW.0>
-7.0667

>  <SCORE.INTRA.norm>
-0.00763965

>  <SCORE.RESTR>
0

>  <SCORE.RESTR.CAVITY>
0

>  <SCORE.RESTR.norm>
0

>  <SCORE.SYSTEM>
0

>  <SCORE.SYSTEM.CONST>
0

>  <SCORE.SYSTEM.DIHEDRAL>
0

>  <SCORE.SYSTEM.SOLV>
0

>  <SCORE.SYSTEM.norm>
0

>  <SCORE.heavy>
42

>  <SCORE.norm>
-0.570235

>  <RMSD>
2.342

$$$$
1fyp_lig
 OpenBabel11021811393D
libRbt.so/2013.1/901 2013/11/27
 42 45  0  0  0  0  0  0  0  0999 V2000
    6.8788    5.9963   28.2913 C   0  0  2  0  0  0  0  0  0  0  0  0
    5.7042    6.8173   28.0290 O   0  0  0  0  0  0  0  0  0  0  0  0
    3.4253    7.6514   24.5145 C   0  0  2  0  0  0  0  0  0  0  0  0
    2.6071    7.5969   23.2890 N   0  0  0  0  0  0  0  0  0  0  0  0
    1.6959    5.6475   27.7922 C   0  0  1  0  0  0  0  0  0  0  0  0
   -0.2652    1.8082   26.7227 C   0  0  1  0  0  0  0  0  0  0  0  0
    7.3007    6.0644   29.7945 C   0  0  2  0  0  0  0  0  0  0  0  0
    6.1526    5.7956   30.6864 N   0  0  0  0  0  0  0  0  0  0  0  0
    4.6613    6.7453   24.3468 C   0  0  0  0  0  0  0  0  0  0  0  0
    2.3852    4.4611   27.1134 C   0  0  2  0  0  0  0  0  0  0  0  0
    2.3165    4.6168   25.6954 O   0  0  0  0  0  0  0  0  0  0  0  0
    0.7763    0.7346   26.2827 C   0  0  2  0  0  0  0  0  0  0  0  0
    1.5594    1.1516   25.0939 N   0  0  0  0  0  0  0  0  0  0  0  0
    7.9355    7.4498   30.1317 C   0  0  1  0  0  0  0  0  0  0  0  0
    8.4581    7.4415   31.4578 O   0  0  0  0  0  0  0  0  0  0  0  0
    5.5860    6.7755   25.5944 C   0  0  2  0  0  0  0  0  0  0  0  0
    6.6879    5.8186   25.3629 N   0  0  0  0  0  0  0  0  0  0  0  0
    1.5249    3.2861   27.5861 C   0  0  2  0  0  0  0  0  0  0  0  0
    0.3283    3.1318   26.7731 O   0  0  0  0  0  0  0  0  0  0  0  0
    0.0877   -0.6460   26.0526 C   0  0  1  0  0  0  0  0  0  0  0  0
   -0.2526   -1.2001   27.3218 O   0  0  0  0  0  0  0  0  0  0  0  0
    9.0807    7.8124   29.1532 C   0  0  2  0  0  0  0  0  0  0  0  0
    9.5530    9.1218   29.4549 O   0  0  0  0  0  0  0  0  0  0  0  0
    4.8203    6.4572   26.9288 C   0  0  2  0  0  0  0  0  0  0  0  0
    1.1559    3.7114   29.0142 C   0  0  2  0  0  0  0  0  0  0  0  0
    1.0819    5.1501   28.9920 O   0  0  0  0  0  0  0  0  0  0  0  0
   -1.2076   -0.5750   25.1883 C   0  0  2  0  0  0  0  0  0  0  0  0
   -0.8345   -0.3415   23.8293 O   0  0  0  0  0  0  0  0  0  0  0  0
    8.5795    7.7365   27.6830 C   0  0  2  0  0  0  0  0  0  0  0  0
    7.9989    6.4192   27.4431 O   0  0  0  0  0  0  0  0  0  0  0  0
    3.4711    7.2517   27.0643 C   0  0  2  0  0  0  0  0  0  0  0  0
    2.6971    6.6480   28.1334 O   0  0  0  0  0  0  0  0  0  0  0  0
    2.1819    3.2505   30.0647 C   0  0  0  0  0  0  0  0  0  0  0  0
    1.7710    3.6220   31.3688 O   0  0  0  0  0  0  0  0  0  0  0  0
   -2.1480    0.5634   25.6921 C   0  0  1  0  0  0  0  0  0  0  0  0
   -1.3979    1.8126   25.7887 O   0  0  0  0  0  0  0  0  0  0  0  0
    9.6754    7.9383   26.6128 C   0  0  0  0  0  0  0  0  0  0  0  0
   10.7243    6.9972   26.7660 O   0  0  0  0  0  0  0  0  0  0  0  0
    2.6140    7.2224   25.7608 C   0  0  1  0  0  0  0  0  0  0  0  0
    1.5030    8.1031   25.9219 O   0  0  0  0  0  0  0  0  0  0  0  0
   -3.3736    0.7797   24.7678 C   0  0  0  0  0  0  0  0  0  0  0  0
   -4.3946    1.6488   25.3803 N   0  0  0  0  0  0  0  0  0  0  0  0
  1  2  1  1  0  0  0
  1  7  1  0  0  0  0
  1 30  1  0  0  0  0
  3  4  1  6  0  0  0
  3  9  1  0  0  0  0
  3 39  1  0  0  0  0
  5 10  1  0  0  0  0
  5 26  1  0  0  0  0
  5 32  1  1  0  0  0
  6 12  1  0  0  0  0
  6 36  1  0  0  0  0
  6 19  1  6  0  0  0
  7  8  1  1  0  0  0
  7 14  1  0  0  0  0
  9 16  1  0  0  0  0
 10 11  1  6  0  0  0
 10 18  1  0  0  0  0
 12 13  1  6  0  0  0
 12 20  1  0  0  0  0
 14 15  1  1  0  0  0
 14 22  1  0  0  0  0
 16 17  1  6  0  0  0
 16 24  1  0  0  0  0
 18 19  1  6  0  0  0
 18 25  1  0  0  0  0
 20 21  1  1  0  0  0
 20 27  1  0  0  0  0
 22 23  1  1  0  0  0
 22 29  1  0  0  0  0
 24  2  1  1  0  0  0
 24 31  1  0  0  0  0
 25 26  1  0  0  0  0
 25 33  1  1  0  0  0
 27 28  1  6  0  0  0
 27 35  1  0  0  0  0
 29 30  1  0  0  0  0
 29 37  1  6  0  0  0
 31 32  1  1  0  0  0
 31 39  1  0  0  0  0
 33 34  1  0  0  0  0
 35 36  1  0  0  0  0
 35 41  1  6  0  0  0
 37 38  1  0  0  0  0
 39 40  1  1  0  0  0
 41 42  1  0  0  0  0
M  END
>  <CHROM.1>
-152.78094318,-71.16761152,-153.76712259,138.53144117,-62.92530896,-171.98859170
64.10644720,36.80681590,155.07952686,-54.38796167,-39.56796289,65.40851879
-177.74714546,65.35226792,56.98286176,-95.05920080,61.05703865,-177.22307621
168.16237850,176.85597335,51.39915793,-29.38069440,3.32350404,4.72729343
27.12758061,-0.06915642,0.63676283,2.04762809

>  <Name>
1fyp_lig

>  <RI>
0

>  <Rbt.Current_Directory>
/home/itssahil/PROJECTS/Mol_Feturizer/New_Systems/rnas/1fyp

>  <Rbt.Executable>
rbdock ($Id: //depot/dev/client3/rdock/2013.1/src/exe/rbdock.cxx#4 $)

>  <Rbt.Library>
libRbt.so (2013.1, Build901 2013/11/27)

>  <Rbt.Parameter_File>
/export/apps/rDock/src/rDock_2013.1_src/data/scripts/dock_solv.prm

>  <Rbt.Receptor>
prm/pocket_docking_8.prm

>  <SCORE>
-52.3328

>  <SCORE.INTER>
-46.0802

>  <SCORE.INTER.CONST>
1

>  <SCORE.INTER.POLAR>
-6.10949

>  <SCORE.INTER.ROT>
14

>  <SCORE.INTER.SOLV>
15.9954

>  <SCORE.INTER.VDW>
-28.6203

>  <SCORE.INTER.norm>
-1.09715

>  <SCORE.INTRA>
-6.2526

>  <SCORE.INTRA.DIHEDRAL>
-28.8231

>  <SCORE.INTRA.DIHEDRAL.0>
48.7173

>  <SCORE.INTRA.POLAR>
0.556207

>  <SCORE.INTRA.POLAR.0>
-1.54691

>  <SCORE.INTRA.REPUL>
0.0145532

>  <SCORE.INTRA.REPUL.0>
0

>  <SCORE.INTRA.SOLV>
-0.538913

>  <SCORE.INTRA.SOLV.lig_0>
-64.052

>  <SCORE.INTRA.VDW>
6.46454

>  <SCORE.INTRA.VDW.0>
-7.0667

>  <SCORE.INTRA.norm>
-0.148871

>  <SCORE.RESTR>
0

>  <SCORE.RESTR.CAVITY>
0

>  <SCORE.RESTR.norm>
0

>  <SCORE.SYSTEM>
0

>  <SCORE.SYSTEM.CONST>
0

>  <SCORE.SYSTEM.DIHEDRAL>
0

>  <SCORE.SYSTEM.SOLV>
0

>  <SCORE.SYSTEM.norm>
0

>  <SCORE.heavy>
42

>  <SCORE.norm>
-1.24602

>  <RMSD>
2.355

$$$$
1fyp_lig
 OpenBabel11021811393D
libRbt.so/2013.1/901 2013/11/27
 42 45  0  0  0  0  0  0  0  0999 V2000
    6.9592    5.6974   29.0268 C   0  0  2  0  0  0  0  0  0  0  0  0
    5.8681    6.6396   28.8170 O   0  0  0  0  0  0  0  0  0  0  0  0
    2.8460    7.9455   26.0962 C   0  0  2  0  0  0  0  0  0  0  0  0
    1.9295    8.1453   24.9585 N   0  0  0  0  0  0  0  0  0  0  0  0
    2.3372    4.1833   27.8664 C   0  0  1  0  0  0  0  0  0  0  0  0
   -0.1028    1.3063   26.3667 C   0  0  1  0  0  0  0  0  0  0  0  0
    7.3924    5.6483   30.5275 C   0  0  2  0  0  0  0  0  0  0  0  0
    6.2278    5.4460   31.4155 N   0  0  0  0  0  0  0  0  0  0  0  0
    4.3033    7.9883   25.5946 C   0  0  0  0  0  0  0  0  0  0  0  0
    2.9446    3.5097   26.6331 C   0  0  2  0  0  0  0  0  0  0  0  0
    2.6465    4.2842   25.4709 O   0  0  0  0  0  0  0  0  0  0  0  0
    0.3584   -0.1455   26.0339 C   0  0  2  0  0  0  0  0  0  0  0  0
    0.9055   -0.2708   24.6609 N   0  0  0  0  0  0  0  0  0  0  0  0
    8.1593    6.9474   30.9278 C   0  0  1  0  0  0  0  0  0  0  0  0
    8.6846    6.8216   32.2469 O   0  0  0  0  0  0  0  0  0  0  0  0
    5.3276    7.8112   26.7486 C   0  0  2  0  0  0  0  0  0  0  0  0
    6.6795    7.7863   26.1523 N   0  0  0  0  0  0  0  0  0  0  0  0
    2.2058    2.1688   26.6122 C   0  0  2  0  0  0  0  0  0  0  0  0
    0.9002    2.2817   25.9804 O   0  0  0  0  0  0  0  0  0  0  0  0
   -0.7959   -1.1654   26.2799 C   0  0  1  0  0  0  0  0  0  0  0  0
   -0.9691   -1.3237   27.6864 O   0  0  0  0  0  0  0  0  0  0  0  0
    9.3297    7.2475   29.9580 C   0  0  2  0  0  0  0  0  0  0  0  0
    9.9274    8.4886   30.3205 O   0  0  0  0  0  0  0  0  0  0  0  0
    5.0575    6.5269   27.6121 C   0  0  2  0  0  0  0  0  0  0  0  0
    2.0564    1.8604   28.1086 C   0  0  2  0  0  0  0  0  0  0  0  0
    1.9371    3.1370   28.7658 O   0  0  0  0  0  0  0  0  0  0  0  0
   -2.1634   -0.7392   25.6649 C   0  0  2  0  0  0  0  0  0  0  0  0
   -2.0934   -0.8988   24.2471 O   0  0  0  0  0  0  0  0  0  0  0  0
    8.8169    7.2949   28.4907 C   0  0  2  0  0  0  0  0  0  0  0  0
    8.1111    6.0533   28.1905 O   0  0  0  0  0  0  0  0  0  0  0  0
    3.5467    6.3672   28.0149 C   0  0  2  0  0  0  0  0  0  0  0  0
    3.3499    5.0143   28.5019 O   0  0  0  0  0  0  0  0  0  0  0  0
    3.2498    1.0780   28.6851 C   0  0  0  0  0  0  0  0  0  0  0  0
    3.0154    0.7227   30.0366 O   0  0  0  0  0  0  0  0  0  0  0  0
   -2.4948    0.7425   26.0246 C   0  0  1  0  0  0  0  0  0  0  0  0
   -1.3639    1.5971   25.6736 O   0  0  0  0  0  0  0  0  0  0  0  0
    9.9224    7.4447   27.4218 C   0  0  0  0  0  0  0  0  0  0  0  0
    9.4096    7.2321   26.1174 O   0  0  0  0  0  0  0  0  0  0  0  0
    2.5702    6.6065   26.8217 C   0  0  1  0  0  0  0  0  0  0  0  0
    1.2321    6.6095   27.3169 O   0  0  0  0  0  0  0  0  0  0  0  0
   -3.7648    1.2631   25.3040 C   0  0  0  0  0  0  0  0  0  0  0  0
   -5.0008    0.9472   26.0426 N   0  0  0  0  0  0  0  0  0  0  0  0
  1  2  1  1  0  0  0
  1  7  1  0  0  0  0
  1 30  1  0  0  0  0
  3  4  1  6  0  0  0
  3  9  1  0  0  0  0
  3 39  1  0  0  0  0
  5 10  1  0  0  0  0
  5 26  1  0  0  0  0
  5 32  1  1  0  0  0
  6 12  1  0  0  0  0
  6 36  1  0  0  0  0
  6 19  1  6  0  0  0
  7  8  1  1  0  0  0
  7 14  1  0  0  0  0
  9 16  1  0  0  0  0
 10 11  1  6  0  0  0
 10 18  1  0  0  0  0
 12 13  1  6  0  0  0
 12 20  1  0  0  0  0
 14 15  1  1  0  0  0
 14 22  1  0  0  0  0
 16 17  1  6  0  0  0
 16 24  1  0  0  0  0
 18 19  1  1  0  0  0
 18 25  1  0  0  0  0
 20 21  1  1  0  0  0
 20 27  1  0  0  0  0
 22 23  1  1  0  0  0
 22 29  1  0  0  0  0
 24  2  1  1  0  0  0
 24 31  1  0  0  0  0
 25 26  1  0  0  0  0
 25 33  1  1  0  0  0
 27 28  1  6  0  0  0
 27 35  1  0  0  0  0
 29 30  1  0  0  0  0
 29 37  1  6  0  0  0
 31 32  1  6  0  0  0
 31 39  1  0  0  0  0
 33 34  1  0  0  0  0
 35 36  1  0  0  0  0
 35 41  1  6  0  0  0
 37 38  1  0  0  0  0
 39 40  1  1  0  0  0
 41 42  1  0  0  0  0
M  END
>  <CHROM.1>
-160.84241734,-113.68696217,-49.71496390,-76.83615225,-64.13305478,66.16106959
-176.87492972,-142.86921061,-154.99672144,-60.41722652,-56.61946028,-54.96577558
-175.16989056,-46.19629679,169.13482133,-123.93254996,85.10099955,112.03594059
86.14577449,-179.15922106,41.61592203,-149.98106945,3.32196772,4.19246818
27.46213008,-0.35721390,0.57831647,2.57900661

>  <Name>
1fyp_lig

>  <RI>
0

>  <Rbt.Current_Directory>
/home/itssahil/PROJECTS/Mol_Feturizer/New_Systems/rnas/1fyp

>  <Rbt.Executable>
rbdock ($Id: //depot/dev/client3/rdock/2013.1/src/exe/rbdock.cxx#4 $)

>  <Rbt.Library>
libRbt.so (2013.1, Build901 2013/11/27)

>  <Rbt.Parameter_File>
/export/apps/rDock/src/rDock_2013.1_src/data/scripts/dock_solv.prm

>  <Rbt.Receptor>
prm/pocket_docking_8.prm

>  <SCORE>
-49.207

>  <SCORE.INTER>
-50.5776

>  <SCORE.INTER.CONST>
1

>  <SCORE.INTER.POLAR>
-6.79599

>  <SCORE.INTER.ROT>
14

>  <SCORE.INTER.SOLV>
16.342

>  <SCORE.INTER.VDW>
-29.4458

>  <SCORE.INTER.norm>
-1.20423

>  <SCORE.INTRA>
1.37065

>  <SCORE.INTRA.DIHEDRAL>
-11.3958

>  <SCORE.INTRA.DIHEDRAL.0>
48.7173

>  <SCORE.INTRA.POLAR>
-0.0889768

>  <SCORE.INTRA.POLAR.0>
-1.54691

>  <SCORE.INTRA.REPUL>
0

>  <SCORE.INTRA.REPUL.0>
0

>  <SCORE.INTRA.SOLV>
-0.717697

>  <SCORE.INTRA.SOLV.lig_0>
-64.052

>  <SCORE.INTRA.VDW>
7.7299

>  <SCORE.INTRA.VDW.0>
-7.0667

>  <SCORE.INTRA.norm>
0.0326344

>  <SCORE.RESTR>
0

>  <SCORE.RESTR.CAVITY>
0

>  <SCORE.RESTR.norm>
0

>  <SCORE.SYSTEM>
0

>  <SCORE.SYSTEM.CONST>
0

>  <SCORE.SYSTEM.DIHEDRAL>
0

>  <SCORE.SYSTEM.SOLV>
0

>  <SCORE.SYSTEM.norm>
0

>  <SCORE.heavy>
42

>  <SCORE.norm>
-1.17159

>  <RMSD>
2.359

$$$$
1fyp_lig
 OpenBabel11021811393D
libRbt.so/2013.1/901 2013/11/27
 42 45  0  0  0  0  0  0  0  0999 V2000
    6.5416    4.6017   27.3491 C   0  0  2  0  0  0  0  0  0  0  0  0
    5.2727    5.0920   26.8276 O   0  0  0  0  0  0  0  0  0  0  0  0
    4.0194    7.5649   23.5788 C   0  0  2  0  0  0  0  0  0  0  0  0
    3.7972    8.2163   22.2747 N   0  0  0  0  0  0  0  0  0  0  0  0
    1.9828    3.6291   25.4141 C   0  0  1  0  0  0  0  0  0  0  0  0
   -1.3711    1.1237   25.4569 C   0  0  1  0  0  0  0  0  0  0  0  0
    6.3367    3.7396   28.6363 C   0  0  2  0  0  0  0  0  0  0  0  0
    5.3152    2.6923   28.4233 N   0  0  0  0  0  0  0  0  0  0  0  0
    5.5313    7.5164   23.8768 C   0  0  0  0  0  0  0  0  0  0  0  0
    1.6851    2.1882   24.9914 C   0  0  2  0  0  0  0  0  0  0  0  0
    0.8569    2.1936   23.8279 O   0  0  0  0  0  0  0  0  0  0  0  0
   -2.8277    1.6790   25.4238 C   0  0  2  0  0  0  0  0  0  0  0  0
   -3.2915    2.1464   26.7530 N   0  0  0  0  0  0  0  0  0  0  0  0
    5.9456    4.6383   29.8511 C   0  0  1  0  0  0  0  0  0  0  0  0
    5.9179    3.8634   31.0471 O   0  0  0  0  0  0  0  0  0  0  0  0
    5.8385    6.8649   25.2529 C   0  0  2  0  0  0  0  0  0  0  0  0
    7.3071    6.7953   25.4017 N   0  0  0  0  0  0  0  0  0  0  0  0
    0.9279    1.6538   26.2102 C   0  0  2  0  0  0  0  0  0  0  0  0
   -0.4801    2.0180   26.1733 O   0  0  0  0  0  0  0  0  0  0  0  0
   -3.8090    0.6290   24.8175 C   0  0  1  0  0  0  0  0  0  0  0  0
   -3.5854    0.5586   23.4109 O   0  0  0  0  0  0  0  0  0  0  0  0
    6.9412    5.8093   30.0457 C   0  0  2  0  0  0  0  0  0  0  0  0
    6.4793    6.6411   31.1056 O   0  0  0  0  0  0  0  0  0  0  0  0
    5.1771    5.4495   25.4189 C   0  0  2  0  0  0  0  0  0  0  0  0
    1.6395    2.3664   27.3689 C   0  0  2  0  0  0  0  0  0  0  0  0
    2.0647    3.6408   26.8483 O   0  0  0  0  0  0  0  0  0  0  0  0
   -3.6516   -0.8048   25.4087 C   0  0  2  0  0  0  0  0  0  0  0  0
   -4.1897   -0.8120   26.7320 O   0  0  0  0  0  0  0  0  0  0  0  0
    7.0788    6.6258   28.7294 C   0  0  2  0  0  0  0  0  0  0  0  0
    7.4421    5.7226   27.6421 O   0  0  0  0  0  0  0  0  0  0  0  0
    3.6692    5.4234   24.9769 C   0  0  2  0  0  0  0  0  0  0  0  0
    3.2606    4.0368   24.8476 O   0  0  0  0  0  0  0  0  0  0  0  0
    2.8508    1.5833   27.9055 C   0  0  0  0  0  0  0  0  0  0  0  0
    2.6819    0.1910   27.7037 O   0  0  0  0  0  0  0  0  0  0  0  0
   -2.1511   -1.2316   25.4349 C   0  0  1  0  0  0  0  0  0  0  0  0
   -1.3586   -0.1981   26.0955 O   0  0  0  0  0  0  0  0  0  0  0  0
    8.1556    7.7333   28.7626 C   0  0  0  0  0  0  0  0  0  0  0  0
    7.8341    8.7357   29.7119 O   0  0  0  0  0  0  0  0  0  0  0  0
    3.4227    6.1372   23.6114 C   0  0  1  0  0  0  0  0  0  0  0  0
    2.0169    6.2121   23.3797 O   0  0  0  0  0  0  0  0  0  0  0  0
   -1.9262   -2.5827   26.1610 C   0  0  0  0  0  0  0  0  0  0  0  0
   -0.5644   -2.7063   26.7115 N   0  0  0  0  0  0  0  0  0  0  0  0
  1  2  1  1  0  0  0
  1  7  1  0  0  0  0
  1 30  1  0  0  0  0
  3  4  1  6  0  0  0
  3  9  1  0  0  0  0
  3 39  1  0  0  0  0
  5 10  1  0  0  0  0
  5 26  1  0  0  0  0
  5 32  1  6  0  0  0
  6 12  1  0  0  0  0
  6 36  1  0  0  0  0
  6 19  1  1  0  0  0
  7  8  1  6  0  0  0
  7 14  1  0  0  0  0
  9 16  1  0  0  0  0
 10 11  1  6  0  0  0
 10 18  1  0  0  0  0
 12 13  1  1  0  0  0
 12 20  1  0  0  0  0
 14 15  1  1  0  0  0
 14 22  1  0  0  0  0
 16 17  1  6  0  0  0
 16 24  1  0  0  0  0
 18 19  1  6  0  0  0
 18 25  1  0  0  0  0
 20 21  1  6  0  0  0
 20 27  1  0  0  0  0
 22 23  1  1  0  0  0
 22 29  1  0  0  0  0
 24  2  1  1  0  0  0
 24 31  1  0  0  0  0
 25 26  1  0  0  0  0
 25 33  1  6  0  0  0
 27 28  1  1  0  0  0
 27 35  1  0  0  0  0
 29 30  1  0  0  0  0
 29 37  1  1  0  0  0
 31 32  1  6  0  0  0
 31 39  1  0  0  0  0
 33 34  1  0  0  0  0
 35 36  1  0  0  0  0
 35 41  1  1  0  0  0
 37 38  1  0  0  0  0
 39 40  1  1  0  0  0
 41 42  1  0  0  0  0
M  END
>  <CHROM.1>
-156.44710178,-78.29235646,-36.67472123,53.21308111,127.17096965,-162.64600405
-41.33122352,-57.59082004,87.07688709,-176.51502310,-70.57336331,62.51182416
-28.06012429,-70.41790352,-64.19096554,134.84699973,172.35883578,141.25720975
-154.61501141,52.87500427,-163.96659750,-104.45466196,2.58455843,3.49303886
26.44444016,-0.22107043,0.62870767,2.24155441

>  <Name>
1fyp_lig

>  <RI>
0

>  <Rbt.Current_Directory>
/home/itssahil/PROJECTS/Mol_Feturizer/New_Systems/rnas/1fyp

>  <Rbt.Executable>
rbdock ($Id: //depot/dev/client3/rdock/2013.1/src/exe/rbdock.cxx#4 $)

>  <Rbt.Library>
libRbt.so (2013.1, Build901 2013/11/27)

>  <Rbt.Parameter_File>
/export/apps/rDock/src/rDock_2013.1_src/data/scripts/dock_solv.prm

>  <Rbt.Receptor>
prm/pocket_docking_4.prm

>  <SCORE>
-47.5368

>  <SCORE.INTER>
-49.6992

>  <SCORE.INTER.CONST>
1

>  <SCORE.INTER.POLAR>
-6.74131

>  <SCORE.INTER.ROT>
14

>  <SCORE.INTER.SOLV>
20.1216

>  <SCORE.INTER.VDW>
-30.3023

>  <SCORE.INTER.norm>
-1.18331

>  <SCORE.INTRA>
2.1624

>  <SCORE.INTRA.DIHEDRAL>
-10.8675

>  <SCORE.INTRA.DIHEDRAL.0>
48.7173

>  <SCORE.INTRA.POLAR>
0.8533

>  <SCORE.INTRA.POLAR.0>
-1.54691

>  <SCORE.INTRA.REPUL>
0.120351

>  <SCORE.INTRA.REPUL.0>
0

>  <SCORE.INTRA.SOLV>
-1.31755

>  <SCORE.INTRA.SOLV.lig_0>
-64.052

>  <SCORE.INTRA.VDW>
4.75195

>  <SCORE.INTRA.VDW.0>
-7.0667

>  <SCORE.INTRA.norm>
0.0514858

>  <SCORE.RESTR>
0

>  <SCORE.RESTR.CAVITY>
0

>  <SCORE.RESTR.norm>
0

>  <SCORE.SYSTEM>
0

>  <SCORE.SYSTEM.CONST>
0

>  <SCORE.SYSTEM.DIHEDRAL>
0

>  <SCORE.SYSTEM.SOLV>
0

>  <SCORE.SYSTEM.norm>
0

>  <SCORE.heavy>
42

>  <SCORE.norm>
-1.13183

>  <RMSD>
2.368

$$$$
1fyp_lig
 OpenBabel11021811393D
libRbt.so/2013.1/901 2013/11/27
 42 45  0  0  0  0  0  0  0  0999 V2000
    6.9395    7.5826   27.6889 C   0  0  2  0  0  0  0  0  0  0  0  0
    7.3950    6.6516   26.6652 O   0  0  0  0  0  0  0  0  0  0  0  0
    4.3339    7.8286   23.9293 C   0  0  2  0  0  0  0  0  0  0  0  0
    3.4610    8.0486   22.7614 N   0  0  0  0  0  0  0  0  0  0  0  0
    4.0527    3.8895   25.6681 C   0  0  1  0  0  0  0  0  0  0  0  0
    1.1502    0.5386   25.4830 C   0  0  1  0  0  0  0  0  0  0  0  0
    8.0992    7.9799   28.6582 C   0  0  2  0  0  0  0  0  0  0  0  0
    9.2938    8.4266   27.9104 N   0  0  0  0  0  0  0  0  0  0  0  0
    5.7808    8.2206   23.5693 C   0  0  0  0  0  0  0  0  0  0  0  0
    4.4288    2.4099   25.5540 C   0  0  2  0  0  0  0  0  0  0  0  0
    4.5716    2.0586   24.1772 O   0  0  0  0  0  0  0  0  0  0  0  0
    0.4587    0.0647   24.1683 C   0  0  2  0  0  0  0  0  0  0  0  0
   -0.0005    1.1950   23.3246 N   0  0  0  0  0  0  0  0  0  0  0  0
    8.4647    6.7932   29.6038 C   0  0  1  0  0  0  0  0  0  0  0  0
    9.4088    7.2181   30.5836 O   0  0  0  0  0  0  0  0  0  0  0  0
    6.7540    8.0394   24.7662 C   0  0  2  0  0  0  0  0  0  0  0  0
    8.1162    8.3627   24.2934 N   0  0  0  0  0  0  0  0  0  0  0  0
    3.2088    1.7271   26.1784 C   0  0  2  0  0  0  0  0  0  0  0  0
    2.1215    1.5852   25.2223 O   0  0  0  0  0  0  0  0  0  0  0  0
   -0.7087   -0.9221   24.4791 C   0  0  1  0  0  0  0  0  0  0  0  0
   -0.1514   -2.1724   24.8787 O   0  0  0  0  0  0  0  0  0  0  0  0
    7.2179    6.2317   30.3322 C   0  0  2  0  0  0  0  0  0  0  0  0
    7.6015    5.0975   31.1036 O   0  0  0  0  0  0  0  0  0  0  0  0
    6.6902    6.5996   25.3916 C   0  0  2  0  0  0  0  0  0  0  0  0
    2.8236    2.7116   27.2915 C   0  0  2  0  0  0  0  0  0  0  0  0
    3.1857    4.0190   26.8063 O   0  0  0  0  0  0  0  0  0  0  0  0
   -1.6710   -0.4350   25.6046 C   0  0  2  0  0  0  0  0  0  0  0  0
   -2.4764    0.6249   25.0864 O   0  0  0  0  0  0  0  0  0  0  0  0
    6.1183    5.8467   29.3022 C   0  0  2  0  0  0  0  0  0  0  0  0
    5.8319    6.9999   28.4548 O   0  0  0  0  0  0  0  0  0  0  0  0
    5.2190    6.1015   25.6314 C   0  0  2  0  0  0  0  0  0  0  0  0
    5.2614    4.6726   25.8819 O   0  0  0  0  0  0  0  0  0  0  0  0
    3.5385    2.4250   28.6239 C   0  0  0  0  0  0  0  0  0  0  0  0
    4.9376    2.3093   28.4318 O   0  0  0  0  0  0  0  0  0  0  0  0
   -0.8660    0.0579   26.8469 C   0  0  1  0  0  0  0  0  0  0  0  0
    0.1384    1.0308   26.4260 O   0  0  0  0  0  0  0  0  0  0  0  0
    4.7728    5.4090   29.9228 C   0  0  0  0  0  0  0  0  0  0  0  0
    3.6753    5.9030   29.1738 O   0  0  0  0  0  0  0  0  0  0  0  0
    4.2828    6.3582   24.4098 C   0  0  1  0  0  0  0  0  0  0  0  0
    2.9440    6.0334   24.7810 O   0  0  0  0  0  0  0  0  0  0  0  0
   -1.7707    0.7011   27.9290 C   0  0  0  0  0  0  0  0  0  0  0  0
   -2.3249    1.9983   27.5014 N   0  0  0  0  0  0  0  0  0  0  0  0
  1  2  1  6  0  0  0
  1  7  1  0  0  0  0
  1 30  1  0  0  0  0
  3  4  1  6  0  0  0
  3  9  1  0  0  0  0
  3 39  1  0  0  0  0
  5 10  1  0  0  0  0
  5 26  1  0  0  0  0
  5 32  1  1  0  0  0
  6 12  1  0  0  0  0
  6 36  1  0  0  0  0
  6 19  1  6  0  0  0
  7  8  1  6  0  0  0
  7 14  1  0  0  0  0
  9 16  1  0  0  0  0
 10 11  1  6  0  0  0
 10 18  1  0  0  0  0
 12 13  1  1  0  0  0
 12 20  1  0  0  0  0
 14 15  1  1  0  0  0
 14 22  1  0  0  0  0
 16 17  1  6  0  0  0
 16 24  1  0  0  0  0
 18 19  1  6  0  0  0
 18 25  1  0  0  0  0
 20 21  1  1  0  0  0
 20 27  1  0  0  0  0
 22 23  1  6  0  0  0
 22 29  1  0  0  0  0
 24  2  1  1  0  0  0
 24 31  1  0  0  0  0
 25 26  1  0  0  0  0
 25 33  1  1  0  0  0
 27 28  1  6  0  0  0
 27 35  1  0  0  0  0
 29 30  1  0  0  0  0
 29 37  1  1  0  0  0
 31 32  1  6  0  0  0
 31 39  1  0  0  0  0
 33 34  1  0  0  0  0
 35 36  1  0  0  0  0
 35 41  1  1  0  0  0
 37 38  1  0  0  0  0
 39 40  1  1  0  0  0
 41 42  1  0  0  0  0
M  END
>  <CHROM.1>
-154.24928358,58.43613913,-177.66017500,166.46829875,100.37363559,73.17123706
-65.23197984,174.64134752,156.61233031,-154.62603680,73.17522364,65.08553805
51.24257720,61.33032647,141.15914184,-158.52376907,162.10518011,-176.17062768
-69.80349841,-41.48792807,70.85579160,49.22697031,3.86313313,4.18918880,26.54490277
-0.09627990,0.74143237,2.01694755

>  <Name>
1fyp_lig

>  <RI>
0

>  <Rbt.Current_Directory>
/home/itssahil/PROJECTS/Mol_Feturizer/New_Systems/rnas/1fyp

>  <Rbt.Executable>
rbdock ($Id: //depot/dev/client3/rdock/2013.1/src/exe/rbdock.cxx#4 $)

>  <Rbt.Library>
libRbt.so (2013.1, Build901 2013/11/27)

>  <Rbt.Parameter_File>
/export/apps/rDock/src/rDock_2013.1_src/data/scripts/dock_solv.prm

>  <Rbt.Receptor>
prm/pocket_docking_2.prm

>  <SCORE>
-45.892

>  <SCORE.INTER>
-43.9438

>  <SCORE.INTER.CONST>
1

>  <SCORE.INTER.POLAR>
-5.59761

>  <SCORE.INTER.ROT>
14

>  <SCORE.INTER.SOLV>
15.5832

>  <SCORE.INTER.VDW>
-28.7649

>  <SCORE.INTER.norm>
-1.04628

>  <SCORE.INTRA>
-5.10651

>  <SCORE.INTRA.DIHEDRAL>
-23.0889

>  <SCORE.INTRA.DIHEDRAL.0>
48.7173

>  <SCORE.INTRA.POLAR>
0.640027

>  <SCORE.INTRA.POLAR.0>
-1.54691

>  <SCORE.INTRA.REPUL>
0.134832

>  <SCORE.INTRA.REPUL.0>
0

>  <SCORE.INTRA.SOLV>
0.721335

>  <SCORE.INTRA.SOLV.lig_0>
-64.052

>  <SCORE.INTRA.VDW>
3.22702

>  <SCORE.INTRA.VDW.0>
-7.0667

>  <SCORE.INTRA.norm>
-0.121584

>  <SCORE.RESTR>
3.15837

>  <SCORE.RESTR.CAVITY>
3.15837

>  <SCORE.RESTR.norm>
0.0751994

>  <SCORE.SYSTEM>
0

>  <SCORE.SYSTEM.CONST>
0

>  <SCORE.SYSTEM.DIHEDRAL>
0

>  <SCORE.SYSTEM.SOLV>
0

>  <SCORE.SYSTEM.norm>
0

>  <SCORE.heavy>
42

>  <SCORE.norm>
-1.09267

>  <RMSD>
2.403

$$$$
1fyp_lig
 OpenBabel11021811393D
libRbt.so/2013.1/901 2013/11/27
 42 45  0  0  0  0  0  0  0  0999 V2000
    6.0357    7.1801   27.1649 C   0  0  2  0  0  0  0  0  0  0  0  0
    6.2890    6.1044   26.2157 O   0  0  0  0  0  0  0  0  0  0  0  0
    3.7456    7.7851   23.2245 C   0  0  2  0  0  0  0  0  0  0  0  0
    3.0585    8.1737   21.9790 N   0  0  0  0  0  0  0  0  0  0  0  0
    2.8072    3.8929   25.4868 C   0  0  1  0  0  0  0  0  0  0  0  0
   -0.1976    0.7764   25.8980 C   0  0  1  0  0  0  0  0  0  0  0  0
    7.3639    7.7183   27.7880 C   0  0  2  0  0  0  0  0  0  0  0  0
    8.3539    8.0454   26.7400 N   0  0  0  0  0  0  0  0  0  0  0  0
    5.2596    8.0339   23.0741 C   0  0  0  0  0  0  0  0  0  0  0  0
    2.7907    2.3795   25.2567 C   0  0  2  0  0  0  0  0  0  0  0  0
    2.1540    2.0931   24.0109 O   0  0  0  0  0  0  0  0  0  0  0  0
    0.0898    0.2532   24.4576 C   0  0  2  0  0  0  0  0  0  0  0  0
   -0.0186    1.3181   23.4306 N   0  0  0  0  0  0  0  0  0  0  0  0
    7.9627    6.6880   28.7960 C   0  0  1  0  0  0  0  0  0  0  0  0
    9.0820    7.2552   29.4721 O   0  0  0  0  0  0  0  0  0  0  0  0
    6.0459    7.6707   24.3634 C   0  0  2  0  0  0  0  0  0  0  0  0
    7.4838    7.8679   24.0859 N   0  0  0  0  0  0  0  0  0  0  0  0
    1.9468    1.8918   26.4376 C   0  0  2  0  0  0  0  0  0  0  0  0
    0.5221    2.0078   26.1671 O   0  0  0  0  0  0  0  0  0  0  0  0
   -0.8268   -0.9613   24.1144 C   0  0  1  0  0  0  0  0  0  0  0  0
   -0.3641   -2.0981   24.8404 O   0  0  0  0  0  0  0  0  0  0  0  0
    6.9212    6.2444   29.8537 C   0  0  2  0  0  0  0  0  0  0  0  0
    7.4984    5.2395   30.6818 O   0  0  0  0  0  0  0  0  0  0  0  0
    5.7532    6.2111   24.8655 C   0  0  2  0  0  0  0  0  0  0  0  0
    2.3649    2.8597   27.5533 C   0  0  2  0  0  0  0  0  0  0  0  0
    2.6713    4.1072   26.9008 O   0  0  0  0  0  0  0  0  0  0  0  0
   -2.3309   -0.7411   24.4597 C   0  0  2  0  0  0  0  0  0  0  0  0
   -2.8871    0.1673   23.5079 O   0  0  0  0  0  0  0  0  0  0  0  0
    5.6381    5.7091   29.1570 C   0  0  2  0  0  0  0  0  0  0  0  0
    5.1387    6.7211   28.2316 O   0  0  0  0  0  0  0  0  0  0  0  0
    4.2198    5.8672   24.8858 C   0  0  2  0  0  0  0  0  0  0  0  0
    4.0813    4.4298   25.0307 O   0  0  0  0  0  0  0  0  0  0  0  0
    3.5842    2.3675   28.3531 C   0  0  0  0  0  0  0  0  0  0  0  0
    4.7276    2.2702   27.5219 O   0  0  0  0  0  0  0  0  0  0  0  0
   -2.4901   -0.1727   25.9040 C   0  0  1  0  0  0  0  0  0  0  0  0
   -1.6385    1.0026   26.0652 O   0  0  0  0  0  0  0  0  0  0  0  0
    4.4731    5.3717   30.1141 C   0  0  0  0  0  0  0  0  0  0  0  0
    3.2681    5.1511   29.4008 O   0  0  0  0  0  0  0  0  0  0  0  0
    3.4810    6.3027   23.5823 C   0  0  1  0  0  0  0  0  0  0  0  0
    2.0791    6.1077   23.7621 O   0  0  0  0  0  0  0  0  0  0  0  0
   -3.9540    0.2142   26.2363 C   0  0  0  0  0  0  0  0  0  0  0  0
   -4.1752    1.6710   26.1929 N   0  0  0  0  0  0  0  0  0  0  0  0
  1  2  1  6  0  0  0
  1  7  1  0  0  0  0
  1 30  1  0  0  0  0
  3  4  1  6  0  0  0
  3  9  1  0  0  0  0
  3 39  1  0  0  0  0
  5 10  1  0  0  0  0
  5 26  1  0  0  0  0
  5 32  1  1  0  0  0
  6 12  1  0  0  0  0
  6 36  1  0  0  0  0
  6 19  1  6  0  0  0
  7  8  1  6  0  0  0
  7 14  1  0  0  0  0
  9 16  1  0  0  0  0
 10 11  1  6  0  0  0
 10 18  1  0  0  0  0
 12 13  1  6  0  0  0
 12 20  1  0  0  0  0
 14 15  1  1  0  0  0
 14 22  1  0  0  0  0
 16 17  1  6  0  0  0
 16 24  1  0  0  0  0
 18 19  1  6  0  0  0
 18 25  1  0  0  0  0
 20 21  1  1  0  0  0
 20 27  1  0  0  0  0
 22 23  1  6  0  0  0
 22 29  1  0  0  0  0
 24  2  1  1  0  0  0
 24 31  1  0  0  0  0
 25 26  1  0  0  0  0
 25 33  1  6  0  0  0
 27 28  1  6  0  0  0
 27 35  1  0  0  0  0
 29 30  1  0  0  0  0
 29 37  1  1  0  0  0
 31 32  1  6  0  0  0
 31 39  1  0  0  0  0
 33 34  1  0  0  0  0
 35 36  1  0  0  0  0
 35 41  1  6  0  0  0
 37 38  1  0  0  0  0
 39 40  1  1  0  0  0
 41 42  1  0  0  0  0
M  END
>  <CHROM.1>
-126.09264090,45.12012956,-55.40212565,13.11905807,103.84145589,144.08259240
66.05456539,-118.11061460,106.31637638,-76.03369238,-169.23687071,-46.74691387
63.05116181,176.31250749,168.24595101,161.20352548,167.12633586,-70.19715717
-103.61638577,-44.48701514,70.23434494,-60.06125879,3.04115792,4.06663268
26.07500999,0.12396877,-0.69299290,-1.06645530

>  <Name>
1fyp_lig

>  <RI>
0

>  <Rbt.Current_Directory>
/home/itssahil/PROJECTS/Mol_Feturizer/New_Systems/rnas/1fyp

>  <Rbt.Executable>
rbdock ($Id: //depot/dev/client3/rdock/2013.1/src/exe/rbdock.cxx#4 $)

>  <Rbt.Library>
libRbt.so (2013.1, Build901 2013/11/27)

>  <Rbt.Parameter_File>
/export/apps/rDock/src/rDock_2013.1_src/data/scripts/dock_solv.prm

>  <Rbt.Receptor>
prm/pocket_docking_3.prm

>  <SCORE>
-48.672

>  <SCORE.INTER>
-50.1298

>  <SCORE.INTER.CONST>
1

>  <SCORE.INTER.POLAR>
-6.32003

>  <SCORE.INTER.ROT>
14

>  <SCORE.INTER.SOLV>
17.4948

>  <SCORE.INTER.VDW>
-31.1181

>  <SCORE.INTER.norm>
-1.19357

>  <SCORE.INTRA>
1.45784

>  <SCORE.INTRA.DIHEDRAL>
-9.96597

>  <SCORE.INTRA.DIHEDRAL.0>
48.7173

>  <SCORE.INTRA.POLAR>
-0.0583705

>  <SCORE.INTRA.POLAR.0>
-1.54691

>  <SCORE.INTRA.REPUL>
0.00959956

>  <SCORE.INTRA.REPUL.0>
0

>  <SCORE.INTRA.SOLV>
1.9825

>  <SCORE.INTRA.SOLV.lig_0>
-64.052

>  <SCORE.INTRA.VDW>
5.60004

>  <SCORE.INTRA.VDW.0>
-7.0667

>  <SCORE.INTRA.norm>
0.0347105

>  <SCORE.RESTR>
0

>  <SCORE.RESTR.CAVITY>
0

>  <SCORE.RESTR.norm>
0

>  <SCORE.SYSTEM>
0

>  <SCORE.SYSTEM.CONST>
0

>  <SCORE.SYSTEM.DIHEDRAL>
0

>  <SCORE.SYSTEM.SOLV>
0

>  <SCORE.SYSTEM.norm>
0

>  <SCORE.heavy>
42

>  <SCORE.norm>
-1.15886

>  <RMSD>
2.407

$$$$
1fyp_lig
 OpenBabel11021811393D
libRbt.so/2013.1/901 2013/11/27
 42 45  0  0  0  0  0  0  0  0999 V2000
    6.9393    5.8362   26.8704 C   0  0  2  0  0  0  0  0  0  0  0  0
    5.7584    6.5322   26.3772 O   0  0  0  0  0  0  0  0  0  0  0  0
    3.9261    8.1851   22.8912 C   0  0  2  0  0  0  0  0  0  0  0  0
    3.5395    8.5792   21.5239 N   0  0  0  0  0  0  0  0  0  0  0  0
    2.6877    4.1969   24.9336 C   0  0  1  0  0  0  0  0  0  0  0  0
   -0.6070    1.7515   26.4251 C   0  0  1  0  0  0  0  0  0  0  0  0
    6.5871    4.4016   27.3801 C   0  0  2  0  0  0  0  0  0  0  0  0
    5.8087    3.6505   26.3723 N   0  0  0  0  0  0  0  0  0  0  0  0
    5.4175    8.5055   23.1150 C   0  0  0  0  0  0  0  0  0  0  0  0
    2.8717    2.6994   25.1934 C   0  0  2  0  0  0  0  0  0  0  0  0
    2.6505    1.9744   23.9830 O   0  0  0  0  0  0  0  0  0  0  0  0
   -0.3256    0.3235   26.9845 C   0  0  2  0  0  0  0  0  0  0  0  0
    0.1390   -0.6191   25.9376 N   0  0  0  0  0  0  0  0  0  0  0  0
    5.8054    4.4671   28.7294 C   0  0  1  0  0  0  0  0  0  0  0  0
    5.6309    3.1560   29.2607 O   0  0  0  0  0  0  0  0  0  0  0  0
    5.8885    8.1399   24.5492 C   0  0  2  0  0  0  0  0  0  0  0  0
    7.3392    8.4092   24.6303 N   0  0  0  0  0  0  0  0  0  0  0  0
    1.7685    2.4209   26.2179 C   0  0  2  0  0  0  0  0  0  0  0  0
    0.4785    2.2115   25.5785 O   0  0  0  0  0  0  0  0  0  0  0  0
   -1.5729   -0.2342   27.7370 C   0  0  1  0  0  0  0  0  0  0  0  0
   -1.6961    0.4517   28.9811 O   0  0  0  0  0  0  0  0  0  0  0  0
    6.5443    5.3309   29.7821 C   0  0  2  0  0  0  0  0  0  0  0  0
    5.7387    5.4274   30.9528 O   0  0  0  0  0  0  0  0  0  0  0  0
    5.5577    6.6545   24.9397 C   0  0  2  0  0  0  0  0  0  0  0  0
    1.7589    3.7167   27.0408 C   0  0  2  0  0  0  0  0  0  0  0  0
    2.1301    4.7679   26.1281 O   0  0  0  0  0  0  0  0  0  0  0  0
   -2.9122   -0.0724   26.9560 C   0  0  2  0  0  0  0  0  0  0  0  0
   -2.9271   -1.0121   25.8803 O   0  0  0  0  0  0  0  0  0  0  0  0
    6.8450    6.7439   29.2066 C   0  0  2  0  0  0  0  0  0  0  0  0
    7.5725    6.6033   27.9492 O   0  0  0  0  0  0  0  0  0  0  0  0
    4.0836    6.2422   24.5834 C   0  0  2  0  0  0  0  0  0  0  0  0
    3.9870    4.7964   24.6649 O   0  0  0  0  0  0  0  0  0  0  0  0
    2.7329    3.6819   28.2319 C   0  0  0  0  0  0  0  0  0  0  0  0
    2.4153    2.6188   29.1131 O   0  0  0  0  0  0  0  0  0  0  0  0
   -3.0602    1.3798   26.4050 C   0  0  1  0  0  0  0  0  0  0  0  0
   -1.8594    1.7460   25.6590 O   0  0  0  0  0  0  0  0  0  0  0  0
    7.7075    7.6454   30.1180 C   0  0  0  0  0  0  0  0  0  0  0  0
    9.0179    7.1251   30.2655 O   0  0  0  0  0  0  0  0  0  0  0  0
    3.6584    6.6825   23.1482 C   0  0  1  0  0  0  0  0  0  0  0  0
    2.2660    6.4200   22.9810 O   0  0  0  0  0  0  0  0  0  0  0  0
   -4.2972    1.5476   25.4858 C   0  0  0  0  0  0  0  0  0  0  0  0
   -4.1526    0.8245   24.2094 N   0  0  0  0  0  0  0  0  0  0  0  0
  1  2  1  1  0  0  0
  1  7  1  0  0  0  0
  1 30  1  0  0  0  0
  3  4  1  6  0  0  0
  3  9  1  0  0  0  0
  3 39  1  0  0  0  0
  5 10  1  0  0  0  0
  5 26  1  0  0  0  0
  5 32  1  1  0  0  0
  6 12  1  0  0  0  0
  6 36  1  0  0  0  0
  6 19  1  6  0  0  0
  7  8  1  6  0  0  0
  7 14  1  0  0  0  0
  9 16  1  0  0  0  0
 10 11  1  6  0  0  0
 10 18  1  0  0  0  0
 12 13  1  6  0  0  0
 12 20  1  0  0  0  0
 14 15  1  1  0  0  0
 14 22  1  0  0  0  0
 16 17  1  6  0  0  0
 16 24  1  0  0  0  0
 18 19  1  6  0  0  0
 18 25  1  0  0  0  0
 20 21  1  1  0  0  0
 20 27  1  0  0  0  0
 22 23  1  1  0  0  0
 22 29  1  0  0  0  0
 24  2  1  1  0  0  0
 24 31  1  0  0  0  0
 25 26  1  0  0  0  0
 25 33  1  1  0  0  0
 27 28  1  6  0  0  0
 27 35  1  0  0  0  0
 29 30  1  0  0  0  0
 29 37  1  1  0  0  0
 31 32  1  6  0  0  0
 31 39  1  0  0  0  0
 33 34  1  0  0  0  0
 35 36  1  0  0  0  0
 35 41  1  6  0  0  0
 37 38  1  0  0  0  0
 39 40  1  1  0  0  0
 41 42  1  0  0  0  0
M  END
>  <CHROM.1>
-103.50750371,-105.38145041,168.27962384,-45.76859589,-68.67301706,-23.02854245
-53.77460321,-171.66240818,171.45744499,-65.01170404,-63.50400626,-62.07099251
-59.34844148,-42.87858598,65.86601236,154.72459286,-171.08384397,-179.45400444
-68.86556541,-178.58297357,119.36140979,-81.61461141,2.89545635,4.11405612
26.37654627,-0.24227335,0.58641105,2.11661793

>  <Name>
1fyp_lig

>  <RI>
0

>  <Rbt.Current_Directory>
/home/itssahil/PROJECTS/Mol_Feturizer/New_Systems/rnas/1fyp

>  <Rbt.Executable>
rbdock ($Id: //depot/dev/client3/rdock/2013.1/src/exe/rbdock.cxx#4 $)

>  <Rbt.Library>
libRbt.so (2013.1, Build901 2013/11/27)

>  <Rbt.Parameter_File>
/export/apps/rDock/src/rDock_2013.1_src/data/scripts/dock_solv.prm

>  <Rbt.Receptor>
prm/pocket_docking_3.prm

>  <SCORE>
-45.8762

>  <SCORE.INTER>
-35.2786

>  <SCORE.INTER.CONST>
1

>  <SCORE.INTER.POLAR>
-3.66073

>  <SCORE.INTER.ROT>
14

>  <SCORE.INTER.SOLV>
16.1477

>  <SCORE.INTER.VDW>
-29.6326

>  <SCORE.INTER.norm>
-0.839967

>  <SCORE.INTRA>
-10.5975

>  <SCORE.INTRA.DIHEDRAL>
-20.2132

>  <SCORE.INTRA.DIHEDRAL.0>
48.7173

>  <SCORE.INTRA.POLAR>
-0.294353

>  <SCORE.INTRA.POLAR.0>
-1.54691

>  <SCORE.INTRA.REPUL>
0

>  <SCORE.INTRA.REPUL.0>
0

>  <SCORE.INTRA.SOLV>
0.0535579

>  <SCORE.INTRA.SOLV.lig_0>
-64.052

>  <SCORE.INTRA.VDW>
0.483074

>  <SCORE.INTRA.VDW.0>
-7.0667

>  <SCORE.INTRA.norm>
-0.252322

>  <SCORE.RESTR>
0

>  <SCORE.RESTR.CAVITY>
0

>  <SCORE.RESTR.norm>
0

>  <SCORE.SYSTEM>
0

>  <SCORE.SYSTEM.CONST>
0

>  <SCORE.SYSTEM.DIHEDRAL>
0

>  <SCORE.SYSTEM.SOLV>
0

>  <SCORE.SYSTEM.norm>
0

>  <SCORE.heavy>
42

>  <SCORE.norm>
-1.09229

>  <RMSD>
2.426

$$$$
1fyp_lig
 OpenBabel11021811393D
libRbt.so/2013.1/901 2013/11/27
 42 45  0  0  0  0  0  0  0  0999 V2000
    6.7558    4.8973   26.9495 C   0  0  2  0  0  0  0  0  0  0  0  0
    5.5802    5.6543   26.5404 O   0  0  0  0  0  0  0  0  0  0  0  0
    3.8771    7.7816   23.2518 C   0  0  2  0  0  0  0  0  0  0  0  0
    3.5088    8.3260   21.9317 N   0  0  0  0  0  0  0  0  0  0  0  0
    2.2667    3.8013   25.1688 C   0  0  1  0  0  0  0  0  0  0  0  0
   -0.7721    0.7470   25.8874 C   0  0  1  0  0  0  0  0  0  0  0  0
    6.4253    3.3808   27.1313 C   0  0  2  0  0  0  0  0  0  0  0  0
    5.7280    2.8380   25.9461 N   0  0  0  0  0  0  0  0  0  0  0  0
    5.4004    7.9089   23.4523 C   0  0  0  0  0  0  0  0  0  0  0  0
    2.2804    2.2711   25.2131 C   0  0  2  0  0  0  0  0  0  0  0  0
    1.7784    1.7536   23.9804 O   0  0  0  0  0  0  0  0  0  0  0  0
   -0.7059    0.1182   24.4622 C   0  0  2  0  0  0  0  0  0  0  0  0
   -1.0270    1.0935   23.3917 N   0  0  0  0  0  0  0  0  0  0  0  0
    5.5704    3.1482   28.4162 C   0  0  1  0  0  0  0  0  0  0  0  0
    5.4120    1.7519   28.6552 O   0  0  0  0  0  0  0  0  0  0  0  0
    5.8572    7.3777   24.8385 C   0  0  2  0  0  0  0  0  0  0  0  0
    7.3310    7.4705   24.8942 N   0  0  0  0  0  0  0  0  0  0  0  0
    1.3197    1.9822   26.3698 C   0  0  2  0  0  0  0  0  0  0  0  0
   -0.0695    2.0160   25.9390 O   0  0  0  0  0  0  0  0  0  0  0  0
   -1.6155   -1.1456   24.3697 C   0  0  1  0  0  0  0  0  0  0  0  0
   -0.9921   -2.2067   25.0901 O   0  0  0  0  0  0  0  0  0  0  0  0
    6.2220    3.7911   29.6662 C   0  0  2  0  0  0  0  0  0  0  0  0
    5.3519    3.6252   30.7815 O   0  0  0  0  0  0  0  0  0  0  0  0
    5.3632    5.9139   25.1237 C   0  0  2  0  0  0  0  0  0  0  0  0
    1.6150    3.1422   27.3309 C   0  0  2  0  0  0  0  0  0  0  0  0
    1.9830    4.2605   26.5002 O   0  0  0  0  0  0  0  0  0  0  0  0
   -3.0494   -0.9412   24.9460 C   0  0  2  0  0  0  0  0  0  0  0  0
   -3.7929   -0.1284   24.0365 O   0  0  0  0  0  0  0  0  0  0  0  0
    6.5055    5.2989   29.4125 C   0  0  2  0  0  0  0  0  0  0  0  0
    7.3037    5.4379   28.1987 O   0  0  0  0  0  0  0  0  0  0  0  0
    3.8432    5.7041   24.7835 C   0  0  2  0  0  0  0  0  0  0  0  0
    3.5794    4.2772   24.7564 O   0  0  0  0  0  0  0  0  0  0  0  0
    2.7461    2.8277   28.3261 C   0  0  0  0  0  0  0  0  0  0  0  0
    2.5916    1.5295   28.8724 O   0  0  0  0  0  0  0  0  0  0  0  0
   -2.9906   -0.2633   26.3501 C   0  0  1  0  0  0  0  0  0  0  0  0
   -2.1735    0.9449   26.2776 O   0  0  0  0  0  0  0  0  0  0  0  0
    7.2868    6.0107   30.5395 C   0  0  0  0  0  0  0  0  0  0  0  0
    8.5947    5.4808   30.6733 O   0  0  0  0  0  0  0  0  0  0  0  0
    3.4406    6.3042   23.4006 C   0  0  1  0  0  0  0  0  0  0  0  0
    2.0236    6.2182   23.2577 O   0  0  0  0  0  0  0  0  0  0  0  0
   -4.3940    0.1074   26.8945 C   0  0  0  0  0  0  0  0  0  0  0  0
   -4.8652   -0.8352   27.9253 N   0  0  0  0  0  0  0  0  0  0  0  0
  1  2  1  1  0  0  0
  1  7  1  0  0  0  0
  1 30  1  0  0  0  0
  3  4  1  6  0  0  0
  3  9  1  0  0  0  0
  3 39  1  0  0  0  0
  5 10  1  0  0  0  0
  5 26  1  0  0  0  0
  5 32  1  1  0  0  0
  6 12  1  0  0  0  0
  6 36  1  0  0  0  0
  6 19  1  6  0  0  0
  7  8  1  6  0  0  0
  7 14  1  0  0  0  0
  9 16  1  0  0  0  0
 10 11  1  6  0  0  0
 10 18  1  0  0  0  0
 12 13  1  6  0  0  0
 12 20  1  0  0  0  0
 14 15  1  1  0  0  0
 14 22  1  0  0  0  0
 16 17  1  6  0  0  0
 16 24  1  0  0  0  0
 18 19  1  6  0  0  0
 18 25  1  0  0  0  0
 20 21  1  1  0  0  0
 20 27  1  0  0  0  0
 22 23  1  1  0  0  0
 22 29  1  0  0  0  0
 24  2  1  1  0  0  0
 24 31  1  0  0  0  0
 25 26  1  0  0  0  0
 25 33  1  1  0  0  0
 27 28  1  6  0  0  0
 27 35  1  0  0  0  0
 29 30  1  0  0  0  0
 29 37  1  1  0  0  0
 31 32  1  6  0  0  0
 31 39  1  0  0  0  0
 33 34  1  0  0  0  0
 35 36  1  0  0  0  0
 35 41  1  6  0  0  0
 37 38  1  0  0  0  0
 39 40  1  1  0  0  0
 41 42  1  0  0  0  0
M  END
>  <CHROM.1>
-95.40510630,-99.49098965,74.65051849,78.51131269,167.69906998,168.30691410
68.03032981,160.57120062,109.32220931,-93.85745363,-174.74095903,55.84918678
-44.64414721,171.26876944,64.63970603,147.72824205,-173.43726425,165.20414512
103.01592020,-177.09469293,82.54181243,-64.43827371,2.63205679,3.28951760
26.20387267,-0.20179821,0.58053881,2.19110880

>  <Name>
1fyp_lig

>  <RI>
0

>  <Rbt.Current_Directory>
/home/itssahil/PROJECTS/Mol_Feturizer/New_Systems/rnas/1fyp

>  <Rbt.Executable>
rbdock ($Id: //depot/dev/client3/rdock/2013.1/src/exe/rbdock.cxx#4 $)

>  <Rbt.Library>
libRbt.so (2013.1, Build901 2013/11/27)

>  <Rbt.Parameter_File>
/export/apps/rDock/src/rDock_2013.1_src/data/scripts/dock_solv.prm

>  <Rbt.Receptor>
prm/pocket_docking_3.prm

>  <SCORE>
-58.7948

>  <SCORE.INTER>
-59.1234

>  <SCORE.INTER.CONST>
1

>  <SCORE.INTER.POLAR>
-8.48293

>  <SCORE.INTER.ROT>
14

>  <SCORE.INTER.SOLV>
18.7323

>  <SCORE.INTER.VDW>
-30.3166

>  <SCORE.INTER.norm>
-1.4077

>  <SCORE.INTRA>
0.328608

>  <SCORE.INTRA.DIHEDRAL>
-11.6083

>  <SCORE.INTRA.DIHEDRAL.0>
48.7173

>  <SCORE.INTRA.POLAR>
0.680797

>  <SCORE.INTRA.POLAR.0>
-1.54691

>  <SCORE.INTRA.REPUL>
0.58209

>  <SCORE.INTRA.REPUL.0>
0

>  <SCORE.INTRA.SOLV>
0.509066

>  <SCORE.INTRA.SOLV.lig_0>
-64.052

>  <SCORE.INTRA.VDW>
0.653067

>  <SCORE.INTRA.VDW.0>
-7.0667

>  <SCORE.INTRA.norm>
0.007824

>  <SCORE.RESTR>
0

>  <SCORE.RESTR.CAVITY>
0

>  <SCORE.RESTR.norm>
0

>  <SCORE.SYSTEM>
0

>  <SCORE.SYSTEM.CONST>
0

>  <SCORE.SYSTEM.DIHEDRAL>
0

>  <SCORE.SYSTEM.SOLV>
0

>  <SCORE.SYSTEM.norm>
0

>  <SCORE.heavy>
42

>  <SCORE.norm>
-1.39988

>  <RMSD>
2.445

$$$$
1fyp_lig
 OpenBabel11021811393D
libRbt.so/2013.1/901 2013/11/27
 42 45  0  0  0  0  0  0  0  0999 V2000
    5.8374    7.0041   27.4532 C   0  0  2  0  0  0  0  0  0  0  0  0
    6.2892    6.0356   26.4631 O   0  0  0  0  0  0  0  0  0  0  0  0
    4.1074    7.8876   23.2928 C   0  0  2  0  0  0  0  0  0  0  0  0
    3.5752    8.3540   21.9991 N   0  0  0  0  0  0  0  0  0  0  0  0
    3.0357    3.8290   25.3355 C   0  0  1  0  0  0  0  0  0  0  0  0
    0.0742    0.6129   25.8047 C   0  0  1  0  0  0  0  0  0  0  0  0
    6.9996    7.4336   28.4055 C   0  0  2  0  0  0  0  0  0  0  0  0
    8.1938    7.8504   27.6401 N   0  0  0  0  0  0  0  0  0  0  0  0
    5.6219    8.1693   23.3560 C   0  0  0  0  0  0  0  0  0  0  0  0
    3.0493    2.3293   25.0283 C   0  0  2  0  0  0  0  0  0  0  0  0
    2.4015    2.0925   23.7777 O   0  0  0  0  0  0  0  0  0  0  0  0
    0.1261    0.0893   24.3370 C   0  0  2  0  0  0  0  0  0  0  0  0
   -0.1764    1.1469   23.3419 N   0  0  0  0  0  0  0  0  0  0  0  0
    7.3643    6.2812   29.3929 C   0  0  1  0  0  0  0  0  0  0  0  0
    8.3111    6.7392   30.3550 O   0  0  0  0  0  0  0  0  0  0  0  0
    6.2462    7.7266   24.7076 C   0  0  2  0  0  0  0  0  0  0  0  0
    7.7026    7.9648   24.6316 N   0  0  0  0  0  0  0  0  0  0  0  0
    2.2329    1.7630   26.1933 C   0  0  2  0  0  0  0  0  0  0  0  0
    0.8023    1.8603   25.9475 O   0  0  0  0  0  0  0  0  0  0  0  0
   -0.8089   -1.1457   24.1542 C   0  0  1  0  0  0  0  0  0  0  0  0
   -0.2063   -2.2692   24.7931 O   0  0  0  0  0  0  0  0  0  0  0  0
    6.1176    5.7490   30.1431 C   0  0  2  0  0  0  0  0  0  0  0  0
    6.5003    4.6426   30.9544 O   0  0  0  0  0  0  0  0  0  0  0  0
    5.9272    6.2306   25.0658 C   0  0  2  0  0  0  0  0  0  0  0  0
    2.6453    2.6819   27.3518 C   0  0  2  0  0  0  0  0  0  0  0  0
    2.9150    3.9677   26.7603 O   0  0  0  0  0  0  0  0  0  0  0  0
   -2.2377   -0.9556   24.7477 C   0  0  2  0  0  0  0  0  0  0  0  0
   -2.9657   -0.0634   23.9023 O   0  0  0  0  0  0  0  0  0  0  0  0
    5.0155    5.3293   29.1296 C   0  0  2  0  0  0  0  0  0  0  0  0
    4.7300    6.4517   28.2415 O   0  0  0  0  0  0  0  0  0  0  0  0
    4.4124    5.8631   24.8649 C   0  0  2  0  0  0  0  0  0  0  0  0
    4.2913    4.4171   24.8912 O   0  0  0  0  0  0  0  0  0  0  0  0
    3.8862    2.1772   28.1094 C   0  0  0  0  0  0  0  0  0  0  0  0
    3.7984    0.7838   28.3511 O   0  0  0  0  0  0  0  0  0  0  0  0
   -2.1638   -0.3840   26.1976 C   0  0  1  0  0  0  0  0  0  0  0  0
   -1.3225    0.8096   26.2120 O   0  0  0  0  0  0  0  0  0  0  0  0
    3.6702    4.9172   29.7679 C   0  0  0  0  0  0  0  0  0  0  0  0
    3.0327    6.0230   30.3847 O   0  0  0  0  0  0  0  0  0  0  0  0
    3.8352    6.3797   23.5104 C   0  0  1  0  0  0  0  0  0  0  0  0
    2.4269    6.1512   23.4944 O   0  0  0  0  0  0  0  0  0  0  0  0
   -3.5588   -0.0263   26.7713 C   0  0  0  0  0  0  0  0  0  0  0  0
   -3.5364    0.1559   28.2340 N   0  0  0  0  0  0  0  0  0  0  0  0
  1  2  1  6  0  0  0
  1  7  1  0  0  0  0
  1 30  1  0  0  0  0
  3  4  1  6  0  0  0
  3  9  1  0  0  0  0
  3 39  1  0  0  0  0
  5 10  1  0  0  0  0
  5 26  1  0  0  0  0
  5 32  1  1  0  0  0
  6 12  1  0  0  0  0
  6 36  1  0  0  0  0
  6 19  1  6  0  0  0
  7  8  1  6  0  0  0
  7 14  1  0  0  0  0
  9 16  1  0  0  0  0
 10 11  1  6  0  0  0
 10 18  1  0  0  0  0
 12 13  1  6  0  0  0
 12 20  1  0  0  0  0
 14 15  1  1  0  0  0
 14 22  1  0  0  0  0
 16 17  1  6  0  0  0
 16 24  1  0  0  0  0
 18 19  1  6  0  0  0
 18 25  1  0  0  0  0
 20 21  1  1  0  0  0
 20 27  1  0  0  0  0
 22 23  1  6  0  0  0
 22 29  1  0  0  0  0
 24  2  1  1  0  0  0
 24 31  1  0  0  0  0
 25 26  1  0  0  0  0
 25 33  1  6  0  0  0
 27 28  1  6  0  0  0
 27 35  1  0  0  0  0
 29 30  1  0  0  0  0
 29 37  1  1  0  0  0
 31 32  1  6  0  0  0
 31 39  1  0  0  0  0
 33 34  1  0  0  0  0
 35 36  1  0  0  0  0
 35 41  1  6  0  0  0
 37 38  1  0  0  0  0
 39 40  1  1  0  0  0
 41 42  1  0  0  0  0
M  END
>  <CHROM.1>
-133.00198539,47.98632104,-46.92973720,-10.40157004,177.93304636,97.65915095
-61.12419716,-65.27679322,114.43511499,-85.77684717,61.90625750,177.52693416
-44.20356158,61.62105860,67.18333805,152.16752924,169.33848990,71.86769054
164.26829786,175.18109512,-59.45139114,93.83304038,3.04291513,3.86849176
26.28784832,-0.08600283,0.75350952,1.95024277

>  <Name>
1fyp_lig

>  <RI>
0

>  <Rbt.Current_Directory>
/home/itssahil/PROJECTS/Mol_Feturizer/New_Systems/rnas/1fyp

>  <Rbt.Executable>
rbdock ($Id: //depot/dev/client3/rdock/2013.1/src/exe/rbdock.cxx#4 $)

>  <Rbt.Library>
libRbt.so (2013.1, Build901 2013/11/27)

>  <Rbt.Parameter_File>
/export/apps/rDock/src/rDock_2013.1_src/data/scripts/dock_solv.prm

>  <Rbt.Receptor>
prm/pocket_docking_2.prm

>  <SCORE>
-62.7905

>  <SCORE.INTER>
-57.1175

>  <SCORE.INTER.CONST>
1

>  <SCORE.INTER.POLAR>
-7.8001

>  <SCORE.INTER.ROT>
14

>  <SCORE.INTER.SOLV>
17.4341

>  <SCORE.INTER.VDW>
-30.8227

>  <SCORE.INTER.norm>
-1.35994

>  <SCORE.INTRA>
-8.28839

>  <SCORE.INTRA.DIHEDRAL>
-19.4637

>  <SCORE.INTRA.DIHEDRAL.0>
48.7173

>  <SCORE.INTRA.POLAR>
-0.13701

>  <SCORE.INTRA.POLAR.0>
-1.54691

>  <SCORE.INTRA.REPUL>
0

>  <SCORE.INTRA.REPUL.0>
0

>  <SCORE.INTRA.SOLV>
-1.31758

>  <SCORE.INTRA.SOLV.lig_0>
-64.052

>  <SCORE.INTRA.VDW>
2.56808

>  <SCORE.INTRA.VDW.0>
-7.0667

>  <SCORE.INTRA.norm>
-0.197343

>  <SCORE.RESTR>
2.61533

>  <SCORE.RESTR.CAVITY>
2.61533

>  <SCORE.RESTR.norm>
0.0622699

>  <SCORE.SYSTEM>
0

>  <SCORE.SYSTEM.CONST>
0

>  <SCORE.SYSTEM.DIHEDRAL>
0

>  <SCORE.SYSTEM.SOLV>
0

>  <SCORE.SYSTEM.norm>
0

>  <SCORE.heavy>
42

>  <SCORE.norm>
-1.49501

>  <RMSD>
2.451

$$$$
1fyp_lig
 OpenBabel11021811393D
libRbt.so/2013.1/901 2013/11/27
 42 45  0  0  0  0  0  0  0  0999 V2000
    6.7602    7.3137   28.1745 C   0  0  2  0  0  0  0  0  0  0  0  0
    7.0895    6.5170   27.0001 O   0  0  0  0  0  0  0  0  0  0  0  0
    3.7033    7.9403   24.8209 C   0  0  2  0  0  0  0  0  0  0  0  0
    2.6890    8.2748   23.8041 N   0  0  0  0  0  0  0  0  0  0  0  0
    3.6879    3.8204   25.9729 C   0  0  1  0  0  0  0  0  0  0  0  0
    0.8300    0.4846   25.4335 C   0  0  1  0  0  0  0  0  0  0  0  0
    8.0396    7.6849   28.9915 C   0  0  2  0  0  0  0  0  0  0  0  0
    9.0789    8.2752   28.1214 N   0  0  0  0  0  0  0  0  0  0  0  0
    5.0920    8.3950   24.3290 C   0  0  0  0  0  0  0  0  0  0  0  0
    4.0996    2.3787   25.6634 C   0  0  2  0  0  0  0  0  0  0  0  0
    4.2296    2.2123   24.2510 O   0  0  0  0  0  0  0  0  0  0  0  0
    0.2561    0.0059   24.0651 C   0  0  2  0  0  0  0  0  0  0  0  0
   -0.1423    1.1328   23.1868 N   0  0  0  0  0  0  0  0  0  0  0  0
    8.6041    6.4362   29.7386 C   0  0  1  0  0  0  0  0  0  0  0  0
    9.6713    6.8206   30.6018 O   0  0  0  0  0  0  0  0  0  0  0  0
    6.2093    8.0977   25.3661 C   0  0  2  0  0  0  0  0  0  0  0  0
    7.4997    8.4953   24.7659 N   0  0  0  0  0  0  0  0  0  0  0  0
    2.9072    1.5882   26.2091 C   0  0  2  0  0  0  0  0  0  0  0  0
    1.8090    1.5415   25.2561 O   0  0  0  0  0  0  0  0  0  0  0  0
   -0.9231   -0.9931   24.2762 C   0  0  1  0  0  0  0  0  0  0  0  0
   -0.3885   -2.2384   24.7201 O   0  0  0  0  0  0  0  0  0  0  0  0
    7.5154    5.7305   30.5854 C   0  0  2  0  0  0  0  0  0  0  0  0
    8.0677    4.5520   31.1641 O   0  0  0  0  0  0  0  0  0  0  0  0
    6.2293    6.5960   25.8273 C   0  0  2  0  0  0  0  0  0  0  0  0
    2.5148    2.4097   27.4449 C   0  0  2  0  0  0  0  0  0  0  0  0
    2.8360    3.7782   27.1288 O   0  0  0  0  0  0  0  0  0  0  0  0
   -1.9814   -0.5177   25.3173 C   0  0  2  0  0  0  0  0  0  0  0  0
   -2.7513    0.5348   24.7341 O   0  0  0  0  0  0  0  0  0  0  0  0
    6.2850    5.3811   29.7009 C   0  0  2  0  0  0  0  0  0  0  0  0
    5.8157    6.5918   29.0346 O   0  0  0  0  0  0  0  0  0  0  0  0
    4.8017    6.0489   26.1917 C   0  0  2  0  0  0  0  0  0  0  0  0
    4.8796    4.6018   26.2714 O   0  0  0  0  0  0  0  0  0  0  0  0
    3.2576    1.9730   28.7202 C   0  0  0  0  0  0  0  0  0  0  0  0
    4.5621    1.5135   28.4125 O   0  0  0  0  0  0  0  0  0  0  0  0
   -1.2885   -0.0187   26.6231 C   0  0  1  0  0  0  0  0  0  0  0  0
   -0.2623    0.9650   26.2887 O   0  0  0  0  0  0  0  0  0  0  0  0
    5.0763    4.8028   30.4701 C   0  0  0  0  0  0  0  0  0  0  0  0
    3.9481    4.6596   29.6239 O   0  0  0  0  0  0  0  0  0  0  0  0
    3.7178    6.4248   25.1342 C   0  0  1  0  0  0  0  0  0  0  0  0
    2.4376    6.0374   25.6312 O   0  0  0  0  0  0  0  0  0  0  0  0
   -2.2873    0.6135   27.6261 C   0  0  0  0  0  0  0  0  0  0  0  0
   -1.6083    1.3019   28.7388 N   0  0  0  0  0  0  0  0  0  0  0  0
  1  2  1  6  0  0  0
  1  7  1  0  0  0  0
  1 30  1  0  0  0  0
  3  4  1  6  0  0  0
  3  9  1  0  0  0  0
  3 39  1  0  0  0  0
  5 10  1  0  0  0  0
  5 26  1  0  0  0  0
  5 32  1  1  0  0  0
  6 12  1  0  0  0  0
  6 36  1  0  0  0  0
  6 19  1  6  0  0  0
  7  8  1  6  0  0  0
  7 14  1  0  0  0  0
  9 16  1  0  0  0  0
 10 11  1  6  0  0  0
 10 18  1  0  0  0  0
 12 13  1  1  0  0  0
 12 20  1  0  0  0  0
 14 15  1  1  0  0  0
 14 22  1  0  0  0  0
 16 17  1  6  0  0  0
 16 24  1  0  0  0  0
 18 19  1  6  0  0  0
 18 25  1  0  0  0  0
 20 21  1  1  0  0  0
 20 27  1  0  0  0  0
 22 23  1  6  0  0  0
 22 29  1  0  0  0  0
 24  2  1  1  0  0  0
 24 31  1  0  0  0  0
 25 26  1  0  0  0  0
 25 33  1  1  0  0  0
 27 28  1  6  0  0  0
 27 35  1  0  0  0  0
 29 30  1  0  0  0  0
 29 37  1  1  0  0  0
 31 32  1  6  0  0  0
 31 39  1  0  0  0  0
 33 34  1  0  0  0  0
 35 36  1  0  0  0  0
 35 41  1  1  0  0  0
 37 38  1  0  0  0  0
 39 40  1  1  0  0  0
 41 42  1  0  0  0  0
M  END
>  <CHROM.1>
-151.32984638,58.78644794,83.68724415,-38.50413407,103.25197253,169.29729949
-62.99966109,-54.01343395,159.73395397,-147.15743332,-50.17456185,174.86743908
32.69179543,65.47794687,173.08165164,-151.60267526,161.31516349,-61.08261709
-169.47944390,-63.01867130,61.30469415,-74.42296683,3.62668501,3.98827407
26.79970909,0.19398227,-0.72278468,-0.90215961

>  <Name>
1fyp_lig

>  <RI>
0

>  <Rbt.Current_Directory>
/home/itssahil/PROJECTS/Mol_Feturizer/New_Systems/rnas/1fyp

>  <Rbt.Executable>
rbdock ($Id: //depot/dev/client3/rdock/2013.1/src/exe/rbdock.cxx#4 $)

>  <Rbt.Library>
libRbt.so (2013.1, Build901 2013/11/27)

>  <Rbt.Parameter_File>
/export/apps/rDock/src/rDock_2013.1_src/data/scripts/dock_solv.prm

>  <Rbt.Receptor>
prm/pocket_docking_6.prm

>  <SCORE>
-56.9664

>  <SCORE.INTER>
-54.9889

>  <SCORE.INTER.CONST>
1

>  <SCORE.INTER.POLAR>
-8.03745

>  <SCORE.INTER.ROT>
14

>  <SCORE.INTER.SOLV>
14.3693

>  <SCORE.INTER.VDW>
-27.5909

>  <SCORE.INTER.norm>
-1.30926

>  <SCORE.INTRA>
-1.97743

>  <SCORE.INTRA.DIHEDRAL>
-22.9246

>  <SCORE.INTRA.DIHEDRAL.0>
48.7173

>  <SCORE.INTRA.POLAR>
1.33233

>  <SCORE.INTRA.POLAR.0>
-1.54691

>  <SCORE.INTRA.REPUL>
0.0992333

>  <SCORE.INTRA.REPUL.0>
0

>  <SCORE.INTRA.SOLV>
-0.340979

>  <SCORE.INTRA.SOLV.lig_0>
-64.052

>  <SCORE.INTRA.VDW>
4.62929

>  <SCORE.INTRA.VDW.0>
-7.0667

>  <SCORE.INTRA.norm>
-0.0470817

>  <SCORE.RESTR>
0

>  <SCORE.RESTR.CAVITY>
0

>  <SCORE.RESTR.norm>
0

>  <SCORE.SYSTEM>
0

>  <SCORE.SYSTEM.CONST>
0

>  <SCORE.SYSTEM.DIHEDRAL>
0

>  <SCORE.SYSTEM.SOLV>
0

>  <SCORE.SYSTEM.norm>
0

>  <SCORE.heavy>
42

>  <SCORE.norm>
-1.35634

>  <RMSD>
2.453

$$$$
1fyp_lig
 OpenBabel11021811393D
libRbt.so/2013.1/901 2013/11/27
 42 45  0  0  0  0  0  0  0  0999 V2000
    6.1803    4.3256   27.1562 C   0  0  2  0  0  0  0  0  0  0  0  0
    4.8724    4.7328   26.6604 O   0  0  0  0  0  0  0  0  0  0  0  0
    3.4356    7.1730   23.4632 C   0  0  2  0  0  0  0  0  0  0  0  0
    3.1550    7.8247   22.1705 N   0  0  0  0  0  0  0  0  0  0  0  0
    1.6003    3.1417   25.2637 C   0  0  1  0  0  0  0  0  0  0  0  0
   -1.6328    0.3036   26.4402 C   0  0  1  0  0  0  0  0  0  0  0  0
    6.0645    3.5565   28.5117 C   0  0  2  0  0  0  0  0  0  0  0  0
    5.0736    2.4628   28.4247 N   0  0  0  0  0  0  0  0  0  0  0  0
    4.9544    7.1916   23.7279 C   0  0  0  0  0  0  0  0  0  0  0  0
    1.4497    1.6441   24.9842 C   0  0  2  0  0  0  0  0  0  0  0  0
    0.6880    1.4556   23.7910 O   0  0  0  0  0  0  0  0  0  0  0  0
   -2.9933    0.3933   25.6837 C   0  0  2  0  0  0  0  0  0  0  0  0
   -3.5836    1.7534   25.7288 N   0  0  0  0  0  0  0  0  0  0  0  0
    5.6953    4.5306   29.6740 C   0  0  1  0  0  0  0  0  0  0  0  0
    5.7492    3.8474   30.9238 O   0  0  0  0  0  0  0  0  0  0  0  0
    5.3215    6.5432   25.0907 C   0  0  2  0  0  0  0  0  0  0  0  0
    6.7946    6.5400   25.2068 N   0  0  0  0  0  0  0  0  0  0  0  0
    0.6763    1.1710   26.2181 C   0  0  2  0  0  0  0  0  0  0  0  0
   -0.7536    1.4007   26.0797 O   0  0  0  0  0  0  0  0  0  0  0  0
   -3.9955   -0.6779   26.2138 C   0  0  1  0  0  0  0  0  0  0  0  0
   -3.5830   -1.9583   25.7405 O   0  0  0  0  0  0  0  0  0  0  0  0
    6.6550    5.7453   29.7347 C   0  0  2  0  0  0  0  0  0  0  0  0
    6.2106    6.6387   30.7511 O   0  0  0  0  0  0  0  0  0  0  0  0
    4.7294    5.0976   25.2575 C   0  0  2  0  0  0  0  0  0  0  0  0
    1.2611    2.0598   27.3247 C   0  0  2  0  0  0  0  0  0  0  0  0
    1.6035    3.3075   26.6907 O   0  0  0  0  0  0  0  0  0  0  0  0
   -4.0959   -0.7416   27.7681 C   0  0  2  0  0  0  0  0  0  0  0  0
   -4.8147    0.4056   28.2242 O   0  0  0  0  0  0  0  0  0  0  0  0
    6.7040    6.4645   28.3568 C   0  0  2  0  0  0  0  0  0  0  0  0
    7.0513    5.4946   27.3231 O   0  0  0  0  0  0  0  0  0  0  0  0
    3.2148    5.0059   24.8481 C   0  0  2  0  0  0  0  0  0  0  0  0
    2.8674    3.6031   24.7146 O   0  0  0  0  0  0  0  0  0  0  0  0
    2.5041    1.4485   27.9954 C   0  0  0  0  0  0  0  0  0  0  0  0
    2.2711    0.0980   28.3553 O   0  0  0  0  0  0  0  0  0  0  0  0
   -2.6760   -0.7796   28.4138 C   0  0  1  0  0  0  0  0  0  0  0  0
   -1.8691    0.3186   27.8891 O   0  0  0  0  0  0  0  0  0  0  0  0
    7.7399    7.6065   28.2576 C   0  0  0  0  0  0  0  0  0  0  0  0
    7.4449    8.6500   29.1705 O   0  0  0  0  0  0  0  0  0  0  0  0
    2.9058    5.7192   23.4952 C   0  0  1  0  0  0  0  0  0  0  0  0
    1.4932    5.7314   23.2948 O   0  0  0  0  0  0  0  0  0  0  0  0
   -2.7195   -0.6810   29.9603 C   0  0  0  0  0  0  0  0  0  0  0  0
   -2.9306    0.6999   30.4309 N   0  0  0  0  0  0  0  0  0  0  0  0
  1  2  1  1  0  0  0
  1  7  1  0  0  0  0
  1 30  1  0  0  0  0
  3  4  1  6  0  0  0
  3  9  1  0  0  0  0
  3 39  1  0  0  0  0
  5 10  1  0  0  0  0
  5 26  1  0  0  0  0
  5 32  1  1  0  0  0
  6 12  1  0  0  0  0
  6 36  1  0  0  0  0
  6 19  1  1  0  0  0
  7  8  1  6  0  0  0
  7 14  1  0  0  0  0
  9 16  1  0  0  0  0
 10 11  1  6  0  0  0
 10 18  1  0  0  0  0
 12 13  1  1  0  0  0
 12 20  1  0  0  0  0
 14 15  1  1  0  0  0
 14 22  1  0  0  0  0
 16 17  1  6  0  0  0
 16 24  1  0  0  0  0
 18 19  1  6  0  0  0
 18 25  1  0  0  0  0
 20 21  1  1  0  0  0
 20 27  1  0  0  0  0
 22 23  1  1  0  0  0
 22 29  1  0  0  0  0
 24  2  1  1  0  0  0
 24 31  1  0  0  0  0
 25 26  1  0  0  0  0
 25 33  1  6  0  0  0
 27 28  1  1  0  0  0
 27 35  1  0  0  0  0
 29 30  1  0  0  0  0
 29 37  1  1  0  0  0
 31 32  1  6  0  0  0
 31 39  1  0  0  0  0
 33 34  1  0  0  0  0
 35 36  1  0  0  0  0
 35 41  1  1  0  0  0
 37 38  1  0  0  0  0
 39 40  1  1  0  0  0
 41 42  1  0  0  0  0
M  END
>  <CHROM.1>
-161.98523093,-76.93773858,174.04428595,58.86260151,71.15100438,-11.67777937
-177.06309477,-50.72882547,133.66572107,-154.23835347,173.59970227,-169.78865644
-48.36895376,-39.22598109,-62.59211043,136.98133423,179.18537029,-156.32740020
-78.60772635,-157.86700859,-71.12415831,153.16588311,2.14875049,3.32411440
26.82167312,-0.25058114,0.57376948,2.00768275

>  <Name>
1fyp_lig

>  <RI>
0

>  <Rbt.Current_Directory>
/home/itssahil/PROJECTS/Mol_Feturizer/New_Systems/rnas/1fyp

>  <Rbt.Executable>
rbdock ($Id: //depot/dev/client3/rdock/2013.1/src/exe/rbdock.cxx#4 $)

>  <Rbt.Library>
libRbt.so (2013.1, Build901 2013/11/27)

>  <Rbt.Parameter_File>
/export/apps/rDock/src/rDock_2013.1_src/data/scripts/dock_solv.prm

>  <Rbt.Receptor>
prm/pocket_docking_5.prm

>  <SCORE>
-46.5153

>  <SCORE.INTER>
-39.9041

>  <SCORE.INTER.CONST>
1

>  <SCORE.INTER.POLAR>
-5.53861

>  <SCORE.INTER.ROT>
14

>  <SCORE.INTER.SOLV>
21.7028

>  <SCORE.INTER.VDW>
-28.3083

>  <SCORE.INTER.norm>
-0.950098

>  <SCORE.INTRA>
-6.61115

>  <SCORE.INTRA.DIHEDRAL>
-17.3457

>  <SCORE.INTRA.DIHEDRAL.0>
48.7173

>  <SCORE.INTRA.POLAR>
-0.380982

>  <SCORE.INTRA.POLAR.0>
-1.54691

>  <SCORE.INTRA.REPUL>
0.0321995

>  <SCORE.INTRA.REPUL.0>
0

>  <SCORE.INTRA.SOLV>
-0.893377

>  <SCORE.INTRA.SOLV.lig_0>
-64.052

>  <SCORE.INTRA.VDW>
3.64271

>  <SCORE.INTRA.VDW.0>
-7.0667

>  <SCORE.INTRA.norm>
-0.157408

>  <SCORE.RESTR>
0

>  <SCORE.RESTR.CAVITY>
0

>  <SCORE.RESTR.norm>
0

>  <SCORE.SYSTEM>
0

>  <SCORE.SYSTEM.CONST>
0

>  <SCORE.SYSTEM.DIHEDRAL>
0

>  <SCORE.SYSTEM.SOLV>
0

>  <SCORE.SYSTEM.norm>
0

>  <SCORE.heavy>
42

>  <SCORE.norm>
-1.10751

>  <RMSD>
2.454

$$$$
1fyp_lig
 OpenBabel11021811393D
libRbt.so/2013.1/901 2013/11/27
 42 45  0  0  0  0  0  0  0  0999 V2000
    6.2100    6.9402   28.4421 C   0  0  2  0  0  0  0  0  0  0  0  0
    6.1028    5.7479   27.6119 O   0  0  0  0  0  0  0  0  0  0  0  0
    3.3855    7.5863   24.8775 C   0  0  2  0  0  0  0  0  0  0  0  0
    2.4533    7.9118   23.7823 N   0  0  0  0  0  0  0  0  0  0  0  0
    2.4810    4.0472   27.0716 C   0  0  1  0  0  0  0  0  0  0  0  0
    0.8678    0.6249   25.5837 C   0  0  1  0  0  0  0  0  0  0  0  0
    7.4420    7.8116   28.0359 C   0  0  2  0  0  0  0  0  0  0  0  0
    7.4572    8.0736   26.5810 N   0  0  0  0  0  0  0  0  0  0  0  0
    4.6902    7.0148   24.2876 C   0  0  0  0  0  0  0  0  0  0  0  0
    3.5203    3.1996   26.3331 C   0  0  2  0  0  0  0  0  0  0  0  0
    3.6392    3.6576   24.9857 O   0  0  0  0  0  0  0  0  0  0  0  0
    0.2861    0.0729   24.2465 C   0  0  2  0  0  0  0  0  0  0  0  0
   -0.0454    1.1485   23.2804 N   0  0  0  0  0  0  0  0  0  0  0  0
    8.7749    7.1301   28.4774 C   0  0  1  0  0  0  0  0  0  0  0  0
    9.8754    8.0056   28.2444 O   0  0  0  0  0  0  0  0  0  0  0  0
    5.7327    6.6738   25.3874 C   0  0  2  0  0  0  0  0  0  0  0  0
    6.9039    6.0627   24.7253 N   0  0  0  0  0  0  0  0  0  0  0  0
    2.8885    1.8062   26.3930 C   0  0  2  0  0  0  0  0  0  0  0  0
    1.9003    1.6160   25.3424 O   0  0  0  0  0  0  0  0  0  0  0  0
   -0.9440   -0.8482   24.5139 C   0  0  1  0  0  0  0  0  0  0  0  0
   -0.4775   -2.0811   25.0578 O   0  0  0  0  0  0  0  0  0  0  0  0
    8.7576    6.7494   29.9790 C   0  0  2  0  0  0  0  0  0  0  0  0
    9.9581    6.0512   30.2956 O   0  0  0  0  0  0  0  0  0  0  0  0
    5.1531    5.7372   26.5077 C   0  0  2  0  0  0  0  0  0  0  0  0
    2.2146    1.8175   27.7722 C   0  0  2  0  0  0  0  0  0  0  0  0
    1.8181    3.1824   28.0078 O   0  0  0  0  0  0  0  0  0  0  0  0
   -1.9888   -0.2442   25.5005 C   0  0  2  0  0  0  0  0  0  0  0  0
   -2.6984    0.7978   24.8287 O   0  0  0  0  0  0  0  0  0  0  0  0
    7.5138    5.8729   30.2999 C   0  0  2  0  0  0  0  0  0  0  0  0
    6.3104    6.5707   29.8585 O   0  0  0  0  0  0  0  0  0  0  0  0
    3.7455    6.2044   27.0278 C   0  0  2  0  0  0  0  0  0  0  0  0
    3.1615    5.1156   27.7893 O   0  0  0  0  0  0  0  0  0  0  0  0
    3.1425    1.3338   28.9008 C   0  0  0  0  0  0  0  0  0  0  0  0
    3.4541   -0.0396   28.7447 O   0  0  0  0  0  0  0  0  0  0  0  0
   -1.2866    0.3174   26.7757 C   0  0  1  0  0  0  0  0  0  0  0  0
   -0.2088    1.2215   26.3840 O   0  0  0  0  0  0  0  0  0  0  0  0
    7.3149    5.5527   31.7982 C   0  0  0  0  0  0  0  0  0  0  0  0
    7.0915    6.7325   32.5516 O   0  0  0  0  0  0  0  0  0  0  0  0
    2.7638    6.5786   25.8742 C   0  0  1  0  0  0  0  0  0  0  0  0
    1.5848    7.1479   26.4411 O   0  0  0  0  0  0  0  0  0  0  0  0
   -2.2638    1.0718   27.7133 C   0  0  0  0  0  0  0  0  0  0  0  0
   -3.5184    0.3300   27.9337 N   0  0  0  0  0  0  0  0  0  0  0  0
  1  2  1  6  0  0  0
  1  7  1  0  0  0  0
  1 30  1  0  0  0  0
  3  4  1  6  0  0  0
  3  9  1  0  0  0  0
  3 39  1  0  0  0  0
  5 10  1  0  0  0  0
  5 26  1  0  0  0  0
  5 32  1  1  0  0  0
  6 12  1  0  0  0  0
  6 36  1  0  0  0  0
  6 19  1  6  0  0  0
  7  8  1  6  0  0  0
  7 14  1  0  0  0  0
  9 16  1  0  0  0  0
 10 11  1  6  0  0  0
 10 18  1  0  0  0  0
 12 13  1  6  0  0  0
 12 20  1  0  0  0  0
 14 15  1  1  0  0  0
 14 22  1  0  0  0  0
 16 17  1  6  0  0  0
 16 24  1  0  0  0  0
 18 19  1  6  0  0  0
 18 25  1  0  0  0  0
 20 21  1  1  0  0  0
 20 27  1  0  0  0  0
 22 23  1  6  0  0  0
 22 29  1  0  0  0  0
 24  2  1  1  0  0  0
 24 31  1  0  0  0  0
 25 26  1  0  0  0  0
 25 33  1  1  0  0  0
 27 28  1  6  0  0  0
 27 35  1  0  0  0  0
 29 30  1  0  0  0  0
 29 37  1  1  0  0  0
 31 32  1  6  0  0  0
 31 39  1  0  0  0  0
 33 34  1  0  0  0  0
 35 36  1  0  0  0  0
 35 41  1  1  0  0  0
 37 38  1  0  0  0  0
 39 40  1  1  0  0  0
 41 42  1  0  0  0  0
M  END
>  <CHROM.1>
-100.13179041,72.39757449,52.29098307,68.83477184,-68.85561759,74.45886206
59.68506144,-168.66736941,-155.50355761,-155.24320520,-44.56124529,58.96175297
-66.53538821,-49.31809696,62.85008731,-82.28178708,71.15715232,62.51944441
46.26822362,-166.49315309,164.60020105,-68.72034936,3.45768417,4.05072414
27.01407023,0.17331417,-0.69167795,-0.88276774

>  <Name>
1fyp_lig

>  <RI>
0

>  <Rbt.Current_Directory>
/home/itssahil/PROJECTS/Mol_Feturizer/New_Systems/rnas/1fyp

>  <Rbt.Executable>
rbdock ($Id: //depot/dev/client3/rdock/2013.1/src/exe/rbdock.cxx#4 $)

>  <Rbt.Library>
libRbt.so (2013.1, Build901 2013/11/27)

>  <Rbt.Parameter_File>
/export/apps/rDock/src/rDock_2013.1_src/data/scripts/dock_solv.prm

>  <Rbt.Receptor>
prm/pocket_docking_2.prm

>  <SCORE>
-53.0192

>  <SCORE.INTER>
-52.2784

>  <SCORE.INTER.CONST>
1

>  <SCORE.INTER.POLAR>
-7.8147

>  <SCORE.INTER.ROT>
14

>  <SCORE.INTER.SOLV>
16.6278

>  <SCORE.INTER.VDW>
-27.2792

>  <SCORE.INTER.norm>
-1.24472

>  <SCORE.INTRA>
-5.38328

>  <SCORE.INTRA.DIHEDRAL>
-28.4986

>  <SCORE.INTRA.DIHEDRAL.0>
48.7173

>  <SCORE.INTRA.POLAR>
0.739047

>  <SCORE.INTRA.POLAR.0>
-1.54691

>  <SCORE.INTRA.REPUL>
0

>  <SCORE.INTRA.REPUL.0>
0

>  <SCORE.INTRA.SOLV>
-0.300519

>  <SCORE.INTRA.SOLV.lig_0>
-64.052

>  <SCORE.INTRA.VDW>
6.5035

>  <SCORE.INTRA.VDW.0>
-7.0667

>  <SCORE.INTRA.norm>
-0.128173

>  <SCORE.RESTR>
4.64249

>  <SCORE.RESTR.CAVITY>
4.64249

>  <SCORE.RESTR.norm>
0.110535

>  <SCORE.SYSTEM>
0

>  <SCORE.SYSTEM.CONST>
0

>  <SCORE.SYSTEM.DIHEDRAL>
0

>  <SCORE.SYSTEM.SOLV>
0

>  <SCORE.SYSTEM.norm>
0

>  <SCORE.heavy>
42

>  <SCORE.norm>
-1.26236

>  <RMSD>
2.463

$$$$
1fyp_lig
 OpenBabel11021811393D
libRbt.so/2013.1/901 2013/11/27
 42 45  0  0  0  0  0  0  0  0999 V2000
    6.7309    5.4644   26.9937 C   0  0  2  0  0  0  0  0  0  0  0  0
    5.5133    6.1107   26.5222 O   0  0  0  0  0  0  0  0  0  0  0  0
    3.6469    7.8099   23.0770 C   0  0  2  0  0  0  0  0  0  0  0  0
    3.2450    8.2199   21.7187 N   0  0  0  0  0  0  0  0  0  0  0  0
    2.4138    3.8122   25.1293 C   0  0  1  0  0  0  0  0  0  0  0  0
   -0.8923    1.6972   26.7003 C   0  0  1  0  0  0  0  0  0  0  0  0
    6.4148    4.1481   27.7744 C   0  0  2  0  0  0  0  0  0  0  0  0
    5.5137    3.2684   26.9999 N   0  0  0  0  0  0  0  0  0  0  0  0
    5.1434    8.1176   23.2838 C   0  0  0  0  0  0  0  0  0  0  0  0
    2.5694    2.2922   25.2258 C   0  0  2  0  0  0  0  0  0  0  0  0
    2.2322    1.6975   23.9719 O   0  0  0  0  0  0  0  0  0  0  0  0
   -0.6069    0.5765   27.7460 C   0  0  2  0  0  0  0  0  0  0  0  0
   -0.1249   -0.6793   27.1208 N   0  0  0  0  0  0  0  0  0  0  0  0
    5.7934    4.4652   29.1706 C   0  0  1  0  0  0  0  0  0  0  0  0
    5.6584    3.2679   29.9321 O   0  0  0  0  0  0  0  0  0  0  0  0
    5.6307    7.7349   24.7081 C   0  0  2  0  0  0  0  0  0  0  0  0
    7.0843    7.9931   24.7724 N   0  0  0  0  0  0  0  0  0  0  0  0
    1.5403    1.9393   26.3032 C   0  0  2  0  0  0  0  0  0  0  0  0
    0.1987    1.8261   25.7518 O   0  0  0  0  0  0  0  0  0  0  0  0
   -1.8580    0.3204   28.6416 C   0  0  1  0  0  0  0  0  0  0  0  0
   -1.9989    1.4132   29.5469 O   0  0  0  0  0  0  0  0  0  0  0  0
    6.6622    5.4649   29.9744 C   0  0  2  0  0  0  0  0  0  0  0  0
    5.9973    5.7837   31.1930 O   0  0  0  0  0  0  0  0  0  0  0  0
    5.2945    6.2483   25.0888 C   0  0  2  0  0  0  0  0  0  0  0  0
    1.6358    3.1462   27.2470 C   0  0  2  0  0  0  0  0  0  0  0  0
    1.9687    4.2741   26.4148 O   0  0  0  0  0  0  0  0  0  0  0  0
   -3.1903    0.1712   27.8462 C   0  0  2  0  0  0  0  0  0  0  0  0
   -3.1875   -1.0975   27.1895 O   0  0  0  0  0  0  0  0  0  0  0  0
    6.9193    6.7508   29.1385 C   0  0  2  0  0  0  0  0  0  0  0  0
    7.4960    6.3769   27.8510 O   0  0  0  0  0  0  0  0  0  0  0  0
    3.8128    5.8498   24.7483 C   0  0  2  0  0  0  0  0  0  0  0  0
    3.7069    4.4040   24.8174 O   0  0  0  0  0  0  0  0  0  0  0  0
    2.6974    2.9688   28.3471 C   0  0  0  0  0  0  0  0  0  0  0  0
    2.4959    1.7566   29.0527 O   0  0  0  0  0  0  0  0  0  0  0  0
   -3.3425    1.3189   26.8003 C   0  0  1  0  0  0  0  0  0  0  0  0
   -2.1366    1.3986   25.9806 O   0  0  0  0  0  0  0  0  0  0  0  0
    7.8954    7.7597   29.7839 C   0  0  0  0  0  0  0  0  0  0  0  0
    9.2165    7.2469   29.8202 O   0  0  0  0  0  0  0  0  0  0  0  0
    3.3718    6.3069   23.3232 C   0  0  1  0  0  0  0  0  0  0  0  0
    1.9754    6.0558   23.1720 O   0  0  0  0  0  0  0  0  0  0  0  0
   -4.5711    1.1256   25.8748 C   0  0  0  0  0  0  0  0  0  0  0  0
   -4.4761   -0.1002   25.0614 N   0  0  0  0  0  0  0  0  0  0  0  0
  1  2  1  1  0  0  0
  1  7  1  0  0  0  0
  1 30  1  0  0  0  0
  3  4  1  6  0  0  0
  3  9  1  0  0  0  0
  3 39  1  0  0  0  0
  5 10  1  0  0  0  0
  5 26  1  0  0  0  0
  5 32  1  1  0  0  0
  6 12  1  0  0  0  0
  6 36  1  0  0  0  0
  6 19  1  6  0  0  0
  7  8  1  6  0  0  0
  7 14  1  0  0  0  0
  9 16  1  0  0  0  0
 10 11  1  6  0  0  0
 10 18  1  0  0  0  0
 12 13  1  6  0  0  0
 12 20  1  0  0  0  0
 14 15  1  1  0  0  0
 14 22  1  0  0  0  0
 16 17  1  6  0  0  0
 16 24  1  0  0  0  0
 18 19  1  6  0  0  0
 18 25  1  0  0  0  0
 20 21  1  1  0  0  0
 20 27  1  0  0  0  0
 22 23  1  1  0  0  0
 22 29  1  0  0  0  0
 24  2  1  1  0  0  0
 24 31  1  0  0  0  0
 25 26  1  0  0  0  0
 25 33  1  1  0  0  0
 27 28  1  6  0  0  0
 27 35  1  0  0  0  0
 29 30  1  0  0  0  0
 29 37  1  1  0  0  0
 31 32  1  6  0  0  0
 31 39  1  0  0  0  0
 33 34  1  0  0  0  0
 35 36  1  0  0  0  0
 35 41  1  6  0  0  0
 37 38  1  0  0  0  0
 39 40  1  1  0  0  0
 41 42  1  0  0  0  0
M  END
>  <CHROM.1>
-116.49887878,-102.14431700,72.55568480,-17.65024449,75.34740592,169.42983008
-52.01909517,-58.30977930,-170.88279028,-50.15910446,88.18171497,-177.84726748
-53.20262870,-170.74423837,68.40056287,153.27036748,-176.73883414,-174.11650050
-62.36854550,-58.07499222,-72.63649634,-60.44334038,2.71100275,3.89237323
26.67580601,-0.24946290,0.55707995,2.07617632

>  <Name>
1fyp_lig

>  <RI>
0

>  <Rbt.Current_Directory>
/home/itssahil/PROJECTS/Mol_Feturizer/New_Systems/rnas/1fyp

>  <Rbt.Executable>
rbdock ($Id: //depot/dev/client3/rdock/2013.1/src/exe/rbdock.cxx#4 $)

>  <Rbt.Library>
libRbt.so (2013.1, Build901 2013/11/27)

>  <Rbt.Parameter_File>
/export/apps/rDock/src/rDock_2013.1_src/data/scripts/dock_solv.prm

>  <Rbt.Receptor>
prm/pocket_docking_3.prm

>  <SCORE>
-44.9546

>  <SCORE.INTER>
-34.466

>  <SCORE.INTER.CONST>
1

>  <SCORE.INTER.POLAR>
-3.89143

>  <SCORE.INTER.ROT>
14

>  <SCORE.INTER.SOLV>
17.005

>  <SCORE.INTER.VDW>
-28.6076

>  <SCORE.INTER.norm>
-0.820618

>  <SCORE.INTRA>
-10.4887

>  <SCORE.INTRA.DIHEDRAL>
-22.738

>  <SCORE.INTRA.DIHEDRAL.0>
48.7173

>  <SCORE.INTRA.POLAR>
-0.463888

>  <SCORE.INTRA.POLAR.0>
-1.54691

>  <SCORE.INTRA.REPUL>
0

>  <SCORE.INTRA.REPUL.0>
0

>  <SCORE.INTRA.SOLV>
-0.104759

>  <SCORE.INTRA.SOLV.lig_0>
-64.052

>  <SCORE.INTRA.VDW>
2.50992

>  <SCORE.INTRA.VDW.0>
-7.0667

>  <SCORE.INTRA.norm>
-0.24973

>  <SCORE.RESTR>
0

>  <SCORE.RESTR.CAVITY>
0

>  <SCORE.RESTR.norm>
0

>  <SCORE.SYSTEM>
0

>  <SCORE.SYSTEM.CONST>
0

>  <SCORE.SYSTEM.DIHEDRAL>
0

>  <SCORE.SYSTEM.SOLV>
0

>  <SCORE.SYSTEM.norm>
0

>  <SCORE.heavy>
42

>  <SCORE.norm>
-1.07035

>  <RMSD>
2.467

$$$$
1fyp_lig
 OpenBabel11021811393D
libRbt.so/2013.1/901 2013/11/27
 42 45  0  0  0  0  0  0  0  0999 V2000
    6.7012    5.3798   27.0522 C   0  0  2  0  0  0  0  0  0  0  0  0
    5.4413    5.9997   26.6640 O   0  0  0  0  0  0  0  0  0  0  0  0
    3.3266    7.7550   23.3947 C   0  0  2  0  0  0  0  0  0  0  0  0
    2.8455    8.2145   22.0788 N   0  0  0  0  0  0  0  0  0  0  0  0
    2.4554    3.5559   25.1235 C   0  0  1  0  0  0  0  0  0  0  0  0
   -0.5473    0.4503   26.1026 C   0  0  1  0  0  0  0  0  0  0  0  0
    6.5843    3.8220   27.0922 C   0  0  2  0  0  0  0  0  0  0  0  0
    6.0020    3.2956   25.8394 N   0  0  0  0  0  0  0  0  0  0  0  0
    4.8018    8.1658   23.5736 C   0  0  0  0  0  0  0  0  0  0  0  0
    2.7104    2.0490   25.0348 C   0  0  2  0  0  0  0  0  0  0  0  0
    2.4268    1.5943   23.7110 O   0  0  0  0  0  0  0  0  0  0  0  0
   -1.8053    0.1864   25.2202 C   0  0  2  0  0  0  0  0  0  0  0  0
   -2.3955    1.4348   24.6784 N   0  0  0  0  0  0  0  0  0  0  0  0
    5.7378    3.3592   28.3191 C   0  0  1  0  0  0  0  0  0  0  0  0
    5.7727    1.9387   28.4327 O   0  0  0  0  0  0  0  0  0  0  0  0
    5.3683    7.7362   24.9544 C   0  0  2  0  0  0  0  0  0  0  0  0
    6.7993    8.1032   24.9893 N   0  0  0  0  0  0  0  0  0  0  0  0
    1.6954    1.4994   26.0408 C   0  0  2  0  0  0  0  0  0  0  0  0
    0.3703    1.3693   25.4545 O   0  0  0  0  0  0  0  0  0  0  0  0
   -2.8657   -0.6503   26.0004 C   0  0  1  0  0  0  0  0  0  0  0  0
   -2.3998   -1.9945   26.0986 O   0  0  0  0  0  0  0  0  0  0  0  0
    6.2591    3.9722   29.6430 C   0  0  2  0  0  0  0  0  0  0  0  0
    5.3925    3.5882   30.7062 O   0  0  0  0  0  0  0  0  0  0  0  0
    5.1606    6.2072   25.2499 C   0  0  2  0  0  0  0  0  0  0  0  0
    1.7005    2.5832   27.1279 C   0  0  2  0  0  0  0  0  0  0  0  0
    1.9668    3.8250   26.4475 O   0  0  0  0  0  0  0  0  0  0  0  0
   -3.1547   -0.1278   27.4403 C   0  0  2  0  0  0  0  0  0  0  0  0
   -3.9227    1.0728   27.3421 O   0  0  0  0  0  0  0  0  0  0  0  0
    6.3325    5.5213   29.5290 C   0  0  2  0  0  0  0  0  0  0  0  0
    7.1343    5.8776   28.3628 O   0  0  0  0  0  0  0  0  0  0  0  0
    3.7023    5.7153   24.9315 C   0  0  2  0  0  0  0  0  0  0  0  0
    3.7097    4.2641   24.9114 O   0  0  0  0  0  0  0  0  0  0  0  0
    2.7597    2.3393   28.2176 C   0  0  0  0  0  0  0  0  0  0  0  0
    2.5904    1.0633   28.8099 O   0  0  0  0  0  0  0  0  0  0  0  0
   -1.8241    0.1450   28.2081 C   0  0  1  0  0  0  0  0  0  0  0  0
   -0.9582    0.9998   27.4005 O   0  0  0  0  0  0  0  0  0  0  0  0
    6.9755    6.2312   30.7413 C   0  0  0  0  0  0  0  0  0  0  0  0
    7.0163    7.6357   30.5535 O   0  0  0  0  0  0  0  0  0  0  0  0
    3.1762    6.2227   23.5530 C   0  0  1  0  0  0  0  0  0  0  0  0
    1.7985    5.8726   23.4302 O   0  0  0  0  0  0  0  0  0  0  0  0
   -2.0556    0.8172   29.5857 C   0  0  0  0  0  0  0  0  0  0  0  0
   -3.2802    0.3343   30.2493 N   0  0  0  0  0  0  0  0  0  0  0  0
  1  2  1  1  0  0  0
  1  7  1  0  0  0  0
  1 30  1  0  0  0  0
  3  4  1  6  0  0  0
  3  9  1  0  0  0  0
  3 39  1  0  0  0  0
  5 10  1  0  0  0  0
  5 26  1  0  0  0  0
  5 32  1  1  0  0  0
  6 12  1  0  0  0  0
  6 36  1  0  0  0  0
  6 19  1  6  0  0  0
  7  8  1  6  0  0  0
  7 14  1  0  0  0  0
  9 16  1  0  0  0  0
 10 11  1  6  0  0  0
 10 18  1  0  0  0  0
 12 13  1  1  0  0  0
 12 20  1  0  0  0  0
 14 15  1  1  0  0  0
 14 22  1  0  0  0  0
 16 17  1  6  0  0  0
 16 24  1  0  0  0  0
 18 19  1  6  0  0  0
 18 25  1  0  0  0  0
 20 21  1  1  0  0  0
 20 27  1  0  0  0  0
 22 23  1  1  0  0  0
 22 29  1  0  0  0  0
 24  2  1  1  0  0  0
 24 31  1  0  0  0  0
 25 26  1  0  0  0  0
 25 33  1  1  0  0  0
 27 28  1  6  0  0  0
 27 35  1  0  0  0  0
 29 30  1  0  0  0  0
 29 37  1  1  0  0  0
 31 32  1  6  0  0  0
 31 39  1  0  0  0  0
 33 34  1  0  0  0  0
 35 36  1  0  0  0  0
 35 41  1  1  0  0  0
 37 38  1  0  0  0  0
 39 40  1  1  0  0  0
 41 42  1  0  0  0  0
M  END
>  <CHROM.1>
-88.19761806,-104.29641390,172.76139937,174.97419699,-72.06378505,61.51942515
75.45920991,78.81298890,158.76696343,-168.31045523,-178.89446852,175.86662899
-56.06646479,64.37643330,179.42059860,157.95457889,179.05412908,175.29587509
35.79984546,177.88378404,-69.03141150,-88.51208476,2.58666787,3.49564957
26.65218293,-0.32988846,0.57007098,2.11336541

>  <Name>
1fyp_lig

>  <RI>
0

>  <Rbt.Current_Directory>
/home/itssahil/PROJECTS/Mol_Feturizer/New_Systems/rnas/1fyp

>  <Rbt.Executable>
rbdock ($Id: //depot/dev/client3/rdock/2013.1/src/exe/rbdock.cxx#4 $)

>  <Rbt.Library>
libRbt.so (2013.1, Build901 2013/11/27)

>  <Rbt.Parameter_File>
/export/apps/rDock/src/rDock_2013.1_src/data/scripts/dock_solv.prm

>  <Rbt.Receptor>
prm/pocket_docking_6.prm

>  <SCORE>
-39.8721

>  <SCORE.INTER>
-27.0514

>  <SCORE.INTER.CONST>
1

>  <SCORE.INTER.POLAR>
-2.86591

>  <SCORE.INTER.ROT>
14

>  <SCORE.INTER.SOLV>
20.1078

>  <SCORE.INTER.VDW>
-28.1172

>  <SCORE.INTER.norm>
-0.644081

>  <SCORE.INTRA>
-12.8207

>  <SCORE.INTRA.DIHEDRAL>
-28.036

>  <SCORE.INTRA.DIHEDRAL.0>
48.7173

>  <SCORE.INTRA.POLAR>
0.246908

>  <SCORE.INTRA.POLAR.0>
-1.54691

>  <SCORE.INTRA.REPUL>
0

>  <SCORE.INTRA.REPUL.0>
0

>  <SCORE.INTRA.SOLV>
-1.02251

>  <SCORE.INTRA.SOLV.lig_0>
-64.052

>  <SCORE.INTRA.VDW>
0.869074

>  <SCORE.INTRA.VDW.0>
-7.0667

>  <SCORE.INTRA.norm>
-0.305255

>  <SCORE.RESTR>
0

>  <SCORE.RESTR.CAVITY>
0

>  <SCORE.RESTR.norm>
0

>  <SCORE.SYSTEM>
0

>  <SCORE.SYSTEM.CONST>
0

>  <SCORE.SYSTEM.DIHEDRAL>
0

>  <SCORE.SYSTEM.SOLV>
0

>  <SCORE.SYSTEM.norm>
0

>  <SCORE.heavy>
42

>  <SCORE.norm>
-0.949335

>  <RMSD>
2.510

$$$$
1fyp_lig
 OpenBabel11021811393D
libRbt.so/2013.1/901 2013/11/27
 42 45  0  0  0  0  0  0  0  0999 V2000
    5.7929    6.5172   28.8123 C   0  0  2  0  0  0  0  0  0  0  0  0
    5.8318    5.3237   27.9777 O   0  0  0  0  0  0  0  0  0  0  0  0
    3.3483    7.0563   24.9659 C   0  0  2  0  0  0  0  0  0  0  0  0
    2.5369    7.3510   23.7704 N   0  0  0  0  0  0  0  0  0  0  0  0
    2.2069    3.5259   26.9693 C   0  0  1  0  0  0  0  0  0  0  0  0
    0.7249    0.0341   24.9343 C   0  0  1  0  0  0  0  0  0  0  0  0
    6.7289    7.6370   28.2537 C   0  0  2  0  0  0  0  0  0  0  0  0
    6.4731    7.8833   26.8186 N   0  0  0  0  0  0  0  0  0  0  0  0
    4.7525    6.5914   24.5311 C   0  0  0  0  0  0  0  0  0  0  0  0
    3.2026    2.6336   26.2236 C   0  0  2  0  0  0  0  0  0  0  0  0
    3.4184    3.1528   24.9108 O   0  0  0  0  0  0  0  0  0  0  0  0
    0.0885   -0.0685   23.5146 C   0  0  2  0  0  0  0  0  0  0  0  0
   -0.5753    1.1894   23.0936 N   0  0  0  0  0  0  0  0  0  0  0  0
    8.2293    7.2726   28.4816 C   0  0  1  0  0  0  0  0  0  0  0  0
    9.0629    8.3687   28.1135 O   0  0  0  0  0  0  0  0  0  0  0  0
    5.6734    6.2886   25.7445 C   0  0  2  0  0  0  0  0  0  0  0  0
    6.9570    5.7773   25.2206 N   0  0  0  0  0  0  0  0  0  0  0  0
    2.4538    1.2988   26.1774 C   0  0  2  0  0  0  0  0  0  0  0  0
    1.5001    1.2526   25.0798 O   0  0  0  0  0  0  0  0  0  0  0  0
   -0.8887   -1.2814   23.4300 C   0  0  1  0  0  0  0  0  0  0  0  0
   -0.1196   -2.4818   23.3961 O   0  0  0  0  0  0  0  0  0  0  0  0
    8.5162    6.9104   29.9604 C   0  0  2  0  0  0  0  0  0  0  0  0
    9.8743    6.4992   30.0835 O   0  0  0  0  0  0  0  0  0  0  0  0
    5.0280    5.2823   26.7639 C   0  0  2  0  0  0  0  0  0  0  0  0
    1.7235    1.2925   27.5276 C   0  0  2  0  0  0  0  0  0  0  0  0
    1.4333    2.6717   27.8269 O   0  0  0  0  0  0  0  0  0  0  0  0
   -1.8893   -1.3766   24.6215 C   0  0  2  0  0  0  0  0  0  0  0  0
   -2.8740   -0.3528   24.4706 O   0  0  0  0  0  0  0  0  0  0  0  0
    7.5574    5.7823   30.4361 C   0  0  2  0  0  0  0  0  0  0  0  0
    6.1783    6.1914   30.1901 O   0  0  0  0  0  0  0  0  0  0  0  0
    3.5379    5.6383   27.1145 C   0  0  2  0  0  0  0  0  0  0  0  0
    2.9427    4.4906   27.7742 O   0  0  0  0  0  0  0  0  0  0  0  0
    2.5572    0.6693   28.6613 C   0  0  0  0  0  0  0  0  0  0  0  0
    3.9011    1.1147   28.6035 O   0  0  0  0  0  0  0  0  0  0  0  0
   -1.1461   -1.2128   25.9835 C   0  0  1  0  0  0  0  0  0  0  0  0
   -0.3301   -0.0021   25.9545 O   0  0  0  0  0  0  0  0  0  0  0  0
    7.6552    5.4388   31.9393 C   0  0  0  0  0  0  0  0  0  0  0  0
    6.6483    4.5181   32.3237 O   0  0  0  0  0  0  0  0  0  0  0  0
    2.6813    5.9799   25.8559 C   0  0  1  0  0  0  0  0  0  0  0  0
    1.4045    6.4518   26.2836 O   0  0  0  0  0  0  0  0  0  0  0  0
   -2.1172   -1.1393   27.1896 C   0  0  0  0  0  0  0  0  0  0  0  0
   -1.6453   -1.9288   28.3416 N   0  0  0  0  0  0  0  0  0  0  0  0
  1  2  1  6  0  0  0
  1  7  1  0  0  0  0
  1 30  1  0  0  0  0
  3  4  1  6  0  0  0
  3  9  1  0  0  0  0
  3 39  1  0  0  0  0
  5 10  1  0  0  0  0
  5 26  1  0  0  0  0
  5 32  1  1  0  0  0
  6 12  1  0  0  0  0
  6 36  1  0  0  0  0
  6 19  1  6  0  0  0
  7  8  1  6  0  0  0
  7 14  1  0  0  0  0
  9 16  1  0  0  0  0
 10 11  1  6  0  0  0
 10 18  1  0  0  0  0
 12 13  1  1  0  0  0
 12 20  1  0  0  0  0
 14 15  1  1  0  0  0
 14 22  1  0  0  0  0
 16 17  1  6  0  0  0
 16 24  1  0  0  0  0
 18 19  1  6  0  0  0
 18 25  1  0  0  0  0
 20 21  1  1  0  0  0
 20 27  1  0  0  0  0
 22 23  1  6  0  0  0
 22 29  1  0  0  0  0
 24  2  1  1  0  0  0
 24 31  1  0  0  0  0
 25 26  1  0  0  0  0
 25 33  1  1  0  0  0
 27 28  1  6  0  0  0
 27 35  1  0  0  0  0
 29 30  1  0  0  0  0
 29 37  1  1  0  0  0
 31 32  1  6  0  0  0
 31 39  1  0  0  0  0
 33 34  1  0  0  0  0
 35 36  1  0  0  0  0
 35 41  1  1  0  0  0
 37 38  1  0  0  0  0
 39 40  1  1  0  0  0
 41 42  1  0  0  0  0
M  END
>  <CHROM.1>
-81.16604960,69.98107741,75.92357359,95.12367249,-166.06331322,176.97474815
55.96773624,-24.76234709,-179.86860246,-162.43336680,57.10876661,74.89494226
43.06760120,66.41483182,173.17510427,-93.88277389,77.18155305,-65.09547919
137.74345650,74.74361344,-49.52482536,-136.82234728,3.31523716,3.52841427
26.87389345,-0.16650723,0.77853302,2.26342890

>  <Name>
1fyp_lig

>  <RI>
0

>  <Rbt.Current_Directory>
/home/itssahil/PROJECTS/Mol_Feturizer/New_Systems/rnas/1fyp

>  <Rbt.Executable>
rbdock ($Id: //depot/dev/client3/rdock/2013.1/src/exe/rbdock.cxx#4 $)

>  <Rbt.Library>
libRbt.so (2013.1, Build901 2013/11/27)

>  <Rbt.Parameter_File>
/export/apps/rDock/src/rDock_2013.1_src/data/scripts/dock_solv.prm

>  <Rbt.Receptor>
prm/pocket_docking_2.prm

>  <SCORE>
-43.4152

>  <SCORE.INTER>
-58.8201

>  <SCORE.INTER.CONST>
1

>  <SCORE.INTER.POLAR>
-8.53425

>  <SCORE.INTER.ROT>
14

>  <SCORE.INTER.SOLV>
17.6721

>  <SCORE.INTER.VDW>
-29.5899

>  <SCORE.INTER.norm>
-1.40048

>  <SCORE.INTRA>
10.5128

>  <SCORE.INTRA.DIHEDRAL>
-24.0726

>  <SCORE.INTRA.DIHEDRAL.0>
48.7173

>  <SCORE.INTRA.POLAR>
1.46366

>  <SCORE.INTRA.POLAR.0>
-1.54691

>  <SCORE.INTRA.REPUL>
0

>  <SCORE.INTRA.REPUL.0>
0

>  <SCORE.INTRA.SOLV>
-0.0607933

>  <SCORE.INTRA.SOLV.lig_0>
-64.052

>  <SCORE.INTRA.VDW>
17.6031

>  <SCORE.INTRA.VDW.0>
-7.0667

>  <SCORE.INTRA.norm>
0.250305

>  <SCORE.RESTR>
4.89205

>  <SCORE.RESTR.CAVITY>
4.89205

>  <SCORE.RESTR.norm>
0.116477

>  <SCORE.SYSTEM>
0

>  <SCORE.SYSTEM.CONST>
0

>  <SCORE.SYSTEM.DIHEDRAL>
0

>  <SCORE.SYSTEM.SOLV>
0

>  <SCORE.SYSTEM.norm>
0

>  <SCORE.heavy>
42

>  <SCORE.norm>
-1.0337

>  <RMSD>
2.551

$$$$
1fyp_lig
 OpenBabel11021811393D
libRbt.so/2013.1/901 2013/11/27
 42 45  0  0  0  0  0  0  0  0999 V2000
    6.4808    5.6192   27.7110 C   0  0  2  0  0  0  0  0  0  0  0  0
    5.2518    6.4000   27.6649 O   0  0  0  0  0  0  0  0  0  0  0  0
    3.1664    7.8793   24.2438 C   0  0  2  0  0  0  0  0  0  0  0  0
    2.3833    8.0563   23.0069 N   0  0  0  0  0  0  0  0  0  0  0  0
    1.3346    5.4673   27.2350 C   0  0  1  0  0  0  0  0  0  0  0  0
   -0.3928    1.5377   26.1292 C   0  0  1  0  0  0  0  0  0  0  0  0
    7.0646    5.5558   29.1592 C   0  0  2  0  0  0  0  0  0  0  0  0
    6.0352    5.1377   30.1345 N   0  0  0  0  0  0  0  0  0  0  0  0
    4.3164    6.8856   23.9850 C   0  0  0  0  0  0  0  0  0  0  0  0
    2.1539    4.2482   26.8036 C   0  0  2  0  0  0  0  0  0  0  0  0
    2.3747    4.2964   25.3934 O   0  0  0  0  0  0  0  0  0  0  0  0
    0.6793    0.4129   26.2577 C   0  0  2  0  0  0  0  0  0  0  0  0
    1.8383    0.6224   25.3559 N   0  0  0  0  0  0  0  0  0  0  0  0
    7.6759    6.9310   29.5731 C   0  0  1  0  0  0  0  0  0  0  0  0
    8.3431    6.8149   30.8274 O   0  0  0  0  0  0  0  0  0  0  0  0
    5.2023    6.6715   25.2427 C   0  0  2  0  0  0  0  0  0  0  0  0
    6.2161    5.6485   24.9119 N   0  0  0  0  0  0  0  0  0  0  0  0
    1.2213    3.0940   27.1812 C   0  0  2  0  0  0  0  0  0  0  0  0
    0.2163    2.8549   26.1568 O   0  0  0  0  0  0  0  0  0  0  0  0
    0.0387   -0.9927   26.0411 C   0  0  1  0  0  0  0  0  0  0  0  0
   -0.7383   -1.3190   27.1914 O   0  0  0  0  0  0  0  0  0  0  0  0
    8.6890    7.4509   28.5225 C   0  0  2  0  0  0  0  0  0  0  0  0
    9.1381    8.7457   28.9106 O   0  0  0  0  0  0  0  0  0  0  0  0
    4.3710    6.2661   26.5126 C   0  0  2  0  0  0  0  0  0  0  0  0
    0.5669    3.6168   28.4676 C   0  0  2  0  0  0  0  0  0  0  0  0
    0.4916    5.0480   28.3200 O   0  0  0  0  0  0  0  0  0  0  0  0
   -0.8831   -1.0855   24.7874 C   0  0  2  0  0  0  0  0  0  0  0  0
   -0.0615   -1.0901   23.6189 O   0  0  0  0  0  0  0  0  0  0  0  0
    8.0304    7.4991   27.1146 C   0  0  2  0  0  0  0  0  0  0  0  0
    7.4811    6.1845   26.7983 O   0  0  0  0  0  0  0  0  0  0  0  0
    3.0988    7.1646   26.7232 C   0  0  2  0  0  0  0  0  0  0  0  0
    2.2402    6.5110   27.6939 O   0  0  0  0  0  0  0  0  0  0  0  0
    1.3597    3.2568   29.7367 C   0  0  0  0  0  0  0  0  0  0  0  0
    2.1554    4.3492   30.1620 O   0  0  0  0  0  0  0  0  0  0  0  0
   -1.8785    0.1151   24.7416 C   0  0  1  0  0  0  0  0  0  0  0  0
   -1.1416    1.3685   24.8778 O   0  0  0  0  0  0  0  0  0  0  0  0
    8.9909    7.8661   25.9614 C   0  0  0  0  0  0  0  0  0  0  0  0
    8.3170    7.8790   24.7144 O   0  0  0  0  0  0  0  0  0  0  0  0
    2.2818    7.3799   25.4115 C   0  0  1  0  0  0  0  0  0  0  0  0
    1.2540    8.3372   25.6626 O   0  0  0  0  0  0  0  0  0  0  0  0
   -2.7069    0.1554   23.4319 C   0  0  0  0  0  0  0  0  0  0  0  0
   -3.8652    1.0624   23.5259 N   0  0  0  0  0  0  0  0  0  0  0  0
  1  2  1  1  0  0  0
  1  7  1  0  0  0  0
  1 30  1  0  0  0  0
  3  4  1  6  0  0  0
  3  9  1  0  0  0  0
  3 39  1  0  0  0  0
  5 10  1  0  0  0  0
  5 26  1  0  0  0  0
  5 32  1  1  0  0  0
  6 12  1  0  0  0  0
  6 36  1  0  0  0  0
  6 19  1  6  0  0  0
  7  8  1  1  0  0  0
  7 14  1  0  0  0  0
  9 16  1  0  0  0  0
 10 11  1  6  0  0  0
 10 18  1  0  0  0  0
 12 13  1  6  0  0  0
 12 20  1  0  0  0  0
 14 15  1  1  0  0  0
 14 22  1  0  0  0  0
 16 17  1  6  0  0  0
 16 24  1  0  0  0  0
 18 19  1  6  0  0  0
 18 25  1  0  0  0  0
 20 21  1  1  0  0  0
 20 27  1  0  0  0  0
 22 23  1  1  0  0  0
 22 29  1  0  0  0  0
 24  2  1  1  0  0  0
 24 31  1  0  0  0  0
 25 26  1  0  0  0  0
 25 33  1  1  0  0  0
 27 28  1  6  0  0  0
 27 35  1  0  0  0  0
 29 30  1  0  0  0  0
 29 37  1  6  0  0  0
 31 32  1  1  0  0  0
 31 39  1  0  0  0  0
 33 34  1  0  0  0  0
 35 36  1  0  0  0  0
 35 41  1  6  0  0  0
 37 38  1  0  0  0  0
 39 40  1  1  0  0  0
 41 42  1  0  0  0  0
M  END
>  <CHROM.1>
-162.90382556,-59.30032236,58.66225115,-165.09781170,178.79266882,-144.11970668
-66.82313847,135.17975692,157.86396086,-45.76093471,-169.25085072,-176.31771510
99.03802951,48.17817882,179.58053638,-83.26418665,68.54888404,65.99000463
165.50446153,68.84156578,172.11803565,-71.16585029,3.06947840,4.52610528
26.57194914,-0.24207331,0.67552279,2.28154201

>  <Name>
1fyp_lig

>  <RI>
0

>  <Rbt.Current_Directory>
/home/itssahil/PROJECTS/Mol_Feturizer/New_Systems/rnas/1fyp

>  <Rbt.Executable>
rbdock ($Id: //depot/dev/client3/rdock/2013.1/src/exe/rbdock.cxx#4 $)

>  <Rbt.Library>
libRbt.so (2013.1, Build901 2013/11/27)

>  <Rbt.Parameter_File>
/export/apps/rDock/src/rDock_2013.1_src/data/scripts/dock_solv.prm

>  <Rbt.Receptor>
prm/blind_docking_40.prm

>  <SCORE>
-38.8306

>  <SCORE.INTER>
-34.8056

>  <SCORE.INTER.CONST>
1

>  <SCORE.INTER.POLAR>
-3.80074

>  <SCORE.INTER.ROT>
14

>  <SCORE.INTER.SOLV>
15.9356

>  <SCORE.INTER.VDW>
-28.7798

>  <SCORE.INTER.norm>
-0.828705

>  <SCORE.INTRA>
-4.84865

>  <SCORE.INTRA.DIHEDRAL>
-30.1221

>  <SCORE.INTRA.DIHEDRAL.0>
48.7173

>  <SCORE.INTRA.POLAR>
0.953777

>  <SCORE.INTRA.POLAR.0>
-1.54691

>  <SCORE.INTRA.REPUL>
0.0785013

>  <SCORE.INTRA.REPUL.0>
0

>  <SCORE.INTRA.SOLV>
0.895348

>  <SCORE.INTRA.SOLV.lig_0>
-64.052

>  <SCORE.INTRA.VDW>
6.12939

>  <SCORE.INTRA.VDW.0>
-7.0667

>  <SCORE.INTRA.norm>
-0.115444

>  <SCORE.RESTR>
0.823637

>  <SCORE.RESTR.CAVITY>
0.823637

>  <SCORE.RESTR.norm>
0.0196104

>  <SCORE.SYSTEM>
0

>  <SCORE.SYSTEM.CONST>
0

>  <SCORE.SYSTEM.DIHEDRAL>
0

>  <SCORE.SYSTEM.SOLV>
0

>  <SCORE.SYSTEM.norm>
0

>  <SCORE.heavy>
42

>  <SCORE.norm>
-0.924539

>  <RMSD>
2.557

$$$$
1fyp_lig
 OpenBabel11021811393D
libRbt.so/2013.1/901 2013/11/27
 42 45  0  0  0  0  0  0  0  0999 V2000
    5.4915    7.3345   27.1683 C   0  0  2  0  0  0  0  0  0  0  0  0
    5.8626    6.2715   26.2438 O   0  0  0  0  0  0  0  0  0  0  0  0
    3.2921    7.6284   23.1145 C   0  0  2  0  0  0  0  0  0  0  0  0
    2.6431    7.9539   21.8311 N   0  0  0  0  0  0  0  0  0  0  0  0
    3.0573    3.5488   25.5116 C   0  0  1  0  0  0  0  0  0  0  0  0
    0.6671    0.4090   25.6237 C   0  0  1  0  0  0  0  0  0  0  0  0
    6.7399    7.9052   27.9153 C   0  0  2  0  0  0  0  0  0  0  0  0
    7.8146    8.2651   26.9661 N   0  0  0  0  0  0  0  0  0  0  0  0
    4.7427    8.1505   23.1027 C   0  0  0  0  0  0  0  0  0  0  0  0
    3.2146    2.0592   25.1953 C   0  0  2  0  0  0  0  0  0  0  0  0
    2.3535    1.7081   24.1114 O   0  0  0  0  0  0  0  0  0  0  0  0
   -0.0288    1.2014   24.4752 C   0  0  2  0  0  0  0  0  0  0  0  0
   -0.8532    2.3281   24.9763 N   0  0  0  0  0  0  0  0  0  0  0  0
    7.2696    6.8859   28.9720 C   0  0  1  0  0  0  0  0  0  0  0  0
    8.3043    7.4796   29.7522 O   0  0  0  0  0  0  0  0  0  0  0  0
    5.4810    7.8654   24.4391 C   0  0  2  0  0  0  0  0  0  0  0  0
    6.8760    8.3301   24.2922 N   0  0  0  0  0  0  0  0  0  0  0  0
    2.7543    1.4105   26.5037 C   0  0  2  0  0  0  0  0  0  0  0  0
    1.3051    1.3033   26.5724 O   0  0  0  0  0  0  0  0  0  0  0  0
   -0.8646    0.2463   23.5684 C   0  0  1  0  0  0  0  0  0  0  0  0
    0.0332   -0.5227   22.7709 O   0  0  0  0  0  0  0  0  0  0  0  0
    6.1460    6.4081   29.9256 C   0  0  2  0  0  0  0  0  0  0  0  0
    6.6704    5.4146   30.8013 O   0  0  0  0  0  0  0  0  0  0  0  0
    5.4212    6.3525   24.8582 C   0  0  2  0  0  0  0  0  0  0  0  0
    3.2726    2.4024   27.5544 C   0  0  2  0  0  0  0  0  0  0  0  0
    3.2266    3.7002   26.9301 O   0  0  0  0  0  0  0  0  0  0  0  0
   -1.7825   -0.7374   24.3557 C   0  0  2  0  0  0  0  0  0  0  0  0
   -2.8841   -0.0015   24.8901 O   0  0  0  0  0  0  0  0  0  0  0  0
    4.9493    5.8419   29.1096 C   0  0  2  0  0  0  0  0  0  0  0  0
    4.5113    6.8452   28.1444 O   0  0  0  0  0  0  0  0  0  0  0  0
    3.9788    5.7403   24.7353 C   0  0  2  0  0  0  0  0  0  0  0  0
    4.0935    4.2956   24.8127 O   0  0  0  0  0  0  0  0  0  0  0  0
    4.7052    2.0911   28.0227 C   0  0  0  0  0  0  0  0  0  0  0  0
    5.6425    2.3617   26.9951 O   0  0  0  0  0  0  0  0  0  0  0  0
   -0.9907   -1.4334   25.5060 C   0  0  1  0  0  0  0  0  0  0  0  0
   -0.3206   -0.4238   26.3210 O   0  0  0  0  0  0  0  0  0  0  0  0
    3.7093    5.4675   29.9517 C   0  0  0  0  0  0  0  0  0  0  0  0
    2.5572    5.3277   29.1378 O   0  0  0  0  0  0  0  0  0  0  0  0
    3.2750    6.1057   23.3915 C   0  0  1  0  0  0  0  0  0  0  0  0
    1.9224    5.6548   23.4442 O   0  0  0  0  0  0  0  0  0  0  0  0
   -1.8977   -2.2989   26.4178 C   0  0  0  0  0  0  0  0  0  0  0  0
   -2.7420   -3.2319   25.6499 N   0  0  0  0  0  0  0  0  0  0  0  0
  1  2  1  6  0  0  0
  1  7  1  0  0  0  0
  1 30  1  0  0  0  0
  3  4  1  6  0  0  0
  3  9  1  0  0  0  0
  3 39  1  0  0  0  0
  5 10  1  0  0  0  0
  5 26  1  0  0  0  0
  5 32  1  6  0  0  0
  6 12  1  0  0  0  0
  6 36  1  0  0  0  0
  6 19  1  1  0  0  0
  7  8  1  6  0  0  0
  7 14  1  0  0  0  0
  9 16  1  0  0  0  0
 10 11  1  6  0  0  0
 10 18  1  0  0  0  0
 12 13  1  1  0  0  0
 12 20  1  0  0  0  0
 14 15  1  1  0  0  0
 14 22  1  0  0  0  0
 16 17  1  6  0  0  0
 16 24  1  0  0  0  0
 18 19  1  6  0  0  0
 18 25  1  0  0  0  0
 20 21  1  1  0  0  0
 20 27  1  0  0  0  0
 22 23  1  1  0  0  0
 22 29  1  0  0  0  0
 24  2  1  1  0  0  0
 24 31  1  0  0  0  0
 25 26  1  0  0  0  0
 25 33  1  6  0  0  0
 27 28  1  1  0  0  0
 27 35  1  0  0  0  0
 29 30  1  0  0  0  0
 29 37  1  1  0  0  0
 31 32  1  6  0  0  0
 31 39  1  0  0  0  0
 33 34  1  0  0  0  0
 35 36  1  0  0  0  0
 35 41  1  1  0  0  0
 37 38  1  0  0  0  0
 39 40  1  1  0  0  0
 41 42  1  0  0  0  0
M  END
>  <CHROM.1>
-127.81423723,36.92726056,-75.12459137,146.09048573,91.21164553,-50.38762144
-165.40876456,-172.90877181,66.27519526,-104.46438618,-109.91621314,167.08737612
70.32976746,162.14996521,163.34118801,143.01993375,167.30092891,-179.60657682
50.72488583,69.17973835,-72.42417223,-166.83837725,3.08056928,3.87816743
26.06071021,0.23525472,-0.81778614,-0.98008968

>  <Name>
1fyp_lig

>  <RI>
0

>  <Rbt.Current_Directory>
/home/itssahil/PROJECTS/Mol_Feturizer/New_Systems/rnas/1fyp

>  <Rbt.Executable>
rbdock ($Id: //depot/dev/client3/rdock/2013.1/src/exe/rbdock.cxx#4 $)

>  <Rbt.Library>
libRbt.so (2013.1, Build901 2013/11/27)

>  <Rbt.Parameter_File>
/export/apps/rDock/src/rDock_2013.1_src/data/scripts/dock_solv.prm

>  <Rbt.Receptor>
prm/blind_docking_100.prm

>  <SCORE>
-48.8398

>  <SCORE.INTER>
-48.6592

>  <SCORE.INTER.CONST>
1

>  <SCORE.INTER.POLAR>
-6.28316

>  <SCORE.INTER.ROT>
14

>  <SCORE.INTER.SOLV>
19.2392

>  <SCORE.INTER.VDW>
-30.842

>  <SCORE.INTER.norm>
-1.15855

>  <SCORE.INTRA>
-0.616197

>  <SCORE.INTRA.DIHEDRAL>
-8.30165

>  <SCORE.INTRA.DIHEDRAL.0>
48.7173

>  <SCORE.INTRA.POLAR>
-0.430696

>  <SCORE.INTRA.POLAR.0>
-1.54691

>  <SCORE.INTRA.REPUL>
0.00598416

>  <SCORE.INTRA.REPUL.0>
0

>  <SCORE.INTRA.SOLV>
1.30407

>  <SCORE.INTRA.SOLV.lig_0>
-64.052

>  <SCORE.INTRA.VDW>
4.31703

>  <SCORE.INTRA.VDW.0>
-7.0667

>  <SCORE.INTRA.norm>
-0.0146714

>  <SCORE.RESTR>
0.435571

>  <SCORE.RESTR.CAVITY>
0.435571

>  <SCORE.RESTR.norm>
0.0103707

>  <SCORE.SYSTEM>
0

>  <SCORE.SYSTEM.CONST>
0

>  <SCORE.SYSTEM.DIHEDRAL>
0

>  <SCORE.SYSTEM.SOLV>
0

>  <SCORE.SYSTEM.norm>
0

>  <SCORE.heavy>
42

>  <SCORE.norm>
-1.16285

>  <RMSD>
2.569

$$$$
1fyp_lig
 OpenBabel11021811393D
libRbt.so/2013.1/901 2013/11/27
 42 45  0  0  0  0  0  0  0  0999 V2000
    6.6710    5.2582   27.3914 C   0  0  2  0  0  0  0  0  0  0  0  0
    5.5375    6.0137   26.8748 O   0  0  0  0  0  0  0  0  0  0  0  0
    3.8591    7.6710   23.3143 C   0  0  2  0  0  0  0  0  0  0  0  0
    3.4961    8.0252   21.9297 N   0  0  0  0  0  0  0  0  0  0  0  0
    2.1796    4.0305   25.7419 C   0  0  1  0  0  0  0  0  0  0  0  0
   -1.3137    1.3579   26.1076 C   0  0  1  0  0  0  0  0  0  0  0  0
    6.2029    4.0145   28.2138 C   0  0  2  0  0  0  0  0  0  0  0  0
    5.2226    3.2083   27.4556 N   0  0  0  0  0  0  0  0  0  0  0  0
    5.3846    7.8027   23.4943 C   0  0  0  0  0  0  0  0  0  0  0  0
    1.9181    2.5863   25.3061 C   0  0  2  0  0  0  0  0  0  0  0  0
    1.2162    2.5829   24.0624 O   0  0  0  0  0  0  0  0  0  0  0  0
   -2.2241    1.2246   27.3664 C   0  0  2  0  0  0  0  0  0  0  0  0
   -1.4545    1.2557   28.6341 N   0  0  0  0  0  0  0  0  0  0  0  0
    5.6001    4.4500   29.5860 C   0  0  1  0  0  0  0  0  0  0  0  0
    5.3253    3.3042   30.3881 O   0  0  0  0  0  0  0  0  0  0  0  0
    5.8365    7.4697   24.9425 C   0  0  2  0  0  0  0  0  0  0  0  0
    7.3116    7.5472   24.9842 N   0  0  0  0  0  0  0  0  0  0  0  0
    1.0342    2.0703   26.4448 C   0  0  2  0  0  0  0  0  0  0  0  0
   -0.3598    2.4416   26.2568 O   0  0  0  0  0  0  0  0  0  0  0  0
   -3.1153   -0.0523   27.2749 C   0  0  1  0  0  0  0  0  0  0  0  0
   -4.1374    0.1765   26.3072 O   0  0  0  0  0  0  0  0  0  0  0  0
    6.5610    5.3800   30.3684 C   0  0  2  0  0  0  0  0  0  0  0  0
    5.9176    5.8150   31.5623 O   0  0  0  0  0  0  0  0  0  0  0  0
    5.3212    6.0698   25.4355 C   0  0  2  0  0  0  0  0  0  0  0  0
    1.6254    2.7923   27.6637 C   0  0  2  0  0  0  0  0  0  0  0  0
    2.1111    4.0583   27.1766 O   0  0  0  0  0  0  0  0  0  0  0  0
   -2.3395   -1.3421   26.8694 C   0  0  2  0  0  0  0  0  0  0  0  0
   -1.5485   -1.7649   27.9812 O   0  0  0  0  0  0  0  0  0  0  0  0
    6.9679    6.5977   29.4910 C   0  0  2  0  0  0  0  0  0  0  0  0
    7.5185    6.1148   28.2286 O   0  0  0  0  0  0  0  0  0  0  0  0
    3.7975    5.8364   25.1291 C   0  0  2  0  0  0  0  0  0  0  0  0
    3.5123    4.4246   25.3078 O   0  0  0  0  0  0  0  0  0  0  0  0
    2.7688    2.0089   28.3327 C   0  0  0  0  0  0  0  0  0  0  0  0
    3.5242    1.2961   27.3688 O   0  0  0  0  0  0  0  0  0  0  0  0
   -1.4288   -1.0745   25.6310 C   0  0  1  0  0  0  0  0  0  0  0  0
   -0.5949    0.0982   25.8798 O   0  0  0  0  0  0  0  0  0  0  0  0
    8.0387    7.5192   30.1167 C   0  0  0  0  0  0  0  0  0  0  0  0
    8.2774    8.6564   29.3048 O   0  0  0  0  0  0  0  0  0  0  0  0
    3.4009    6.2371   23.6743 C   0  0  1  0  0  0  0  0  0  0  0  0
    1.9824    6.1530   23.5453 O   0  0  0  0  0  0  0  0  0  0  0  0
   -0.5167   -2.2800   25.2878 C   0  0  0  0  0  0  0  0  0  0  0  0
   -0.0681   -2.2650   23.8837 N   0  0  0  0  0  0  0  0  0  0  0  0
  1  2  1  1  0  0  0
  1  7  1  0  0  0  0
  1 30  1  0  0  0  0
  3  4  1  6  0  0  0
  3  9  1  0  0  0  0
  3 39  1  0  0  0  0
  5 10  1  0  0  0  0
  5 26  1  0  0  0  0
  5 32  1  1  0  0  0
  6 12  1  0  0  0  0
  6 36  1  0  0  0  0
  6 19  1  1  0  0  0
  7  8  1  6  0  0  0
  7 14  1  0  0  0  0
  9 16  1  0  0  0  0
 10 11  1  6  0  0  0
 10 18  1  0  0  0  0
 12 13  1  1  0  0  0
 12 20  1  0  0  0  0
 14 15  1  1  0  0  0
 14 22  1  0  0  0  0
 16 17  1  6  0  0  0
 16 24  1  0  0  0  0
 18 19  1  6  0  0  0
 18 25  1  0  0  0  0
 20 21  1  6  0  0  0
 20 27  1  0  0  0  0
 22 23  1  1  0  0  0
 22 29  1  0  0  0  0
 24  2  1  1  0  0  0
 24 31  1  0  0  0  0
 25 26  1  0  0  0  0
 25 33  1  6  0  0  0
 27 28  1  1  0  0  0
 27 35  1  0  0  0  0
 29 30  1  0  0  0  0
 29 37  1  1  0  0  0
 31 32  1  6  0  0  0
 31 39  1  0  0  0  0
 33 34  1  0  0  0  0
 35 36  1  0  0  0  0
 35 41  1  1  0  0  0
 37 38  1  0  0  0  0
 39 40  1  1  0  0  0
 41 42  1  0  0  0  0
M  END
>  <CHROM.1>
-113.80259748,-102.06078156,-51.72789966,-27.24924278,176.63163699,169.40633372
-171.66428913,170.08177305,117.84078174,108.85490294,60.95916139,-65.07107953
34.18724692,84.66351516,-175.43978239,149.74329571,156.30921108,-176.45847218
157.54545607,-58.63544626,71.18466345,-110.51284869,2.83439158,3.61785101
26.68374649,-0.24280588,0.69270878,2.09541646

>  <Name>
1fyp_lig

>  <RI>
0

>  <Rbt.Current_Directory>
/home/itssahil/PROJECTS/Mol_Feturizer/New_Systems/rnas/1fyp

>  <Rbt.Executable>
rbdock ($Id: //depot/dev/client3/rdock/2013.1/src/exe/rbdock.cxx#4 $)

>  <Rbt.Library>
libRbt.so (2013.1, Build901 2013/11/27)

>  <Rbt.Parameter_File>
/export/apps/rDock/src/rDock_2013.1_src/data/scripts/dock_solv.prm

>  <Rbt.Receptor>
prm/pocket_docking_2.prm

>  <SCORE>
-38.4336

>  <SCORE.INTER>
-39.5618

>  <SCORE.INTER.CONST>
1

>  <SCORE.INTER.POLAR>
-5.04472

>  <SCORE.INTER.ROT>
14

>  <SCORE.INTER.SOLV>
16.7151

>  <SCORE.INTER.VDW>
-28.0638

>  <SCORE.INTER.norm>
-0.941948

>  <SCORE.INTRA>
0.0160099

>  <SCORE.INTRA.DIHEDRAL>
-4.34003

>  <SCORE.INTRA.DIHEDRAL.0>
48.7173

>  <SCORE.INTRA.POLAR>
0.311896

>  <SCORE.INTRA.POLAR.0>
-1.54691

>  <SCORE.INTRA.REPUL>
0

>  <SCORE.INTRA.REPUL.0>
0

>  <SCORE.INTRA.SOLV>
0.17832

>  <SCORE.INTRA.SOLV.lig_0>
-64.052

>  <SCORE.INTRA.VDW>
1.03642

>  <SCORE.INTRA.VDW.0>
-7.0667

>  <SCORE.INTRA.norm>
0.000381189

>  <SCORE.RESTR>
1.11218

>  <SCORE.RESTR.CAVITY>
1.11218

>  <SCORE.RESTR.norm>
0.0264804

>  <SCORE.SYSTEM>
0

>  <SCORE.SYSTEM.CONST>
0

>  <SCORE.SYSTEM.DIHEDRAL>
0

>  <SCORE.SYSTEM.SOLV>
0

>  <SCORE.SYSTEM.norm>
0

>  <SCORE.heavy>
42

>  <SCORE.norm>
-0.915086

>  <RMSD>
2.602

$$$$
1fyp_lig
 OpenBabel11021811393D
libRbt.so/2013.1/901 2013/11/27
 42 45  0  0  0  0  0  0  0  0999 V2000
    8.6771    7.2490   25.6753 C   0  0  2  0  0  0  0  0  0  0  0  0
    7.3155    7.6097   26.0473 O   0  0  0  0  0  0  0  0  0  0  0  0
    3.4412    8.2063   24.3517 C   0  0  2  0  0  0  0  0  0  0  0  0
    2.2120    8.1788   23.5378 N   0  0  0  0  0  0  0  0  0  0  0  0
    4.1272    4.5419   26.2847 C   0  0  1  0  0  0  0  0  0  0  0  0
    1.5840    1.1265   26.3194 C   0  0  1  0  0  0  0  0  0  0  0  0
    9.6028    7.1384   26.9294 C   0  0  2  0  0  0  0  0  0  0  0  0
    9.0005    6.2734   27.9660 N   0  0  0  0  0  0  0  0  0  0  0  0
    4.6531    8.4880   23.4412 C   0  0  0  0  0  0  0  0  0  0  0  0
    4.7806    3.1834   26.0178 C   0  0  2  0  0  0  0  0  0  0  0  0
    4.8741    2.9674   24.6092 O   0  0  0  0  0  0  0  0  0  0  0  0
    0.6406    0.6029   25.1938 C   0  0  2  0  0  0  0  0  0  0  0  0
    0.2550    1.6640   24.2317 N   0  0  0  0  0  0  0  0  0  0  0  0
    9.9146    8.5505   27.5168 C   0  0  1  0  0  0  0  0  0  0  0  0
   10.8829    8.4472   28.5577 O   0  0  0  0  0  0  0  0  0  0  0  0
    5.9839    8.5582   24.2389 C   0  0  2  0  0  0  0  0  0  0  0  0
    7.0821    8.7495   23.2688 N   0  0  0  0  0  0  0  0  0  0  0  0
    3.7788    2.2215   26.6625 C   0  0  2  0  0  0  0  0  0  0  0  0
    2.6652    1.9266   25.7740 O   0  0  0  0  0  0  0  0  0  0  0  0
   -0.6148   -0.0956   25.8013 C   0  0  1  0  0  0  0  0  0  0  0  0
   -0.2177   -1.3559   26.3374 O   0  0  0  0  0  0  0  0  0  0  0  0
   10.4560    9.5180   26.4346 C   0  0  2  0  0  0  0  0  0  0  0  0
   10.6313   10.8088   27.0106 O   0  0  0  0  0  0  0  0  0  0  0  0
    6.2249    7.2912   25.1360 C   0  0  2  0  0  0  0  0  0  0  0  0
    3.2999    3.0242   27.8801 C   0  0  2  0  0  0  0  0  0  0  0  0
    3.3510    4.4091   27.4863 O   0  0  0  0  0  0  0  0  0  0  0  0
   -1.3106    0.7188   26.9339 C   0  0  2  0  0  0  0  0  0  0  0  0
   -1.9982    1.8227   26.3429 O   0  0  0  0  0  0  0  0  0  0  0  0
    9.4748    9.5848   25.2300 C   0  0  2  0  0  0  0  0  0  0  0  0
    9.2294    8.2331   24.7375 O   0  0  0  0  0  0  0  0  0  0  0  0
    4.9559    6.8801   25.9672 C   0  0  2  0  0  0  0  0  0  0  0  0
    5.1686    5.5400   26.4826 O   0  0  0  0  0  0  0  0  0  0  0  0
    4.1674    2.7975   29.1310 C   0  0  0  0  0  0  0  0  0  0  0  0
    3.5761    3.3960   30.2710 O   0  0  0  0  0  0  0  0  0  0  0  0
   -0.2638    1.2294   27.9721 C   0  0  1  0  0  0  0  0  0  0  0  0
    0.8144    1.9286   27.2784 O   0  0  0  0  0  0  0  0  0  0  0  0
    9.9815   10.4091   24.0255 C   0  0  0  0  0  0  0  0  0  0  0  0
    9.0271   10.4298   22.9776 O   0  0  0  0  0  0  0  0  0  0  0  0
    3.6468    6.8776   25.1183 C   0  0  1  0  0  0  0  0  0  0  0  0
    2.5361    6.6623   25.9877 O   0  0  0  0  0  0  0  0  0  0  0  0
   -0.8840    2.1787   29.0292 C   0  0  0  0  0  0  0  0  0  0  0  0
   -0.0937    2.2302   30.2725 N   0  0  0  0  0  0  0  0  0  0  0  0
  1  2  1  1  0  0  0
  1  7  1  0  0  0  0
  1 30  1  0  0  0  0
  3  4  1  6  0  0  0
  3  9  1  0  0  0  0
  3 39  1  0  0  0  0
  5 10  1  0  0  0  0
  5 26  1  0  0  0  0
  5 32  1  1  0  0  0
  6 12  1  0  0  0  0
  6 36  1  0  0  0  0
  6 19  1  6  0  0  0
  7  8  1  1  0  0  0
  7 14  1  0  0  0  0
  9 16  1  0  0  0  0
 10 11  1  6  0  0  0
 10 18  1  0  0  0  0
 12 13  1  1  0  0  0
 12 20  1  0  0  0  0
 14 15  1  1  0  0  0
 14 22  1  0  0  0  0
 16 17  1  6  0  0  0
 16 24  1  0  0  0  0
 18 19  1  6  0  0  0
 18 25  1  0  0  0  0
 20 21  1  1  0  0  0
 20 27  1  0  0  0  0
 22 23  1  1  0  0  0
 22 29  1  0  0  0  0
 24  2  1  1  0  0  0
 24 31  1  0  0  0  0
 25 26  1  0  0  0  0
 25 33  1  1  0  0  0
 27 28  1  6  0  0  0
 27 35  1  0  0  0  0
 29 30  1  0  0  0  0
 29 37  1  6  0  0  0
 31 32  1  6  0  0  0
 31 39  1  0  0  0  0
 33 34  1  0  0  0  0
 35 36  1  0  0  0  0
 35 41  1  1  0  0  0
 37 38  1  0  0  0  0
 39 40  1  1  0  0  0
 41 42  1  0  0  0  0
M  END
>  <CHROM.1>
-157.66631948,-93.67179867,78.58338118,-169.60497426,159.46075265,-19.51374138
60.20482473,96.46015319,-174.29597336,-166.40278242,-58.25030446,176.41672161
-171.28226064,63.85647081,-179.50324943,-129.97436436,143.10362354,62.72207858
157.02401195,-82.09805390,67.93137175,-43.24882379,4.58635493,5.24721381
26.21132134,-0.52344701,0.53344622,2.24109271

>  <Name>
1fyp_lig

>  <RI>
0

>  <Rbt.Current_Directory>
/home/itssahil/PROJECTS/Mol_Feturizer/New_Systems/rnas/1fyp

>  <Rbt.Executable>
rbdock ($Id: //depot/dev/client3/rdock/2013.1/src/exe/rbdock.cxx#4 $)

>  <Rbt.Library>
libRbt.so (2013.1, Build901 2013/11/27)

>  <Rbt.Parameter_File>
/export/apps/rDock/src/rDock_2013.1_src/data/scripts/dock_solv.prm

>  <Rbt.Receptor>
prm/pocket_docking_8.prm

>  <SCORE>
-48.8813

>  <SCORE.INTER>
-45.4528

>  <SCORE.INTER.CONST>
1

>  <SCORE.INTER.POLAR>
-5.53036

>  <SCORE.INTER.ROT>
14

>  <SCORE.INTER.SOLV>
15.9645

>  <SCORE.INTER.VDW>
-30.1221

>  <SCORE.INTER.norm>
-1.08221

>  <SCORE.INTRA>
-3.42854

>  <SCORE.INTRA.DIHEDRAL>
-18.4465

>  <SCORE.INTRA.DIHEDRAL.0>
48.7173

>  <SCORE.INTRA.POLAR>
0.195914

>  <SCORE.INTRA.POLAR.0>
-1.54691

>  <SCORE.INTRA.REPUL>
0

>  <SCORE.INTRA.REPUL.0>
0

>  <SCORE.INTRA.SOLV>
-0.985523

>  <SCORE.INTRA.SOLV.lig_0>
-64.052

>  <SCORE.INTRA.VDW>
5.62139

>  <SCORE.INTRA.VDW.0>
-7.0667

>  <SCORE.INTRA.norm>
-0.0816319

>  <SCORE.RESTR>
0

>  <SCORE.RESTR.CAVITY>
0

>  <SCORE.RESTR.norm>
0

>  <SCORE.SYSTEM>
0

>  <SCORE.SYSTEM.CONST>
0

>  <SCORE.SYSTEM.DIHEDRAL>
0

>  <SCORE.SYSTEM.SOLV>
0

>  <SCORE.SYSTEM.norm>
0

>  <SCORE.heavy>
42

>  <SCORE.norm>
-1.16384

>  <RMSD>
2.607

$$$$
1fyp_lig
 OpenBabel11021811393D
libRbt.so/2013.1/901 2013/11/27
 42 45  0  0  0  0  0  0  0  0999 V2000
    6.7962    4.9776   26.9063 C   0  0  2  0  0  0  0  0  0  0  0  0
    5.6146    5.7297   26.5055 O   0  0  0  0  0  0  0  0  0  0  0  0
    3.7819    7.7530   23.2211 C   0  0  2  0  0  0  0  0  0  0  0  0
    3.3788    8.2743   21.9019 N   0  0  0  0  0  0  0  0  0  0  0  0
    2.3783    3.6942   25.0485 C   0  0  1  0  0  0  0  0  0  0  0  0
   -0.5998    0.5169   25.7594 C   0  0  1  0  0  0  0  0  0  0  0  0
    6.4757    3.4580   27.0801 C   0  0  2  0  0  0  0  0  0  0  0  0
    5.7780    2.9180   25.8939 N   0  0  0  0  0  0  0  0  0  0  0  0
    5.2960    7.9676   23.4165 C   0  0  0  0  0  0  0  0  0  0  0  0
    2.4744    2.1682   25.1227 C   0  0  2  0  0  0  0  0  0  0  0  0
    2.0995    1.6047   23.8651 O   0  0  0  0  0  0  0  0  0  0  0  0
   -0.2903   -0.3862   24.5266 C   0  0  2  0  0  0  0  0  0  0  0  0
   -0.4112    0.3421   23.2400 N   0  0  0  0  0  0  0  0  0  0  0  0
    5.6264    3.2123   28.3664 C   0  0  1  0  0  0  0  0  0  0  0  0
    5.4774    1.8137   28.5975 O   0  0  0  0  0  0  0  0  0  0  0  0
    5.7870    7.4646   24.8016 C   0  0  2  0  0  0  0  0  0  0  0  0
    7.2531    7.6418   24.8525 N   0  0  0  0  0  0  0  0  0  0  0  0
    1.4444    1.8414   26.2075 C   0  0  2  0  0  0  0  0  0  0  0  0
    0.0933    1.7891   25.6707 O   0  0  0  0  0  0  0  0  0  0  0  0
   -1.1799   -1.6674   24.5390 C   0  0  1  0  0  0  0  0  0  0  0  0
   -0.7009   -2.5422   25.5582 O   0  0  0  0  0  0  0  0  0  0  0  0
    6.2781    3.8518   29.6181 C   0  0  2  0  0  0  0  0  0  0  0  0
    5.4125    3.6739   30.7352 O   0  0  0  0  0  0  0  0  0  0  0  0
    5.3785    5.9752   25.0894 C   0  0  2  0  0  0  0  0  0  0  0  0
    1.5986    3.0303   27.1662 C   0  0  2  0  0  0  0  0  0  0  0  0
    1.9666    4.1557   26.3452 O   0  0  0  0  0  0  0  0  0  0  0  0
   -2.6908   -1.3904   24.8045 C   0  0  2  0  0  0  0  0  0  0  0  0
   -3.2571   -0.8004   23.6332 O   0  0  0  0  0  0  0  0  0  0  0  0
    6.5513    5.3629   29.3725 C   0  0  2  0  0  0  0  0  0  0  0  0
    7.3448    5.5141   28.1571 O   0  0  0  0  0  0  0  0  0  0  0  0
    3.8720    5.6784   24.7543 C   0  0  2  0  0  0  0  0  0  0  0  0
    3.6903    4.2387   24.7290 O   0  0  0  0  0  0  0  0  0  0  0  0
    2.6648    2.7958   28.2511 C   0  0  0  0  0  0  0  0  0  0  0  0
    2.3002    1.7157   29.0924 O   0  0  0  0  0  0  0  0  0  0  0  0
   -2.8731   -0.4402   26.0285 C   0  0  1  0  0  0  0  0  0  0  0  0
   -2.0462    0.7505   25.8525 O   0  0  0  0  0  0  0  0  0  0  0  0
    7.3318    6.0727   30.5013 C   0  0  0  0  0  0  0  0  0  0  0  0
    6.6394    5.9920   31.7356 O   0  0  0  0  0  0  0  0  0  0  0  0
    3.4312    6.2532   23.3723 C   0  0  1  0  0  0  0  0  0  0  0  0
    2.0210    6.0860   23.2341 O   0  0  0  0  0  0  0  0  0  0  0  0
   -4.3471   -0.0062   26.2343 C   0  0  0  0  0  0  0  0  0  0  0  0
   -4.4805    1.4440   26.4629 N   0  0  0  0  0  0  0  0  0  0  0  0
  1  2  1  1  0  0  0
  1  7  1  0  0  0  0
  1 30  1  0  0  0  0
  3  4  1  6  0  0  0
  3  9  1  0  0  0  0
  3 39  1  0  0  0  0
  5 10  1  0  0  0  0
  5 26  1  0  0  0  0
  5 32  1  1  0  0  0
  6 12  1  0  0  0  0
  6 36  1  0  0  0  0
  6 19  1  6  0  0  0
  7  8  1  6  0  0  0
  7 14  1  0  0  0  0
  9 16  1  0  0  0  0
 10 11  1  6  0  0  0
 10 18  1  0  0  0  0
 12 13  1  6  0  0  0
 12 20  1  0  0  0  0
 14 15  1  1  0  0  0
 14 22  1  0  0  0  0
 16 17  1  6  0  0  0
 16 24  1  0  0  0  0
 18 19  1  6  0  0  0
 18 25  1  0  0  0  0
 20 21  1  1  0  0  0
 20 27  1  0  0  0  0
 22 23  1  1  0  0  0
 22 29  1  0  0  0  0
 24  2  1  1  0  0  0
 24 31  1  0  0  0  0
 25 26  1  0  0  0  0
 25 33  1  1  0  0  0
 27 28  1  6  0  0  0
 27 35  1  0  0  0  0
 29 30  1  0  0  0  0
 29 37  1  1  0  0  0
 31 32  1  6  0  0  0
 31 39  1  0  0  0  0
 33 34  1  0  0  0  0
 35 36  1  0  0  0  0
 35 41  1  6  0  0  0
 37 38  1  0  0  0  0
 39 40  1  1  0  0  0
 41 42  1  0  0  0  0
M  END
>  <CHROM.1>
-94.28544967,-102.82162383,-44.26891144,-31.43154557,175.86381455,-31.39309914
70.37694140,50.50994473,117.60175417,-87.46671496,58.92842486,60.75468344
-63.38650258,173.99433192,-59.34628684,152.31776223,-173.20202400,-171.78954750
-133.23202436,-66.81216020,79.52933564,-61.32937180,2.68272654,3.28223901
26.12167261,-0.18381832,0.64273263,2.18781435

>  <Name>
1fyp_lig

>  <RI>
0

>  <Rbt.Current_Directory>
/home/itssahil/PROJECTS/Mol_Feturizer/New_Systems/rnas/1fyp

>  <Rbt.Executable>
rbdock ($Id: //depot/dev/client3/rdock/2013.1/src/exe/rbdock.cxx#4 $)

>  <Rbt.Library>
libRbt.so (2013.1, Build901 2013/11/27)

>  <Rbt.Parameter_File>
/export/apps/rDock/src/rDock_2013.1_src/data/scripts/dock_solv.prm

>  <Rbt.Receptor>
prm/pocket_docking_4.prm

>  <SCORE>
-65.3361

>  <SCORE.INTER>
-59.2482

>  <SCORE.INTER.CONST>
1

>  <SCORE.INTER.POLAR>
-8.30627

>  <SCORE.INTER.ROT>
14

>  <SCORE.INTER.SOLV>
20.2075

>  <SCORE.INTER.VDW>
-31.4804

>  <SCORE.INTER.norm>
-1.41067

>  <SCORE.INTRA>
-6.08788

>  <SCORE.INTRA.DIHEDRAL>
-14.2936

>  <SCORE.INTRA.DIHEDRAL.0>
48.7173

>  <SCORE.INTRA.POLAR>
-0.31613

>  <SCORE.INTRA.POLAR.0>
-1.54691

>  <SCORE.INTRA.REPUL>
0

>  <SCORE.INTRA.REPUL.0>
0

>  <SCORE.INTRA.SOLV>
0.556044

>  <SCORE.INTRA.SOLV.lig_0>
-64.052

>  <SCORE.INTRA.VDW>
1.85575

>  <SCORE.INTRA.VDW.0>
-7.0667

>  <SCORE.INTRA.norm>
-0.14495

>  <SCORE.RESTR>
0

>  <SCORE.RESTR.CAVITY>
0

>  <SCORE.RESTR.norm>
0

>  <SCORE.SYSTEM>
0

>  <SCORE.SYSTEM.CONST>
0

>  <SCORE.SYSTEM.DIHEDRAL>
0

>  <SCORE.SYSTEM.SOLV>
0

>  <SCORE.SYSTEM.norm>
0

>  <SCORE.heavy>
42

>  <SCORE.norm>
-1.55562

>  <RMSD>
2.609

$$$$
1fyp_lig
 OpenBabel11021811393D
libRbt.so/2013.1/901 2013/11/27
 42 45  0  0  0  0  0  0  0  0999 V2000
    6.6240    8.3883   25.4031 C   0  0  2  0  0  0  0  0  0  0  0  0
    6.4556    7.2095   24.5639 O   0  0  0  0  0  0  0  0  0  0  0  0
    2.3518    8.0931   23.7770 C   0  0  2  0  0  0  0  0  0  0  0  0
    0.9660    8.1438   23.2756 N   0  0  0  0  0  0  0  0  0  0  0  0
    3.3025    4.3591   25.4073 C   0  0  1  0  0  0  0  0  0  0  0  0
    0.9446    0.6533   25.4608 C   0  0  1  0  0  0  0  0  0  0  0  0
    7.7667    9.3117   24.8704 C   0  0  2  0  0  0  0  0  0  0  0  0
    7.5940    9.6028   23.4313 N   0  0  0  0  0  0  0  0  0  0  0  0
    3.3308    8.2081   22.5915 C   0  0  0  0  0  0  0  0  0  0  0  0
    3.9518    2.9794   25.5437 C   0  0  2  0  0  0  0  0  0  0  0  0
    4.3358    2.5031   24.2533 O   0  0  0  0  0  0  0  0  0  0  0  0
    0.3342   -0.0394   24.2043 C   0  0  2  0  0  0  0  0  0  0  0  0
   -0.1159    0.9324   23.1780 N   0  0  0  0  0  0  0  0  0  0  0  0
    9.1660    8.6704   25.1290 C   0  0  1  0  0  0  0  0  0  0  0  0
   10.1994    9.5896   24.7844 O   0  0  0  0  0  0  0  0  0  0  0  0
    4.8145    8.1891   23.0505 C   0  0  2  0  0  0  0  0  0  0  0  0
    5.6618    8.2223   21.8403 N   0  0  0  0  0  0  0  0  0  0  0  0
    2.8041    2.1487   26.1242 C   0  0  2  0  0  0  0  0  0  0  0  0
    1.8960    1.6838   25.0870 O   0  0  0  0  0  0  0  0  0  0  0  0
   -0.8173   -1.0105   24.6096 C   0  0  1  0  0  0  0  0  0  0  0  0
   -0.2435   -2.1644   25.2202 O   0  0  0  0  0  0  0  0  0  0  0  0
    9.3464    8.2596   26.6119 C   0  0  2  0  0  0  0  0  0  0  0  0
   10.5994    7.5993   26.7624 O   0  0  0  0  0  0  0  0  0  0  0  0
    5.1567    6.9524   23.9570 C   0  0  2  0  0  0  0  0  0  0  0  0
    2.1041    3.1625   27.0399 C   0  0  2  0  0  0  0  0  0  0  0  0
    2.2843    4.4490   26.4167 O   0  0  0  0  0  0  0  0  0  0  0  0
   -1.8488   -0.3949   25.6031 C   0  0  2  0  0  0  0  0  0  0  0  0
   -2.6586    0.5437   24.8933 O   0  0  0  0  0  0  0  0  0  0  0  0
    8.1816    7.3325   27.0613 C   0  0  2  0  0  0  0  0  0  0  0  0
    6.9103    7.9948   26.7874 O   0  0  0  0  0  0  0  0  0  0  0  0
    4.0929    6.7103   25.0883 C   0  0  2  0  0  0  0  0  0  0  0  0
    4.3107    5.3842   25.6364 O   0  0  0  0  0  0  0  0  0  0  0  0
    2.6773    3.1814   28.4681 C   0  0  0  0  0  0  0  0  0  0  0  0
    1.9062    4.0199   29.3107 O   0  0  0  0  0  0  0  0  0  0  0  0
   -1.1220    0.3098   26.7903 C   0  0  1  0  0  0  0  0  0  0  0  0
   -0.1274    1.2445   26.2711 O   0  0  0  0  0  0  0  0  0  0  0  0
    8.1795    6.9757   28.5646 C   0  0  0  0  0  0  0  0  0  0  0  0
    9.4986    6.8080   29.0559 O   0  0  0  0  0  0  0  0  0  0  0  0
    2.6236    6.7919   24.5696 C   0  0  1  0  0  0  0  0  0  0  0  0
    1.7382    6.7309   25.6869 O   0  0  0  0  0  0  0  0  0  0  0  0
   -2.0985    1.0752   27.7197 C   0  0  0  0  0  0  0  0  0  0  0  0
   -1.3953    1.9115   28.7092 N   0  0  0  0  0  0  0  0  0  0  0  0
  1  2  1  6  0  0  0
  1  7  1  0  0  0  0
  1 30  1  0  0  0  0
  3  4  1  6  0  0  0
  3  9  1  0  0  0  0
  3 39  1  0  0  0  0
  5 10  1  0  0  0  0
  5 26  1  0  0  0  0
  5 32  1  1  0  0  0
  6 12  1  0  0  0  0
  6 36  1  0  0  0  0
  6 19  1  6  0  0  0
  7  8  1  6  0  0  0
  7 14  1  0  0  0  0
  9 16  1  0  0  0  0
 10 11  1  6  0  0  0
 10 18  1  0  0  0  0
 12 13  1  6  0  0  0
 12 20  1  0  0  0  0
 14 15  1  1  0  0  0
 14 22  1  0  0  0  0
 16 17  1  6  0  0  0
 16 24  1  0  0  0  0
 18 19  1  6  0  0  0
 18 25  1  0  0  0  0
 20 21  1  1  0  0  0
 20 27  1  0  0  0  0
 22 23  1  6  0  0  0
 22 29  1  0  0  0  0
 24  2  1  1  0  0  0
 24 31  1  0  0  0  0
 25 26  1  0  0  0  0
 25 33  1  1  0  0  0
 27 28  1  6  0  0  0
 27 35  1  0  0  0  0
 29 30  1  0  0  0  0
 29 37  1  1  0  0  0
 31 32  1  6  0  0  0
 31 39  1  0  0  0  0
 33 34  1  0  0  0  0
 35 36  1  0  0  0  0
 35 41  1  6  0  0  0
 37 38  1  0  0  0  0
 39 40  1  1  0  0  0
 41 42  1  0  0  0  0
M  END
>  <CHROM.1>
-122.44750819,59.55240999,9.62742551,91.15999368,125.93672063,69.13026968
66.71341161,40.91974306,166.81002331,-163.41607779,-50.25420034,28.45409761
-173.50178316,68.71732332,-36.60583565,-112.16918205,157.11802109,72.73977877
-170.88621152,69.42373442,74.45467517,178.15044079,3.62529277,4.82977632
25.55286723,0.50933978,-0.56030882,-0.80703371

>  <Name>
1fyp_lig

>  <RI>
0

>  <Rbt.Current_Directory>
/home/itssahil/PROJECTS/Mol_Feturizer/New_Systems/rnas/1fyp

>  <Rbt.Executable>
rbdock ($Id: //depot/dev/client3/rdock/2013.1/src/exe/rbdock.cxx#4 $)

>  <Rbt.Library>
libRbt.so (2013.1, Build901 2013/11/27)

>  <Rbt.Parameter_File>
/export/apps/rDock/src/rDock_2013.1_src/data/scripts/dock_solv.prm

>  <Rbt.Receptor>
prm/blind_docking_80.prm

>  <SCORE>
-27.4857

>  <SCORE.INTER>
-32.152

>  <SCORE.INTER.CONST>
1

>  <SCORE.INTER.POLAR>
-7.9707

>  <SCORE.INTER.ROT>
14

>  <SCORE.INTER.SOLV>
21.5668

>  <SCORE.INTER.VDW>
-14.9879

>  <SCORE.INTER.norm>
-0.765523

>  <SCORE.INTRA>
4.41572

>  <SCORE.INTRA.DIHEDRAL>
-9.64727

>  <SCORE.INTRA.DIHEDRAL.0>
48.7173

>  <SCORE.INTRA.POLAR>
0.681278

>  <SCORE.INTRA.POLAR.0>
-1.54691

>  <SCORE.INTRA.REPUL>
0

>  <SCORE.INTRA.REPUL.0>
0

>  <SCORE.INTRA.SOLV>
-1.20254

>  <SCORE.INTRA.SOLV.lig_0>
-64.052

>  <SCORE.INTRA.VDW>
7.52428

>  <SCORE.INTRA.VDW.0>
-7.0667

>  <SCORE.INTRA.norm>
0.105136

>  <SCORE.RESTR>
0.250567

>  <SCORE.RESTR.CAVITY>
0.250567

>  <SCORE.RESTR.norm>
0.00596587

>  <SCORE.SYSTEM>
0

>  <SCORE.SYSTEM.CONST>
0

>  <SCORE.SYSTEM.DIHEDRAL>
0

>  <SCORE.SYSTEM.SOLV>
0

>  <SCORE.SYSTEM.norm>
0

>  <SCORE.heavy>
42

>  <SCORE.norm>
-0.654421

>  <RMSD>
2.612

$$$$
1fyp_lig
 OpenBabel11021811393D
libRbt.so/2013.1/901 2013/11/27
 42 45  0  0  0  0  0  0  0  0999 V2000
    3.4608    4.9382   28.3591 C   0  0  2  0  0  0  0  0  0  0  0  0
    3.1427    6.1813   27.6693 O   0  0  0  0  0  0  0  0  0  0  0  0
    2.9289    7.7723   23.7115 C   0  0  2  0  0  0  0  0  0  0  0  0
    3.1783    8.2050   22.3241 N   0  0  0  0  0  0  0  0  0  0  0  0
    1.6805    3.5022   25.8322 C   0  0  1  0  0  0  0  0  0  0  0  0
   -0.9845    0.4949   25.2640 C   0  0  1  0  0  0  0  0  0  0  0  0
    3.8634    5.1960   29.8469 C   0  0  2  0  0  0  0  0  0  0  0  0
    2.8636    6.0406   30.5344 N   0  0  0  0  0  0  0  0  0  0  0  0
    4.0359    8.3286   24.6291 C   0  0  0  0  0  0  0  0  0  0  0  0
    1.7017    2.1409   25.1320 C   0  0  2  0  0  0  0  0  0  0  0  0
    0.8166    2.1669   24.0116 O   0  0  0  0  0  0  0  0  0  0  0  0
   -2.2109    1.3030   24.7403 C   0  0  2  0  0  0  0  0  0  0  0  0
   -3.0376    1.8622   25.8376 N   0  0  0  0  0  0  0  0  0  0  0  0
    5.2776    5.8507   29.9348 C   0  0  1  0  0  0  0  0  0  0  0  0
    5.6973    5.9336   31.2945 O   0  0  0  0  0  0  0  0  0  0  0  0
    3.8211    7.9332   26.1157 C   0  0  2  0  0  0  0  0  0  0  0  0
    4.9717    8.4440   26.8895 N   0  0  0  0  0  0  0  0  0  0  0  0
    1.1785    1.2139   26.2325 C   0  0  2  0  0  0  0  0  0  0  0  0
   -0.2747    1.2226   26.3000 O   0  0  0  0  0  0  0  0  0  0  0  0
   -3.0702    0.4397   23.7660 C   0  0  1  0  0  0  0  0  0  0  0  0
   -2.3671    0.3133   22.5318 O   0  0  0  0  0  0  0  0  0  0  0  0
    6.3360    5.0449   29.1408 C   0  0  2  0  0  0  0  0  0  0  0  0
    7.5780    5.7408   29.1827 O   0  0  0  0  0  0  0  0  0  0  0  0
    3.6373    6.3856   26.3147 C   0  0  2  0  0  0  0  0  0  0  0  0
    1.7812    1.8428   27.4965 C   0  0  2  0  0  0  0  0  0  0  0  0
    1.8571    3.2580   27.2369 O   0  0  0  0  0  0  0  0  0  0  0  0
   -3.3875   -0.9918   24.2954 C   0  0  2  0  0  0  0  0  0  0  0  0
   -4.3617   -0.8861   25.3348 O   0  0  0  0  0  0  0  0  0  0  0  0
    5.8707    4.8436   27.6706 C   0  0  2  0  0  0  0  0  0  0  0  0
    4.5456    4.2321   27.6679 O   0  0  0  0  0  0  0  0  0  0  0  0
    2.6264    5.7531   25.2909 C   0  0  2  0  0  0  0  0  0  0  0  0
    2.7837    4.3109   25.3336 O   0  0  0  0  0  0  0  0  0  0  0  0
    3.1773    1.2919   27.8373 C   0  0  0  0  0  0  0  0  0  0  0  0
    3.0925   -0.0409   28.3109 O   0  0  0  0  0  0  0  0  0  0  0  0
   -2.0963   -1.6815   24.8353 C   0  0  1  0  0  0  0  0  0  0  0  0
   -1.4324   -0.7998   25.7916 O   0  0  0  0  0  0  0  0  0  0  0  0
    6.7815    3.9291   26.8214 C   0  0  0  0  0  0  0  0  0  0  0  0
    7.9459    4.6155   26.3943 O   0  0  0  0  0  0  0  0  0  0  0  0
    2.8665    6.2300   23.8248 C   0  0  1  0  0  0  0  0  0  0  0  0
    1.8058    5.7430   23.0040 O   0  0  0  0  0  0  0  0  0  0  0  0
   -2.3864   -3.0422   25.5191 C   0  0  0  0  0  0  0  0  0  0  0  0
   -2.9439   -2.8837   26.8745 N   0  0  0  0  0  0  0  0  0  0  0  0
  1  2  1  6  0  0  0
  1  7  1  0  0  0  0
  1 30  1  0  0  0  0
  3  4  1  6  0  0  0
  3  9  1  0  0  0  0
  3 39  1  0  0  0  0
  5 10  1  0  0  0  0
  5 26  1  0  0  0  0
  5 32  1  6  0  0  0
  6 12  1  0  0  0  0
  6 36  1  0  0  0  0
  6 19  1  1  0  0  0
  7  8  1  6  0  0  0
  7 14  1  0  0  0  0
  9 16  1  0  0  0  0
 10 11  1  6  0  0  0
 10 18  1  0  0  0  0
 12 13  1  1  0  0  0
 12 20  1  0  0  0  0
 14 15  1  1  0  0  0
 14 22  1  0  0  0  0
 16 17  1  1  0  0  0
 16 24  1  0  0  0  0
 18 19  1  1  0  0  0
 18 25  1  0  0  0  0
 20 21  1  6  0  0  0
 20 27  1  0  0  0  0
 22 23  1  6  0  0  0
 22 29  1  0  0  0  0
 24  2  1  1  0  0  0
 24 31  1  0  0  0  0
 25 26  1  0  0  0  0
 25 33  1  6  0  0  0
 27 28  1  1  0  0  0
 27 35  1  0  0  0  0
 29 30  1  0  0  0  0
 29 37  1  6  0  0  0
 31 32  1  6  0  0  0
 31 39  1  0  0  0  0
 33 34  1  0  0  0  0
 35 36  1  0  0  0  0
 35 41  1  1  0  0  0
 37 38  1  0  0  0  0
 39 40  1  6  0  0  0
 41 42  1  0  0  0  0
M  END
>  <CHROM.1>
137.20802606,-151.14307454,105.72158293,-169.09870417,159.81708581,-73.80650091
-68.91290251,159.71039267,75.29163571,-137.09369033,-169.61579112,176.88531052
-71.46184671,66.49359134,-77.97765759,113.95841579,149.54456717,-174.92217782
-77.14416314,163.92121521,-77.45723141,-156.66715670,1.97426187,3.37163429
26.32516303,-0.31189227,0.71364781,2.37514406

>  <Name>
1fyp_lig

>  <RI>
0

>  <Rbt.Current_Directory>
/home/itssahil/PROJECTS/Mol_Feturizer/New_Systems/rnas/1fyp

>  <Rbt.Executable>
rbdock ($Id: //depot/dev/client3/rdock/2013.1/src/exe/rbdock.cxx#4 $)

>  <Rbt.Library>
libRbt.so (2013.1, Build901 2013/11/27)

>  <Rbt.Parameter_File>
/export/apps/rDock/src/rDock_2013.1_src/data/scripts/dock_solv.prm

>  <Rbt.Receptor>
prm/pocket_docking_5.prm

>  <SCORE>
-46.3669

>  <SCORE.INTER>
-47.1104

>  <SCORE.INTER.CONST>
1

>  <SCORE.INTER.POLAR>
-7.03752

>  <SCORE.INTER.ROT>
14

>  <SCORE.INTER.SOLV>
23.1666

>  <SCORE.INTER.VDW>
-28.6041

>  <SCORE.INTER.norm>
-1.12168

>  <SCORE.INTRA>
0.743515

>  <SCORE.INTRA.DIHEDRAL>
-9.09284

>  <SCORE.INTRA.DIHEDRAL.0>
48.7173

>  <SCORE.INTRA.POLAR>
1.2942

>  <SCORE.INTRA.POLAR.0>
-1.54691

>  <SCORE.INTRA.REPUL>
0.0117016

>  <SCORE.INTRA.REPUL.0>
0

>  <SCORE.INTRA.SOLV>
-0.913986

>  <SCORE.INTRA.SOLV.lig_0>
-64.052

>  <SCORE.INTRA.VDW>
1.28815

>  <SCORE.INTRA.VDW.0>
-7.0667

>  <SCORE.INTRA.norm>
0.0177027

>  <SCORE.RESTR>
0

>  <SCORE.RESTR.CAVITY>
0

>  <SCORE.RESTR.norm>
0

>  <SCORE.SYSTEM>
0

>  <SCORE.SYSTEM.CONST>
0

>  <SCORE.SYSTEM.DIHEDRAL>
0

>  <SCORE.SYSTEM.SOLV>
0

>  <SCORE.SYSTEM.norm>
0

>  <SCORE.heavy>
42

>  <SCORE.norm>
-1.10397

>  <RMSD>
2.619

$$$$
1fyp_lig
 OpenBabel11021811393D
libRbt.so/2013.1/901 2013/11/27
 42 45  0  0  0  0  0  0  0  0999 V2000
    6.4092    5.1670   28.3174 C   0  0  2  0  0  0  0  0  0  0  0  0
    5.1173    5.8149   28.1343 O   0  0  0  0  0  0  0  0  0  0  0  0
    3.3608    7.5603   24.6545 C   0  0  2  0  0  0  0  0  0  0  0  0
    2.7681    7.8404   23.3336 N   0  0  0  0  0  0  0  0  0  0  0  0
    1.6828    4.2794   26.8384 C   0  0  1  0  0  0  0  0  0  0  0  0
    0.4614    0.2198   25.6001 C   0  0  1  0  0  0  0  0  0  0  0  0
    6.3178    3.9854   29.3360 C   0  0  2  0  0  0  0  0  0  0  0  0
    5.2132    3.0650   28.9918 N   0  0  0  0  0  0  0  0  0  0  0  0
    4.7105    6.8387   24.4685 C   0  0  0  0  0  0  0  0  0  0  0  0
    2.3237    3.0001   27.3827 C   0  0  2  0  0  0  0  0  0  0  0  0
    3.4728    2.6721   26.6007 O   0  0  0  0  0  0  0  0  0  0  0  0
    0.1220    0.0204   24.0914 C   0  0  2  0  0  0  0  0  0  0  0  0
   -0.4529    1.2381   23.4693 N   0  0  0  0  0  0  0  0  0  0  0  0
    6.1442    4.5189   30.7924 C   0  0  1  0  0  0  0  0  0  0  0  0
    6.2219    3.4420   31.7230 O   0  0  0  0  0  0  0  0  0  0  0  0
    5.4066    6.5357   25.8235 C   0  0  2  0  0  0  0  0  0  0  0  0
    6.6419    5.7772   25.5367 N   0  0  0  0  0  0  0  0  0  0  0  0
    1.2027    1.9770   27.1802 C   0  0  2  0  0  0  0  0  0  0  0  0
    1.1836    1.4593   25.8207 O   0  0  0  0  0  0  0  0  0  0  0  0
   -0.8105   -1.2137   23.8900 C   0  0  1  0  0  0  0  0  0  0  0  0
   -0.0420   -2.3991   24.0846 O   0  0  0  0  0  0  0  0  0  0  0  0
    7.2287    5.5637   31.1565 C   0  0  2  0  0  0  0  0  0  0  0  0
    6.9609    6.0780   32.4574 O   0  0  0  0  0  0  0  0  0  0  0  0
    4.4778    5.7618   26.8268 C   0  0  2  0  0  0  0  0  0  0  0  0
   -0.0527    2.8164   27.4557 C   0  0  2  0  0  0  0  0  0  0  0  0
    0.2640    4.1548   27.0264 O   0  0  0  0  0  0  0  0  0  0  0  0
   -2.0282   -1.2567   24.8623 C   0  0  2  0  0  0  0  0  0  0  0  0
   -2.9698   -0.2627   24.4551 O   0  0  0  0  0  0  0  0  0  0  0  0
    7.2470    6.7114   30.1072 C   0  0  2  0  0  0  0  0  0  0  0  0
    7.4092    6.1386   28.7748 O   0  0  0  0  0  0  0  0  0  0  0  0
    3.0365    6.3804   26.9273 C   0  0  2  0  0  0  0  0  0  0  0  0
    2.1786    5.4196   27.5961 O   0  0  0  0  0  0  0  0  0  0  0  0
   -0.4623    2.8196   28.9392 C   0  0  0  0  0  0  0  0  0  0  0  0
   -0.4770    1.5027   29.4620 O   0  0  0  0  0  0  0  0  0  0  0  0
   -1.5730   -0.9977   26.3320 C   0  0  1  0  0  0  0  0  0  0  0  0
   -0.7758    0.2244   26.3904 O   0  0  0  0  0  0  0  0  0  0  0  0
    8.3870    7.7382   30.2889 C   0  0  0  0  0  0  0  0  0  0  0  0
    8.1460    8.9140   29.5345 O   0  0  0  0  0  0  0  0  0  0  0  0
    2.4155    6.7064   25.5336 C   0  0  1  0  0  0  0  0  0  0  0  0
    1.1925    7.4145   25.7301 O   0  0  0  0  0  0  0  0  0  0  0  0
   -2.7658   -0.8708   27.3140 C   0  0  0  0  0  0  0  0  0  0  0  0
   -2.4210   -1.3090   28.6785 N   0  0  0  0  0  0  0  0  0  0  0  0
  1  2  1  1  0  0  0
  1  7  1  0  0  0  0
  1 30  1  0  0  0  0
  3  4  1  6  0  0  0
  3  9  1  0  0  0  0
  3 39  1  0  0  0  0
  5 10  1  0  0  0  0
  5 26  1  0  0  0  0
  5 32  1  1  0  0  0
  6 12  1  0  0  0  0
  6 36  1  0  0  0  0
  6 19  1  6  0  0  0
  7  8  1  6  0  0  0
  7 14  1  0  0  0  0
  9 16  1  0  0  0  0
 10 11  1  6  0  0  0
 10 18  1  0  0  0  0
 12 13  1  1  0  0  0
 12 20  1  0  0  0  0
 14 15  1  1  0  0  0
 14 22  1  0  0  0  0
 16 17  1  6  0  0  0
 16 24  1  0  0  0  0
 18 19  1  6  0  0  0
 18 25  1  0  0  0  0
 20 21  1  1  0  0  0
 20 27  1  0  0  0  0
 22 23  1  1  0  0  0
 22 29  1  0  0  0  0
 24  2  1  1  0  0  0
 24 31  1  0  0  0  0
 25 26  1  0  0  0  0
 25 33  1  1  0  0  0
 27 28  1  6  0  0  0
 27 35  1  0  0  0  0
 29 30  1  0  0  0  0
 29 37  1  1  0  0  0
 31 32  1  6  0  0  0
 31 39  1  0  0  0  0
 33 34  1  0  0  0  0
 35 36  1  0  0  0  0
 35 41  1  1  0  0  0
 37 38  1  0  0  0  0
 39 40  1  1  0  0  0
 41 42  1  0  0  0  0
M  END
>  <CHROM.1>
-115.79423895,-63.79453140,-66.76095980,172.98048965,94.68135865,167.49190980
-59.42472052,-10.19921386,161.90390578,161.51588152,-176.46224449,63.33901451
-48.18207202,62.02802978,-164.96120532,-77.64058313,112.15818812,-162.20540894
150.69629661,60.82509537,46.82380786,34.67486331,2.67759358,3.59676958,27.20603112
-0.14378617,0.75592842,2.24193447

>  <Name>
1fyp_lig

>  <RI>
0

>  <Rbt.Current_Directory>
/home/itssahil/PROJECTS/Mol_Feturizer/New_Systems/rnas/1fyp

>  <Rbt.Executable>
rbdock ($Id: //depot/dev/client3/rdock/2013.1/src/exe/rbdock.cxx#4 $)

>  <Rbt.Library>
libRbt.so (2013.1, Build901 2013/11/27)

>  <Rbt.Parameter_File>
/export/apps/rDock/src/rDock_2013.1_src/data/scripts/dock_solv.prm

>  <Rbt.Receptor>
prm/pocket_docking_6.prm

>  <SCORE>
-49.4584

>  <SCORE.INTER>
-45.5176

>  <SCORE.INTER.CONST>
1

>  <SCORE.INTER.POLAR>
-6.46761

>  <SCORE.INTER.ROT>
14

>  <SCORE.INTER.SOLV>
16.0169

>  <SCORE.INTER.VDW>
-27.0587

>  <SCORE.INTER.norm>
-1.08375

>  <SCORE.INTRA>
-3.95119

>  <SCORE.INTRA.DIHEDRAL>
-15.6975

>  <SCORE.INTRA.DIHEDRAL.0>
48.7173

>  <SCORE.INTRA.POLAR>
0.450316

>  <SCORE.INTRA.POLAR.0>
-1.54691

>  <SCORE.INTRA.REPUL>
0

>  <SCORE.INTRA.REPUL.0>
0

>  <SCORE.INTRA.SOLV>
-0.957812

>  <SCORE.INTRA.SOLV.lig_0>
-64.052

>  <SCORE.INTRA.VDW>
2.84539

>  <SCORE.INTRA.VDW.0>
-7.0667

>  <SCORE.INTRA.norm>
-0.0940759

>  <SCORE.RESTR>
0.0103373

>  <SCORE.RESTR.CAVITY>
0.0103373

>  <SCORE.RESTR.norm>
0.000246126

>  <SCORE.SYSTEM>
0

>  <SCORE.SYSTEM.CONST>
0

>  <SCORE.SYSTEM.DIHEDRAL>
0

>  <SCORE.SYSTEM.SOLV>
0

>  <SCORE.SYSTEM.norm>
0

>  <SCORE.heavy>
42

>  <SCORE.norm>
-1.17758

>  <RMSD>
2.619

$$$$
1fyp_lig
 OpenBabel11021811393D
libRbt.so/2013.1/901 2013/11/27
 42 45  0  0  0  0  0  0  0  0999 V2000
    5.9321    7.3632   27.5879 C   0  0  2  0  0  0  0  0  0  0  0  0
    6.5969    6.5181   26.6049 O   0  0  0  0  0  0  0  0  0  0  0  0
    3.8068    7.5228   23.5314 C   0  0  2  0  0  0  0  0  0  0  0  0
    3.0559    7.6844   22.2727 N   0  0  0  0  0  0  0  0  0  0  0  0
    3.4384    3.6347   25.4179 C   0  0  1  0  0  0  0  0  0  0  0  0
    0.8952    0.0217   24.7777 C   0  0  1  0  0  0  0  0  0  0  0  0
    6.8572    7.6516   28.8139 C   0  0  2  0  0  0  0  0  0  0  0  0
    8.1838    8.1405   28.3815 N   0  0  0  0  0  0  0  0  0  0  0  0
    5.2706    7.9553   23.3145 C   0  0  0  0  0  0  0  0  0  0  0  0
    3.8706    2.1909   25.1488 C   0  0  2  0  0  0  0  0  0  0  0  0
    3.9675    1.9765   23.7402 O   0  0  0  0  0  0  0  0  0  0  0  0
    0.0074   -0.0893   23.5008 C   0  0  2  0  0  0  0  0  0  0  0  0
   -0.8202    1.1205   23.2732 N   0  0  0  0  0  0  0  0  0  0  0  0
    7.0130    6.3793   29.7045 C   0  0  1  0  0  0  0  0  0  0  0  0
    7.7253    6.6983   30.8973 O   0  0  0  0  0  0  0  0  0  0  0  0
    6.1169    7.8367   24.6114 C   0  0  2  0  0  0  0  0  0  0  0  0
    7.5106    8.1950   24.2754 N   0  0  0  0  0  0  0  0  0  0  0  0
    2.7086    1.3978   25.7532 C   0  0  2  0  0  0  0  0  0  0  0  0
    1.5874    1.2963   24.8317 O   0  0  0  0  0  0  0  0  0  0  0  0
   -0.8712   -1.3775   23.5451 C   0  0  1  0  0  0  0  0  0  0  0  0
   -0.0326   -2.5066   23.3094 O   0  0  0  0  0  0  0  0  0  0  0  0
    5.6398    5.7787   30.0965 C   0  0  2  0  0  0  0  0  0  0  0  0
    5.8505    4.5737   30.8262 O   0  0  0  0  0  0  0  0  0  0  0  0
    6.0328    6.4111   25.2664 C   0  0  2  0  0  0  0  0  0  0  0  0
    2.3318    2.2555   26.9693 C   0  0  2  0  0  0  0  0  0  0  0  0
    2.6175    3.6176   26.5967 O   0  0  0  0  0  0  0  0  0  0  0  0
   -1.6135   -1.5952   24.8984 C   0  0  2  0  0  0  0  0  0  0  0  0
   -2.6849   -0.6544   24.9853 O   0  0  0  0  0  0  0  0  0  0  0  0
    4.7863    5.5067   28.8254 C   0  0  2  0  0  0  0  0  0  0  0  0
    4.6868    6.7355   28.0442 O   0  0  0  0  0  0  0  0  0  0  0  0
    4.5609    5.8689   25.3641 C   0  0  2  0  0  0  0  0  0  0  0  0
    4.6216    4.4487   25.6572 O   0  0  0  0  0  0  0  0  0  0  0  0
    3.1156    1.8788   28.2391 C   0  0  0  0  0  0  0  0  0  0  0  0
    2.8499    0.5396   28.6180 O   0  0  0  0  0  0  0  0  0  0  0  0
   -0.6370   -1.4124   26.1015 C   0  0  1  0  0  0  0  0  0  0  0  0
    0.0622   -0.1365   25.9762 O   0  0  0  0  0  0  0  0  0  0  0  0
    3.3396    5.0408   29.1028 C   0  0  0  0  0  0  0  0  0  0  0  0
    2.5155    6.1255   29.4948 O   0  0  0  0  0  0  0  0  0  0  0  0
    3.7516    6.0636   24.0444 C   0  0  1  0  0  0  0  0  0  0  0  0
    2.3919    5.7022   24.2820 O   0  0  0  0  0  0  0  0  0  0  0  0
   -1.3606   -1.4600   27.4717 C   0  0  0  0  0  0  0  0  0  0  0  0
   -2.1795   -0.2593   27.7181 N   0  0  0  0  0  0  0  0  0  0  0  0
  1  2  1  6  0  0  0
  1  7  1  0  0  0  0
  1 30  1  0  0  0  0
  3  4  1  6  0  0  0
  3  9  1  0  0  0  0
  3 39  1  0  0  0  0
  5 10  1  0  0  0  0
  5 26  1  0  0  0  0
  5 32  1  1  0  0  0
  6 12  1  0  0  0  0
  6 36  1  0  0  0  0
  6 19  1  1  0  0  0
  7  8  1  6  0  0  0
  7 14  1  0  0  0  0
  9 16  1  0  0  0  0
 10 11  1  6  0  0  0
 10 18  1  0  0  0  0
 12 13  1  1  0  0  0
 12 20  1  0  0  0  0
 14 15  1  1  0  0  0
 14 22  1  0  0  0  0
 16 17  1  6  0  0  0
 16 24  1  0  0  0  0
 18 19  1  6  0  0  0
 18 25  1  0  0  0  0
 20 21  1  1  0  0  0
 20 27  1  0  0  0  0
 22 23  1  6  0  0  0
 22 29  1  0  0  0  0
 24  2  1  1  0  0  0
 24 31  1  0  0  0  0
 25 26  1  0  0  0  0
 25 33  1  1  0  0  0
 27 28  1  1  0  0  0
 27 35  1  0  0  0  0
 29 30  1  0  0  0  0
 29 37  1  1  0  0  0
 31 32  1  6  0  0  0
 31 39  1  0  0  0  0
 33 34  1  0  0  0  0
 35 36  1  0  0  0  0
 35 41  1  1  0  0  0
 37 38  1  0  0  0  0
 39 40  1  1  0  0  0
 41 42  1  0  0  0  0
M  END
>  <CHROM.1>
-165.08181628,64.12335471,-65.50408022,165.49965023,-76.90527847,161.96600050
-57.67569023,75.12654117,139.97971449,-163.83211500,58.95423097,69.30089588
-61.52466400,-84.46273791,76.78128917,-162.33487114,153.53685002,-61.44081633
-71.49232510,-60.33501880,63.67087053,-73.58417040,3.16330220,3.67322343
26.26029222,-0.04299052,0.86996854,1.91348863

>  <Name>
1fyp_lig

>  <RI>
0

>  <Rbt.Current_Directory>
/home/itssahil/PROJECTS/Mol_Feturizer/New_Systems/rnas/1fyp

>  <Rbt.Executable>
rbdock ($Id: //depot/dev/client3/rdock/2013.1/src/exe/rbdock.cxx#4 $)

>  <Rbt.Library>
libRbt.so (2013.1, Build901 2013/11/27)

>  <Rbt.Parameter_File>
/export/apps/rDock/src/rDock_2013.1_src/data/scripts/dock_solv.prm

>  <Rbt.Receptor>
prm/pocket_docking_3.prm

>  <SCORE>
-47.7802

>  <SCORE.INTER>
-41.2838

>  <SCORE.INTER.CONST>
1

>  <SCORE.INTER.POLAR>
-4.5882

>  <SCORE.INTER.ROT>
14

>  <SCORE.INTER.SOLV>
19.2345

>  <SCORE.INTER.VDW>
-31.5733

>  <SCORE.INTER.norm>
-0.982947

>  <SCORE.INTRA>
-6.51676

>  <SCORE.INTRA.DIHEDRAL>
-28.8266

>  <SCORE.INTRA.DIHEDRAL.0>
48.7173

>  <SCORE.INTRA.POLAR>
1.22235

>  <SCORE.INTRA.POLAR.0>
-1.54691

>  <SCORE.INTRA.REPUL>
0

>  <SCORE.INTRA.REPUL.0>
0

>  <SCORE.INTRA.SOLV>
-1.46741

>  <SCORE.INTRA.SOLV.lig_0>
-64.052

>  <SCORE.INTRA.VDW>
4.47424

>  <SCORE.INTRA.VDW.0>
-7.0667

>  <SCORE.INTRA.norm>
-0.155161

>  <SCORE.RESTR>
0.0203429

>  <SCORE.RESTR.CAVITY>
0.0203429

>  <SCORE.RESTR.norm>
0.000484354

>  <SCORE.SYSTEM>
0

>  <SCORE.SYSTEM.CONST>
0

>  <SCORE.SYSTEM.DIHEDRAL>
0

>  <SCORE.SYSTEM.SOLV>
0

>  <SCORE.SYSTEM.norm>
0

>  <SCORE.heavy>
42

>  <SCORE.norm>
-1.13762

>  <RMSD>
2.638

$$$$
1fyp_lig
 OpenBabel11021811393D
libRbt.so/2013.1/901 2013/11/27
 42 45  0  0  0  0  0  0  0  0999 V2000
    6.5661    6.1792   28.1437 C   0  0  2  0  0  0  0  0  0  0  0  0
    5.5115    7.0360   27.6183 O   0  0  0  0  0  0  0  0  0  0  0  0
    3.1883    7.8397   24.1258 C   0  0  2  0  0  0  0  0  0  0  0  0
    2.4826    7.7987   22.8317 N   0  0  0  0  0  0  0  0  0  0  0  0
    1.8833    4.8337   26.7266 C   0  0  1  0  0  0  0  0  0  0  0  0
   -0.7324    1.6809   25.7570 C   0  0  1  0  0  0  0  0  0  0  0  0
    6.6010    6.2067   29.7058 C   0  0  2  0  0  0  0  0  0  0  0  0
    5.2615    5.9511   30.2767 N   0  0  0  0  0  0  0  0  0  0  0  0
    4.6744    7.4900   23.9109 C   0  0  0  0  0  0  0  0  0  0  0  0
    2.4076    3.4251   27.0175 C   0  0  2  0  0  0  0  0  0  0  0  0
    3.2076    2.9782   25.9221 O   0  0  0  0  0  0  0  0  0  0  0  0
   -1.0279    0.7780   26.9933 C   0  0  2  0  0  0  0  0  0  0  0  0
    0.0666   -0.1832   27.2737 N   0  0  0  0  0  0  0  0  0  0  0  0
    7.1604    7.5679   30.2256 C   0  0  1  0  0  0  0  0  0  0  0  0
    7.3354    7.5199   31.6394 O   0  0  0  0  0  0  0  0  0  0  0  0
    5.4873    7.5406   25.2334 C   0  0  2  0  0  0  0  0  0  0  0  0
    6.8692    7.1134   24.9305 N   0  0  0  0  0  0  0  0  0  0  0  0
    1.1082    2.6219   27.1211 C   0  0  2  0  0  0  0  0  0  0  0  0
    0.6101    2.2299   25.8116 O   0  0  0  0  0  0  0  0  0  0  0  0
   -2.3970    0.0479   26.8336 C   0  0  1  0  0  0  0  0  0  0  0  0
   -3.4428    0.9991   27.0211 O   0  0  0  0  0  0  0  0  0  0  0  0
    8.5207    7.9190   29.5725 C   0  0  2  0  0  0  0  0  0  0  0  0
    8.9301    9.2093   30.0156 O   0  0  0  0  0  0  0  0  0  0  0  0
    4.8528    6.6652   26.3733 C   0  0  2  0  0  0  0  0  0  0  0  0
    0.1577    3.6312   27.7801 C   0  0  2  0  0  0  0  0  0  0  0  0
    0.5782    4.9300   27.3195 O   0  0  0  0  0  0  0  0  0  0  0  0
   -2.5981   -0.6308   25.4448 C   0  0  2  0  0  0  0  0  0  0  0  0
   -1.7747   -1.7966   25.3853 O   0  0  0  0  0  0  0  0  0  0  0  0
    8.4006    7.8851   28.0225 C   0  0  2  0  0  0  0  0  0  0  0  0
    7.8710    6.5886   27.6121 O   0  0  0  0  0  0  0  0  0  0  0  0
    3.3032    6.8821   26.5202 C   0  0  2  0  0  0  0  0  0  0  0  0
    2.7730    5.8089   27.3409 O   0  0  0  0  0  0  0  0  0  0  0  0
    0.1935    3.5780   29.3178 C   0  0  0  0  0  0  0  0  0  0  0  0
   -0.4390    2.4044   29.7975 O   0  0  0  0  0  0  0  0  0  0  0  0
   -2.2270    0.3505   24.2898 C   0  0  1  0  0  0  0  0  0  0  0  0
   -0.8950    0.9016   24.5235 O   0  0  0  0  0  0  0  0  0  0  0  0
    9.7328    8.0787   27.2642 C   0  0  0  0  0  0  0  0  0  0  0  0
    9.5789    8.9690   26.1719 O   0  0  0  0  0  0  0  0  0  0  0  0
    2.5543    6.8692   25.1514 C   0  0  1  0  0  0  0  0  0  0  0  0
    1.1941    7.2411   25.3686 O   0  0  0  0  0  0  0  0  0  0  0  0
   -2.2562   -0.3279   22.8962 C   0  0  0  0  0  0  0  0  0  0  0  0
   -0.9728   -0.9671   22.5540 N   0  0  0  0  0  0  0  0  0  0  0  0
  1  2  1  6  0  0  0
  1  7  1  0  0  0  0
  1 30  1  0  0  0  0
  3  4  1  6  0  0  0
  3  9  1  0  0  0  0
  3 39  1  0  0  0  0
  5 10  1  0  0  0  0
  5 26  1  0  0  0  0
  5 32  1  1  0  0  0
  6 12  1  0  0  0  0
  6 36  1  0  0  0  0
  6 19  1  1  0  0  0
  7  8  1  1  0  0  0
  7 14  1  0  0  0  0
  9 16  1  0  0  0  0
 10 11  1  6  0  0  0
 10 18  1  0  0  0  0
 12 13  1  6  0  0  0
 12 20  1  0  0  0  0
 14 15  1  1  0  0  0
 14 22  1  0  0  0  0
 16 17  1  6  0  0  0
 16 24  1  0  0  0  0
 18 19  1  6  0  0  0
 18 25  1  0  0  0  0
 20 21  1  6  0  0  0
 20 27  1  0  0  0  0
 22 23  1  6  0  0  0
 22 29  1  0  0  0  0
 24  2  1  1  0  0  0
 24 31  1  0  0  0  0
 25 26  1  0  0  0  0
 25 33  1  1  0  0  0
 27 28  1  1  0  0  0
 27 35  1  0  0  0  0
 29 30  1  0  0  0  0
 29 37  1  6  0  0  0
 31 32  1  1  0  0  0
 31 39  1  0  0  0  0
 33 34  1  0  0  0  0
 35 36  1  0  0  0  0
 35 41  1  6  0  0  0
 37 38  1  0  0  0  0
 39 40  1  1  0  0  0
 41 42  1  0  0  0  0
M  END
>  <CHROM.1>
-148.18467605,-100.57944273,-176.84119436,-157.45075951,66.03079569,-162.69070338
-70.69059197,-43.74098808,-169.01942277,-37.62773071,-55.42273864,-177.68374883
-72.22032503,-61.49173392,-136.19446636,-112.67523870,127.59431387,-176.42617599
-87.23021492,60.72990964,-51.52473842,-112.27297243,2.87147115,4.56571148
26.76834913,0.01869647,0.71187232,1.85859992

>  <Name>
1fyp_lig

>  <RI>
0

>  <Rbt.Current_Directory>
/home/itssahil/PROJECTS/Mol_Feturizer/New_Systems/rnas/1fyp

>  <Rbt.Executable>
rbdock ($Id: //depot/dev/client3/rdock/2013.1/src/exe/rbdock.cxx#4 $)

>  <Rbt.Library>
libRbt.so (2013.1, Build901 2013/11/27)

>  <Rbt.Parameter_File>
/export/apps/rDock/src/rDock_2013.1_src/data/scripts/dock_solv.prm

>  <Rbt.Receptor>
prm/pocket_docking_5.prm

>  <SCORE>
-32.0962

>  <SCORE.INTER>
-38.5558

>  <SCORE.INTER.CONST>
1

>  <SCORE.INTER.POLAR>
-4.88791

>  <SCORE.INTER.ROT>
14

>  <SCORE.INTER.SOLV>
14.0267

>  <SCORE.INTER.VDW>
-27.0197

>  <SCORE.INTER.norm>
-0.917994

>  <SCORE.INTRA>
6.45954

>  <SCORE.INTRA.DIHEDRAL>
-10.1282

>  <SCORE.INTRA.DIHEDRAL.0>
48.7173

>  <SCORE.INTRA.POLAR>
1.51493

>  <SCORE.INTRA.POLAR.0>
-1.54691

>  <SCORE.INTRA.REPUL>
0

>  <SCORE.INTRA.REPUL.0>
0

>  <SCORE.INTRA.SOLV>
-0.877597

>  <SCORE.INTRA.SOLV.lig_0>
-64.052

>  <SCORE.INTRA.VDW>
6.81166

>  <SCORE.INTRA.VDW.0>
-7.0667

>  <SCORE.INTRA.norm>
0.153798

>  <SCORE.RESTR>
0

>  <SCORE.RESTR.CAVITY>
0

>  <SCORE.RESTR.norm>
0

>  <SCORE.SYSTEM>
0

>  <SCORE.SYSTEM.CONST>
0

>  <SCORE.SYSTEM.DIHEDRAL>
0

>  <SCORE.SYSTEM.SOLV>
0

>  <SCORE.SYSTEM.norm>
0

>  <SCORE.heavy>
42

>  <SCORE.norm>
-0.764196

>  <RMSD>
2.653

$$$$
1fyp_lig
 OpenBabel11021811393D
libRbt.so/2013.1/901 2013/11/27
 42 45  0  0  0  0  0  0  0  0999 V2000
    5.5422    7.1510   27.2429 C   0  0  2  0  0  0  0  0  0  0  0  0
    5.9847    6.1397   26.2922 O   0  0  0  0  0  0  0  0  0  0  0  0
    3.5022    7.6501   23.1622 C   0  0  2  0  0  0  0  0  0  0  0  0
    2.8586    7.9916   21.8802 N   0  0  0  0  0  0  0  0  0  0  0  0
    2.6718    3.7071   25.3225 C   0  0  1  0  0  0  0  0  0  0  0  0
   -0.4079    0.6615   26.3625 C   0  0  1  0  0  0  0  0  0  0  0  0
    6.7195    7.6420   28.1456 C   0  0  2  0  0  0  0  0  0  0  0  0
    7.8906    8.0345   27.3331 N   0  0  0  0  0  0  0  0  0  0  0  0
    5.0038    7.9920   23.0893 C   0  0  0  0  0  0  0  0  0  0  0  0
    2.7947    2.1910   25.1493 C   0  0  2  0  0  0  0  0  0  0  0  0
    2.3397    1.8211   23.8471 O   0  0  0  0  0  0  0  0  0  0  0  0
    0.0152   -0.7720   25.9185 C   0  0  2  0  0  0  0  0  0  0  0  0
    0.2673   -0.8674   24.4599 N   0  0  0  0  0  0  0  0  0  0  0  0
    7.1216    6.5451   29.1806 C   0  0  1  0  0  0  0  0  0  0  0  0
    8.0833    7.0624   30.0967 O   0  0  0  0  0  0  0  0  0  0  0  0
    5.7425    7.6822   24.4200 C   0  0  2  0  0  0  0  0  0  0  0  0
    7.1780    7.9675   24.2165 N   0  0  0  0  0  0  0  0  0  0  0  0
    1.8491    1.6734   26.2366 C   0  0  2  0  0  0  0  0  0  0  0  0
    0.4641    1.6713   25.7912 O   0  0  0  0  0  0  0  0  0  0  0  0
   -1.0327   -1.8297   26.3834 C   0  0  1  0  0  0  0  0  0  0  0  0
   -0.9042   -2.0063   27.7926 O   0  0  0  0  0  0  0  0  0  0  0  0
    5.8992    6.0360   29.9849 C   0  0  2  0  0  0  0  0  0  0  0  0
    6.3146    4.9765   30.8414 O   0  0  0  0  0  0  0  0  0  0  0  0
    5.5148    6.2088   24.9153 C   0  0  2  0  0  0  0  0  0  0  0  0
    2.0540    2.7020   27.3575 C   0  0  2  0  0  0  0  0  0  0  0  0
    2.3467    3.9504   26.7006 O   0  0  0  0  0  0  0  0  0  0  0  0
   -2.5100   -1.4408   26.0733 C   0  0  2  0  0  0  0  0  0  0  0  0
   -2.7326   -1.5851   24.6697 O   0  0  0  0  0  0  0  0  0  0  0  0
    4.7804    5.5525   29.0191 C   0  0  2  0  0  0  0  0  0  0  0  0
    4.4601    6.6253   28.0830 O   0  0  0  0  0  0  0  0  0  0  0  0
    4.0066    5.7704   24.8579 C   0  0  2  0  0  0  0  0  0  0  0  0
    3.9500    4.3276   25.0044 O   0  0  0  0  0  0  0  0  0  0  0  0
    3.1976    2.3282   28.3172 C   0  0  0  0  0  0  0  0  0  0  0  0
    4.4168    2.1701   27.6127 O   0  0  0  0  0  0  0  0  0  0  0  0
   -2.8015    0.0263   26.5171 C   0  0  1  0  0  0  0  0  0  0  0  0
   -1.7936    0.9191   25.9517 O   0  0  0  0  0  0  0  0  0  0  0  0
    3.4553    5.1565   29.7079 C   0  0  0  0  0  0  0  0  0  0  0  0
    2.8033    6.2881   30.2592 O   0  0  0  0  0  0  0  0  0  0  0  0
    3.3115    6.1553   23.5151 C   0  0  1  0  0  0  0  0  0  0  0  0
    1.9169    5.8741   23.6228 O   0  0  0  0  0  0  0  0  0  0  0  0
   -4.2082    0.5136   26.0848 C   0  0  0  0  0  0  0  0  0  0  0  0
   -5.2617   -0.4743   26.3800 N   0  0  0  0  0  0  0  0  0  0  0  0
  1  2  1  6  0  0  0
  1  7  1  0  0  0  0
  1 30  1  0  0  0  0
  3  4  1  6  0  0  0
  3  9  1  0  0  0  0
  3 39  1  0  0  0  0
  5 10  1  0  0  0  0
  5 26  1  0  0  0  0
  5 32  1  1  0  0  0
  6 12  1  0  0  0  0
  6 36  1  0  0  0  0
  6 19  1  6  0  0  0
  7  8  1  6  0  0  0
  7 14  1  0  0  0  0
  9 16  1  0  0  0  0
 10 11  1  6  0  0  0
 10 18  1  0  0  0  0
 12 13  1  6  0  0  0
 12 20  1  0  0  0  0
 14 15  1  1  0  0  0
 14 22  1  0  0  0  0
 16 17  1  6  0  0  0
 16 24  1  0  0  0  0
 18 19  1  6  0  0  0
 18 25  1  0  0  0  0
 20 21  1  1  0  0  0
 20 27  1  0  0  0  0
 22 23  1  1  0  0  0
 22 29  1  0  0  0  0
 24  2  1  1  0  0  0
 24 31  1  0  0  0  0
 25 26  1  0  0  0  0
 25 33  1  1  0  0  0
 27 28  1  6  0  0  0
 27 35  1  0  0  0  0
 29 30  1  0  0  0  0
 29 37  1  1  0  0  0
 31 32  1  6  0  0  0
 31 39  1  0  0  0  0
 33 34  1  0  0  0  0
 35 36  1  0  0  0  0
 35 41  1  6  0  0  0
 37 38  1  0  0  0  0
 39 40  1  1  0  0  0
 41 42  1  0  0  0  0
M  END
>  <CHROM.1>
-137.15374490,49.24511044,61.50571646,120.53992020,-173.59974747,156.90989352
-168.66435088,58.80556284,150.10361556,-66.22741481,-55.09893132,-54.21522554
57.43282427,177.05872082,68.40198710,164.64538395,168.72066674,-67.28405433
46.48221220,-177.32927976,-53.04848034,-155.40795284,2.67818808,3.79301738
26.39041603,-0.20961923,0.74055198,2.01545508

>  <Name>
1fyp_lig

>  <RI>
0

>  <Rbt.Current_Directory>
/home/itssahil/PROJECTS/Mol_Feturizer/New_Systems/rnas/1fyp

>  <Rbt.Executable>
rbdock ($Id: //depot/dev/client3/rdock/2013.1/src/exe/rbdock.cxx#4 $)

>  <Rbt.Library>
libRbt.so (2013.1, Build901 2013/11/27)

>  <Rbt.Parameter_File>
/export/apps/rDock/src/rDock_2013.1_src/data/scripts/dock_solv.prm

>  <Rbt.Receptor>
prm/pocket_docking_4.prm

>  <SCORE>
-64.919

>  <SCORE.INTER>
-53.4973

>  <SCORE.INTER.CONST>
1

>  <SCORE.INTER.POLAR>
-6.97586

>  <SCORE.INTER.ROT>
14

>  <SCORE.INTER.SOLV>
18.0456

>  <SCORE.INTER.VDW>
-31.3605

>  <SCORE.INTER.norm>
-1.27375

>  <SCORE.INTRA>
-11.4217

>  <SCORE.INTRA.DIHEDRAL>
-29.5297

>  <SCORE.INTRA.DIHEDRAL.0>
48.7173

>  <SCORE.INTRA.POLAR>
0.312712

>  <SCORE.INTRA.POLAR.0>
-1.54691

>  <SCORE.INTRA.REPUL>
0

>  <SCORE.INTRA.REPUL.0>
0

>  <SCORE.INTRA.SOLV>
-0.11181

>  <SCORE.INTRA.SOLV.lig_0>
-64.052

>  <SCORE.INTRA.VDW>
2.33583

>  <SCORE.INTRA.VDW.0>
-7.0667

>  <SCORE.INTRA.norm>
-0.271946

>  <SCORE.RESTR>
0

>  <SCORE.RESTR.CAVITY>
0

>  <SCORE.RESTR.norm>
0

>  <SCORE.SYSTEM>
0

>  <SCORE.SYSTEM.CONST>
0

>  <SCORE.SYSTEM.DIHEDRAL>
0

>  <SCORE.SYSTEM.SOLV>
0

>  <SCORE.SYSTEM.norm>
0

>  <SCORE.heavy>
42

>  <SCORE.norm>
-1.54569

>  <RMSD>
2.660

$$$$
1fyp_lig
 OpenBabel11021811393D
libRbt.so/2013.1/901 2013/11/27
 42 45  0  0  0  0  0  0  0  0999 V2000
    6.8948    7.1655   28.0302 C   0  0  2  0  0  0  0  0  0  0  0  0
    6.6652    6.0889   27.0760 O   0  0  0  0  0  0  0  0  0  0  0  0
    2.7845    7.5334   26.0298 C   0  0  2  0  0  0  0  0  0  0  0  0
    1.4849    7.8247   25.3968 N   0  0  0  0  0  0  0  0  0  0  0  0
    3.2528    3.4659   26.9021 C   0  0  1  0  0  0  0  0  0  0  0  0
    0.8185    0.2453   25.5184 C   0  0  1  0  0  0  0  0  0  0  0  0
    8.4201    7.4490   28.2173 C   0  0  2  0  0  0  0  0  0  0  0  0
    9.0958    7.6294   26.9148 N   0  0  0  0  0  0  0  0  0  0  0  0
    3.9163    7.7701   25.0099 C   0  0  0  0  0  0  0  0  0  0  0  0
    3.9528    2.3187   26.1688 C   0  0  2  0  0  0  0  0  0  0  0  0
    4.1012    2.6546   24.7887 O   0  0  0  0  0  0  0  0  0  0  0  0
    0.0892   -0.0006   24.1623 C   0  0  2  0  0  0  0  0  0  0  0  0
   -0.2612    1.2607   23.4649 N   0  0  0  0  0  0  0  0  0  0  0  0
    9.1034    6.3034   29.0277 C   0  0  1  0  0  0  0  0  0  0  0  0
   10.4532    6.6501   29.3267 O   0  0  0  0  0  0  0  0  0  0  0  0
    5.3207    7.5076   25.6190 C   0  0  2  0  0  0  0  0  0  0  0  0
    6.3191    7.6831   24.5437 N   0  0  0  0  0  0  0  0  0  0  0  0
    2.9566    1.1715   26.3578 C   0  0  2  0  0  0  0  0  0  0  0  0
    1.8832    1.2216   25.3771 O   0  0  0  0  0  0  0  0  0  0  0  0
   -1.1653   -0.9057   24.3623 C   0  0  1  0  0  0  0  0  0  0  0  0
   -0.7273   -2.2411   24.6035 O   0  0  0  0  0  0  0  0  0  0  0  0
    8.3621    6.0170   30.3577 C   0  0  2  0  0  0  0  0  0  0  0  0
    8.9762    4.9051   31.0022 O   0  0  0  0  0  0  0  0  0  0  0  0
    5.4405    6.0910   26.2877 C   0  0  2  0  0  0  0  0  0  0  0  0
    2.4133    1.4459   27.7671 C   0  0  2  0  0  0  0  0  0  0  0  0
    2.4393    2.8772   27.9295 O   0  0  0  0  0  0  0  0  0  0  0  0
   -2.0812   -0.4713   25.5466 C   0  0  2  0  0  0  0  0  0  0  0  0
   -2.7836    0.7131   25.1668 O   0  0  0  0  0  0  0  0  0  0  0  0
    6.8579    5.7306   30.0870 C   0  0  2  0  0  0  0  0  0  0  0  0
    6.2894    6.8388   29.3263 O   0  0  0  0  0  0  0  0  0  0  0  0
    4.2217    5.7495   27.2194 C   0  0  2  0  0  0  0  0  0  0  0  0
    4.2582    4.3275   27.5074 O   0  0  0  0  0  0  0  0  0  0  0  0
    3.2429    0.7726   28.8748 C   0  0  0  0  0  0  0  0  0  0  0  0
    4.5952    1.1920   28.8188 O   0  0  0  0  0  0  0  0  0  0  0  0
   -1.2370   -0.2084   26.8321 C   0  0  1  0  0  0  0  0  0  0  0  0
   -0.1457    0.7114   26.5226 O   0  0  0  0  0  0  0  0  0  0  0  0
    5.9891    5.5729   31.3549 C   0  0  0  0  0  0  0  0  0  0  0  0
    4.6215    5.4008   31.0239 O   0  0  0  0  0  0  0  0  0  0  0  0
    2.8443    6.0830   26.5667 C   0  0  1  0  0  0  0  0  0  0  0  0
    1.8184    5.9022   27.5416 O   0  0  0  0  0  0  0  0  0  0  0  0
   -2.0809    0.3803   27.9917 C   0  0  0  0  0  0  0  0  0  0  0  0
   -3.5220    0.1157   27.8301 N   0  0  0  0  0  0  0  0  0  0  0  0
  1  2  1  6  0  0  0
  1  7  1  0  0  0  0
  1 30  1  0  0  0  0
  3  4  1  6  0  0  0
  3  9  1  0  0  0  0
  3 39  1  0  0  0  0
  5 10  1  0  0  0  0
  5 26  1  0  0  0  0
  5 32  1  1  0  0  0
  6 12  1  0  0  0  0
  6 36  1  0  0  0  0
  6 19  1  6  0  0  0
  7  8  1  6  0  0  0
  7 14  1  0  0  0  0
  9 16  1  0  0  0  0
 10 11  1  6  0  0  0
 10 18  1  0  0  0  0
 12 13  1  1  0  0  0
 12 20  1  0  0  0  0
 14 15  1  1  0  0  0
 14 22  1  0  0  0  0
 16 17  1  6  0  0  0
 16 24  1  0  0  0  0
 18 19  1  6  0  0  0
 18 25  1  0  0  0  0
 20 21  1  1  0  0  0
 20 27  1  0  0  0  0
 22 23  1  6  0  0  0
 22 29  1  0  0  0  0
 24  2  1  1  0  0  0
 24 31  1  0  0  0  0
 25 26  1  0  0  0  0
 25 33  1  1  0  0  0
 27 28  1  6  0  0  0
 27 35  1  0  0  0  0
 29 30  1  0  0  0  0
 29 37  1  1  0  0  0
 31 32  1  6  0  0  0
 31 39  1  0  0  0  0
 33 34  1  0  0  0  0
 35 36  1  0  0  0  0
 35 41  1  1  0  0  0
 37 38  1  0  0  0  0
 39 40  1  1  0  0  0
 41 42  1  0  0  0  0
M  END
>  <CHROM.1>
-150.42772237,51.54288000,-152.36798732,-164.49608187,71.70452449,166.30949961
-129.69412354,-66.56873077,-175.35223757,-156.40084507,64.48959131,63.63604948
57.58416129,-80.55588607,176.21226253,-108.77417099,126.55328863,65.93163852
20.82545279,179.33359341,-59.09052925,-142.99762857,3.47319858,3.77953993
27.12053061,0.30837540,-0.63959324,-0.68255279

>  <Name>
1fyp_lig

>  <RI>
0

>  <Rbt.Current_Directory>
/home/itssahil/PROJECTS/Mol_Feturizer/New_Systems/rnas/1fyp

>  <Rbt.Executable>
rbdock ($Id: //depot/dev/client3/rdock/2013.1/src/exe/rbdock.cxx#4 $)

>  <Rbt.Library>
libRbt.so (2013.1, Build901 2013/11/27)

>  <Rbt.Parameter_File>
/export/apps/rDock/src/rDock_2013.1_src/data/scripts/dock_solv.prm

>  <Rbt.Receptor>
prm/pocket_docking_3.prm

>  <SCORE>
-35.4257

>  <SCORE.INTER>
-41.046

>  <SCORE.INTER.CONST>
1

>  <SCORE.INTER.POLAR>
-5.64097

>  <SCORE.INTER.ROT>
14

>  <SCORE.INTER.SOLV>
16.3458

>  <SCORE.INTER.VDW>
-26.9427

>  <SCORE.INTER.norm>
-0.977286

>  <SCORE.INTRA>
5.37052

>  <SCORE.INTRA.DIHEDRAL>
-11.2499

>  <SCORE.INTRA.DIHEDRAL.0>
48.7173

>  <SCORE.INTRA.POLAR>
1.52961

>  <SCORE.INTRA.POLAR.0>
-1.54691

>  <SCORE.INTRA.REPUL>
0.0519278

>  <SCORE.INTRA.REPUL.0>
0

>  <SCORE.INTRA.SOLV>
-1.11253

>  <SCORE.INTRA.SOLV.lig_0>
-64.052

>  <SCORE.INTRA.VDW>
6.09142

>  <SCORE.INTRA.VDW.0>
-7.0667

>  <SCORE.INTRA.norm>
0.127869

>  <SCORE.RESTR>
0.249802

>  <SCORE.RESTR.CAVITY>
0.249802

>  <SCORE.RESTR.norm>
0.00594767

>  <SCORE.SYSTEM>
0

>  <SCORE.SYSTEM.CONST>
0

>  <SCORE.SYSTEM.DIHEDRAL>
0

>  <SCORE.SYSTEM.SOLV>
0

>  <SCORE.SYSTEM.norm>
0

>  <SCORE.heavy>
42

>  <SCORE.norm>
-0.843469

>  <RMSD>
2.661

$$$$
1fyp_lig
 OpenBabel11021811393D
libRbt.so/2013.1/901 2013/11/27
 42 45  0  0  0  0  0  0  0  0999 V2000
    5.6552    6.9345   27.4853 C   0  0  2  0  0  0  0  0  0  0  0  0
    6.0762    5.9373   26.5102 O   0  0  0  0  0  0  0  0  0  0  0  0
    4.1775    7.9568   23.2611 C   0  0  2  0  0  0  0  0  0  0  0  0
    3.7358    8.4634   21.9485 N   0  0  0  0  0  0  0  0  0  0  0  0
    2.8673    3.9785   25.5974 C   0  0  1  0  0  0  0  0  0  0  0  0
   -0.2583    1.0637   26.7876 C   0  0  1  0  0  0  0  0  0  0  0  0
    6.8299    7.3405   28.4325 C   0  0  2  0  0  0  0  0  0  0  0  0
    8.0375    7.7070   27.6625 N   0  0  0  0  0  0  0  0  0  0  0  0
    5.7063    8.1140   23.3835 C   0  0  0  0  0  0  0  0  0  0  0  0
    2.5625    2.5524   25.1315 C   0  0  2  0  0  0  0  0  0  0  0  0
    1.5529    2.5857   24.1219 O   0  0  0  0  0  0  0  0  0  0  0  0
    0.3232   -0.2101   26.1016 C   0  0  2  0  0  0  0  0  0  0  0  0
    0.8243    0.0572   24.7313 N   0  0  0  0  0  0  0  0  0  0  0  0
    7.1564    6.1917   29.4374 C   0  0  1  0  0  0  0  0  0  0  0  0
    8.1167    6.6332   30.3938 O   0  0  0  0  0  0  0  0  0  0  0  0
    6.2395    7.6237   24.7574 C   0  0  2  0  0  0  0  0  0  0  0  0
    7.7123    7.7421   24.7385 N   0  0  0  0  0  0  0  0  0  0  0  0
    2.0410    1.9068   26.4182 C   0  0  2  0  0  0  0  0  0  0  0  0
    0.6327    2.1995   26.6366 O   0  0  0  0  0  0  0  0  0  0  0  0
   -0.7198   -1.3699   26.1081 C   0  0  1  0  0  0  0  0  0  0  0  0
   -0.8211   -1.8812   27.4354 O   0  0  0  0  0  0  0  0  0  0  0  0
    5.8926    5.7113   30.1939 C   0  0  2  0  0  0  0  0  0  0  0  0
    6.2386    4.6053   31.0221 O   0  0  0  0  0  0  0  0  0  0  0  0
    5.7858    6.1592   25.1003 C   0  0  2  0  0  0  0  0  0  0  0  0
    2.9055    2.5835   27.4910 C   0  0  2  0  0  0  0  0  0  0  0  0
    3.1859    3.9073   26.9964 O   0  0  0  0  0  0  0  0  0  0  0  0
   -2.1447   -0.9470   25.6382 C   0  0  2  0  0  0  0  0  0  0  0  0
   -2.1167   -0.7501   24.2236 O   0  0  0  0  0  0  0  0  0  0  0  0
    4.7782    5.3124   29.1853 C   0  0  2  0  0  0  0  0  0  0  0  0
    4.5298    6.4300   28.2803 O   0  0  0  0  0  0  0  0  0  0  0  0
    4.2550    5.9164   24.8402 C   0  0  2  0  0  0  0  0  0  0  0  0
    4.0154    4.4850   24.8591 O   0  0  0  0  0  0  0  0  0  0  0  0
    4.2202    1.8328   27.7680 C   0  0  0  0  0  0  0  0  0  0  0  0
    3.9861    0.6775   28.5542 O   0  0  0  0  0  0  0  0  0  0  0  0
   -2.5987    0.3621   26.3556 C   0  0  1  0  0  0  0  0  0  0  0  0
   -1.5678    1.3856   26.2071 O   0  0  0  0  0  0  0  0  0  0  0  0
    3.4198    4.9536   29.8280 C   0  0  0  0  0  0  0  0  0  0  0  0
    2.7963    6.0974   30.3869 O   0  0  0  0  0  0  0  0  0  0  0  0
    3.7749    6.4764   23.4652 C   0  0  1  0  0  0  0  0  0  0  0  0
    2.3544    6.3637   23.3942 O   0  0  0  0  0  0  0  0  0  0  0  0
   -3.9397    0.9115   25.8050 C   0  0  0  0  0  0  0  0  0  0  0  0
   -5.1092    0.2239   26.3815 N   0  0  0  0  0  0  0  0  0  0  0  0
  1  2  1  6  0  0  0
  1  7  1  0  0  0  0
  1 30  1  0  0  0  0
  3  4  1  6  0  0  0
  3  9  1  0  0  0  0
  3 39  1  0  0  0  0
  5 10  1  0  0  0  0
  5 26  1  0  0  0  0
  5 32  1  6  0  0  0
  6 12  1  0  0  0  0
  6 36  1  0  0  0  0
  6 19  1  6  0  0  0
  7  8  1  6  0  0  0
  7 14  1  0  0  0  0
  9 16  1  0  0  0  0
 10 11  1  6  0  0  0
 10 18  1  0  0  0  0
 12 13  1  6  0  0  0
 12 20  1  0  0  0  0
 14 15  1  1  0  0  0
 14 22  1  0  0  0  0
 16 17  1  6  0  0  0
 16 24  1  0  0  0  0
 18 19  1  1  0  0  0
 18 25  1  0  0  0  0
 20 21  1  1  0  0  0
 20 27  1  0  0  0  0
 22 23  1  6  0  0  0
 22 29  1  0  0  0  0
 24  2  1  1  0  0  0
 24 31  1  0  0  0  0
 25 26  1  0  0  0  0
 25 33  1  6  0  0  0
 27 28  1  6  0  0  0
 27 35  1  0  0  0  0
 29 30  1  0  0  0  0
 29 37  1  1  0  0  0
 31 32  1  6  0  0  0
 31 39  1  0  0  0  0
 33 34  1  0  0  0  0
 35 36  1  0  0  0  0
 35 41  1  6  0  0  0
 37 38  1  0  0  0  0
 39 40  1  1  0  0  0
 41 42  1  0  0  0  0
M  END
>  <CHROM.1>
-129.66199815,48.58548543,-151.69148117,97.40209516,62.38445576,156.05611258
58.81539607,172.78580235,123.62536109,-24.39395652,-71.64096935,171.64854521
-76.24832010,59.35385693,69.21761130,134.90575253,162.49276249,-95.17157416
81.36029610,61.02059144,105.82789081,-42.99151742,2.91904358,3.89151716,26.51662263
-0.22555004,0.70294785,2.06925710

>  <Name>
1fyp_lig

>  <RI>
0

>  <Rbt.Current_Directory>
/home/itssahil/PROJECTS/Mol_Feturizer/New_Systems/rnas/1fyp

>  <Rbt.Executable>
rbdock ($Id: //depot/dev/client3/rdock/2013.1/src/exe/rbdock.cxx#4 $)

>  <Rbt.Library>
libRbt.so (2013.1, Build901 2013/11/27)

>  <Rbt.Parameter_File>
/export/apps/rDock/src/rDock_2013.1_src/data/scripts/dock_solv.prm

>  <Rbt.Receptor>
prm/pocket_docking_4.prm

>  <SCORE>
-49.5878

>  <SCORE.INTER>
-51.166

>  <SCORE.INTER.CONST>
1

>  <SCORE.INTER.POLAR>
-6.32076

>  <SCORE.INTER.ROT>
14

>  <SCORE.INTER.SOLV>
17.5079

>  <SCORE.INTER.VDW>
-31.8108

>  <SCORE.INTER.norm>
-1.21824

>  <SCORE.INTRA>
1.57815

>  <SCORE.INTRA.DIHEDRAL>
-3.15466

>  <SCORE.INTRA.DIHEDRAL.0>
48.7173

>  <SCORE.INTRA.POLAR>
0.34594

>  <SCORE.INTRA.POLAR.0>
-1.54691

>  <SCORE.INTRA.REPUL>
0.00357025

>  <SCORE.INTRA.REPUL.0>
0

>  <SCORE.INTRA.SOLV>
-0.614046

>  <SCORE.INTRA.SOLV.lig_0>
-64.052

>  <SCORE.INTRA.VDW>
2.26846

>  <SCORE.INTRA.VDW.0>
-7.0667

>  <SCORE.INTRA.norm>
0.0375751

>  <SCORE.RESTR>
0

>  <SCORE.RESTR.CAVITY>
0

>  <SCORE.RESTR.norm>
0

>  <SCORE.SYSTEM>
0

>  <SCORE.SYSTEM.CONST>
0

>  <SCORE.SYSTEM.DIHEDRAL>
0

>  <SCORE.SYSTEM.SOLV>
0

>  <SCORE.SYSTEM.norm>
0

>  <SCORE.heavy>
42

>  <SCORE.norm>
-1.18066

>  <RMSD>
2.667

$$$$
1fyp_lig
 OpenBabel11021811393D
libRbt.so/2013.1/901 2013/11/27
 42 45  0  0  0  0  0  0  0  0999 V2000
    6.6922    4.9727   26.9707 C   0  0  2  0  0  0  0  0  0  0  0  0
    5.5597    5.7734   26.5251 O   0  0  0  0  0  0  0  0  0  0  0  0
    3.8399    7.7475   23.1507 C   0  0  2  0  0  0  0  0  0  0  0  0
    3.4789    8.2456   21.8106 N   0  0  0  0  0  0  0  0  0  0  0  0
    2.3452    3.7414   25.0303 C   0  0  1  0  0  0  0  0  0  0  0  0
   -0.2963    0.6002   25.1303 C   0  0  1  0  0  0  0  0  0  0  0  0
    6.3254    3.4556   27.0479 C   0  0  2  0  0  0  0  0  0  0  0  0
    5.7017    2.9900   25.7910 N   0  0  0  0  0  0  0  0  0  0  0  0
    5.3503    7.9505   23.3837 C   0  0  0  0  0  0  0  0  0  0  0  0
    2.4465    2.2315   25.2622 C   0  0  2  0  0  0  0  0  0  0  0  0
    2.1421    1.5410   24.0498 O   0  0  0  0  0  0  0  0  0  0  0  0
   -1.4196    0.7468   24.0589 C   0  0  2  0  0  0  0  0  0  0  0  0
   -2.5556    1.5753   24.5317 N   0  0  0  0  0  0  0  0  0  0  0  0
    5.3813    3.1726   28.2582 C   0  0  1  0  0  0  0  0  0  0  0  0
    5.1842    1.7691   28.4103 O   0  0  0  0  0  0  0  0  0  0  0  0
    5.7976    7.4711   24.7918 C   0  0  2  0  0  0  0  0  0  0  0  0
    7.2636    7.6343   24.8796 N   0  0  0  0  0  0  0  0  0  0  0  0
    1.3626    2.0032   26.3193 C   0  0  2  0  0  0  0  0  0  0  0  0
    0.0421    1.8821   25.7209 O   0  0  0  0  0  0  0  0  0  0  0  0
   -1.9038   -0.6519   23.5666 C   0  0  1  0  0  0  0  0  0  0  0  0
   -0.8948   -1.2120   22.7290 O   0  0  0  0  0  0  0  0  0  0  0  0
    5.9567    3.7356   29.5819 C   0  0  2  0  0  0  0  0  0  0  0  0
    5.0100    3.5285   30.6257 O   0  0  0  0  0  0  0  0  0  0  0  0
    5.3653    5.9921   25.0983 C   0  0  2  0  0  0  0  0  0  0  0  0
    1.4587    3.2836   27.1606 C   0  0  2  0  0  0  0  0  0  0  0  0
    1.8628    4.3254   26.2510 O   0  0  0  0  0  0  0  0  0  0  0  0
   -2.2009   -1.6630   24.7152 C   0  0  2  0  0  0  0  0  0  0  0  0
   -3.4175   -1.2770   25.3567 O   0  0  0  0  0  0  0  0  0  0  0  0
    6.2813    5.2488   29.4295 C   0  0  2  0  0  0  0  0  0  0  0  0
    7.1625    5.4356   28.2813 O   0  0  0  0  0  0  0  0  0  0  0  0
    3.8654    5.7040   24.7276 C   0  0  2  0  0  0  0  0  0  0  0  0
    3.6689    4.2660   24.7265 O   0  0  0  0  0  0  0  0  0  0  0  0
    2.4674    3.1708   28.3175 C   0  0  0  0  0  0  0  0  0  0  0  0
    2.4606    4.3454   29.1099 O   0  0  0  0  0  0  0  0  0  0  0  0
   -1.0316   -1.6877   25.7478 C   0  0  1  0  0  0  0  0  0  0  0  0
   -0.7323   -0.3261   26.1825 O   0  0  0  0  0  0  0  0  0  0  0  0
    6.9955    5.8844   30.6431 C   0  0  0  0  0  0  0  0  0  0  0  0
    6.1766    5.8482   31.7996 O   0  0  0  0  0  0  0  0  0  0  0  0
    3.4691    6.2547   23.3226 C   0  0  1  0  0  0  0  0  0  0  0  0
    2.0615    6.0992   23.1487 O   0  0  0  0  0  0  0  0  0  0  0  0
   -1.3500   -2.5569   26.9913 C   0  0  0  0  0  0  0  0  0  0  0  0
   -2.3825   -1.9518   27.8520 N   0  0  0  0  0  0  0  0  0  0  0  0
  1  2  1  1  0  0  0
  1  7  1  0  0  0  0
  1 30  1  0  0  0  0
  3  4  1  6  0  0  0
  3  9  1  0  0  0  0
  3 39  1  0  0  0  0
  5 10  1  0  0  0  0
  5 26  1  0  0  0  0
  5 32  1  1  0  0  0
  6 12  1  0  0  0  0
  6 36  1  0  0  0  0
  6 19  1  1  0  0  0
  7  8  1  6  0  0  0
  7 14  1  0  0  0  0
  9 16  1  0  0  0  0
 10 11  1  6  0  0  0
 10 18  1  0  0  0  0
 12 13  1  1  0  0  0
 12 20  1  0  0  0  0
 14 15  1  1  0  0  0
 14 22  1  0  0  0  0
 16 17  1  6  0  0  0
 16 24  1  0  0  0  0
 18 19  1  6  0  0  0
 18 25  1  0  0  0  0
 20 21  1  6  0  0  0
 20 27  1  0  0  0  0
 22 23  1  1  0  0  0
 22 29  1  0  0  0  0
 24  2  1  1  0  0  0
 24 31  1  0  0  0  0
 25 26  1  0  0  0  0
 25 33  1  1  0  0  0
 27 28  1  1  0  0  0
 27 35  1  0  0  0  0
 29 30  1  0  0  0  0
 29 37  1  1  0  0  0
 31 32  1  6  0  0  0
 31 39  1  0  0  0  0
 33 34  1  0  0  0  0
 35 36  1  0  0  0  0
 35 41  1  1  0  0  0
 37 38  1  0  0  0  0
 39 40  1  1  0  0  0
 41 42  1  0  0  0  0
M  END
>  <CHROM.1>
-88.93152438,-105.24554355,66.10979153,-43.72996739,170.94710088,-162.09492911
-49.95758611,69.68621456,79.41859180,-156.89178219,56.37803250,-55.63155327
-176.48250235,59.45192782,-63.45180389,151.86251776,-168.07611774,60.06992358
-69.94549870,55.21068598,80.12117441,169.00127332,2.70934480,3.25112469,26.13004977
-0.21166221,0.71731648,2.14631447

>  <Name>
1fyp_lig

>  <RI>
0

>  <Rbt.Current_Directory>
/home/itssahil/PROJECTS/Mol_Feturizer/New_Systems/rnas/1fyp

>  <Rbt.Executable>
rbdock ($Id: //depot/dev/client3/rdock/2013.1/src/exe/rbdock.cxx#4 $)

>  <Rbt.Library>
libRbt.so (2013.1, Build901 2013/11/27)

>  <Rbt.Parameter_File>
/export/apps/rDock/src/rDock_2013.1_src/data/scripts/dock_solv.prm

>  <Rbt.Receptor>
prm/pocket_docking_6.prm

>  <SCORE>
-62.1471

>  <SCORE.INTER>
-46.382

>  <SCORE.INTER.CONST>
1

>  <SCORE.INTER.POLAR>
-6.32327

>  <SCORE.INTER.ROT>
14

>  <SCORE.INTER.SOLV>
18.2906

>  <SCORE.INTER.VDW>
-28.874

>  <SCORE.INTER.norm>
-1.10433

>  <SCORE.INTRA>
-15.7651

>  <SCORE.INTRA.DIHEDRAL>
-26.2831

>  <SCORE.INTRA.DIHEDRAL.0>
48.7173

>  <SCORE.INTRA.POLAR>
-1.45819

>  <SCORE.INTRA.POLAR.0>
-1.54691

>  <SCORE.INTRA.REPUL>
0

>  <SCORE.INTRA.REPUL.0>
0

>  <SCORE.INTRA.SOLV>
1.50668

>  <SCORE.INTRA.SOLV.lig_0>
-64.052

>  <SCORE.INTRA.VDW>
1.58093

>  <SCORE.INTRA.VDW.0>
-7.0667

>  <SCORE.INTRA.norm>
-0.375359

>  <SCORE.RESTR>
0

>  <SCORE.RESTR.CAVITY>
0

>  <SCORE.RESTR.norm>
0

>  <SCORE.SYSTEM>
0

>  <SCORE.SYSTEM.CONST>
0

>  <SCORE.SYSTEM.DIHEDRAL>
0

>  <SCORE.SYSTEM.SOLV>
0

>  <SCORE.SYSTEM.norm>
0

>  <SCORE.heavy>
42

>  <SCORE.norm>
-1.47969

>  <RMSD>
2.697

$$$$
1fyp_lig
 OpenBabel11021811393D
libRbt.so/2013.1/901 2013/11/27
 42 45  0  0  0  0  0  0  0  0999 V2000
    6.6730    4.8668   26.9454 C   0  0  2  0  0  0  0  0  0  0  0  0
    5.4691    5.5667   26.5175 O   0  0  0  0  0  0  0  0  0  0  0  0
    3.7502    7.6872   23.2328 C   0  0  2  0  0  0  0  0  0  0  0  0
    3.3935    8.2483   21.9166 N   0  0  0  0  0  0  0  0  0  0  0  0
    2.2634    3.5865   24.6668 C   0  0  1  0  0  0  0  0  0  0  0  0
   -0.9971    0.5557   24.4354 C   0  0  1  0  0  0  0  0  0  0  0  0
    6.4055    3.3410   27.1513 C   0  0  2  0  0  0  0  0  0  0  0  0
    5.7385    2.7495   25.9719 N   0  0  0  0  0  0  0  0  0  0  0  0
    5.2557    7.8983   23.4894 C   0  0  0  0  0  0  0  0  0  0  0  0
    2.3052    2.1078   24.2725 C   0  0  2  0  0  0  0  0  0  0  0  0
    2.0231    1.9775   22.8786 O   0  0  0  0  0  0  0  0  0  0  0  0
   -2.4325    0.9507   23.9720 C   0  0  2  0  0  0  0  0  0  0  0  0
   -2.9612    2.1332   24.6949 N   0  0  0  0  0  0  0  0  0  0  0  0
    5.5536    3.0941   28.4356 C   0  0  1  0  0  0  0  0  0  0  0  0
    5.4526    1.6966   28.6975 O   0  0  0  0  0  0  0  0  0  0  0  0
    5.6978    7.3537   24.8751 C   0  0  2  0  0  0  0  0  0  0  0  0
    7.1607    7.5318   24.9844 N   0  0  0  0  0  0  0  0  0  0  0  0
    1.1756    1.5238   25.1254 C   0  0  2  0  0  0  0  0  0  0  0  0
   -0.1251    1.7140   24.5020 O   0  0  0  0  0  0  0  0  0  0  0  0
   -3.4057   -0.2633   24.0822 C   0  0  1  0  0  0  0  0  0  0  0  0
   -3.1007   -1.1852   23.0378 O   0  0  0  0  0  0  0  0  0  0  0  0
    6.1703    3.7848   29.6778 C   0  0  2  0  0  0  0  0  0  0  0  0
    5.3014    3.6012   30.7913 O   0  0  0  0  0  0  0  0  0  0  0  0
    5.2836    5.8553   25.1020 C   0  0  2  0  0  0  0  0  0  0  0  0
    1.2833    2.3524   26.4131 C   0  0  2  0  0  0  0  0  0  0  0  0
    1.7557    3.6521   26.0091 O   0  0  0  0  0  0  0  0  0  0  0  0
   -3.3253   -1.0221   25.4415 C   0  0  2  0  0  0  0  0  0  0  0  0
   -3.9414   -0.2173   26.4481 O   0  0  0  0  0  0  0  0  0  0  0  0
    6.3916    5.2987   29.4000 C   0  0  2  0  0  0  0  0  0  0  0  0
    7.1905    5.4508   28.1881 O   0  0  0  0  0  0  0  0  0  0  0  0
    3.7909    5.5664   24.7036 C   0  0  2  0  0  0  0  0  0  0  0  0
    3.6144    4.1278   24.6275 O   0  0  0  0  0  0  0  0  0  0  0  0
    2.2438    1.7381   27.4469 C   0  0  0  0  0  0  0  0  0  0  0  0
    1.6164    1.6204   28.7119 O   0  0  0  0  0  0  0  0  0  0  0  0
   -1.8420   -1.3199   25.8228 C   0  0  1  0  0  0  0  0  0  0  0  0
   -1.0609   -0.0880   25.7533 O   0  0  0  0  0  0  0  0  0  0  0  0
    7.1358    6.0616   30.5187 C   0  0  0  0  0  0  0  0  0  0  0  0
    7.2743    7.4360   30.2005 O   0  0  0  0  0  0  0  0  0  0  0  0
    3.3987    6.1828   23.3249 C   0  0  1  0  0  0  0  0  0  0  0  0
    1.9949    6.0174   23.1308 O   0  0  0  0  0  0  0  0  0  0  0  0
   -1.6999   -1.9294   27.2410 C   0  0  0  0  0  0  0  0  0  0  0  0
   -2.1554   -1.0084   28.2980 N   0  0  0  0  0  0  0  0  0  0  0  0
  1  2  1  1  0  0  0
  1  7  1  0  0  0  0
  1 30  1  0  0  0  0
  3  4  1  6  0  0  0
  3  9  1  0  0  0  0
  3 39  1  0  0  0  0
  5 10  1  0  0  0  0
  5 26  1  0  0  0  0
  5 32  1  1  0  0  0
  6 12  1  0  0  0  0
  6 36  1  0  0  0  0
  6 19  1  1  0  0  0
  7  8  1  6  0  0  0
  7 14  1  0  0  0  0
  9 16  1  0  0  0  0
 10 11  1  6  0  0  0
 10 18  1  0  0  0  0
 12 13  1  1  0  0  0
 12 20  1  0  0  0  0
 14 15  1  1  0  0  0
 14 22  1  0  0  0  0
 16 17  1  6  0  0  0
 16 24  1  0  0  0  0
 18 19  1  6  0  0  0
 18 25  1  0  0  0  0
 20 21  1  6  0  0  0
 20 27  1  0  0  0  0
 22 23  1  1  0  0  0
 22 29  1  0  0  0  0
 24  2  1  1  0  0  0
 24 31  1  0  0  0  0
 25 26  1  0  0  0  0
 25 33  1  1  0  0  0
 27 28  1  1  0  0  0
 27 35  1  0  0  0  0
 29 30  1  0  0  0  0
 29 37  1  1  0  0  0
 31 32  1  6  0  0  0
 31 39  1  0  0  0  0
 33 34  1  0  0  0  0
 35 36  1  0  0  0  0
 35 41  1  1  0  0  0
 37 38  1  0  0  0  0
 39 40  1  1  0  0  0
 41 42  1  0  0  0  0
M  END
>  <CHROM.1>
-98.61025249,-99.58209963,-51.56487774,-47.16101948,173.90006105,170.13761214
-75.82035393,-61.42485614,132.00735474,170.30812562,63.28778933,-55.78915355
-128.35462152,67.01413835,-178.89129525,162.11565881,167.90048674,85.51613802
-63.14183447,60.33177048,80.78057582,13.90233184,2.49666349,3.23702609,25.99816985
-0.20054701,0.62622968,2.18014330

>  <Name>
1fyp_lig

>  <RI>
0

>  <Rbt.Current_Directory>
/home/itssahil/PROJECTS/Mol_Feturizer/New_Systems/rnas/1fyp

>  <Rbt.Executable>
rbdock ($Id: //depot/dev/client3/rdock/2013.1/src/exe/rbdock.cxx#4 $)

>  <Rbt.Library>
libRbt.so (2013.1, Build901 2013/11/27)

>  <Rbt.Parameter_File>
/export/apps/rDock/src/rDock_2013.1_src/data/scripts/dock_solv.prm

>  <Rbt.Receptor>
prm/pocket_docking_4.prm

>  <SCORE>
-43.1617

>  <SCORE.INTER>
-35.1858

>  <SCORE.INTER.CONST>
1

>  <SCORE.INTER.POLAR>
-6.51862

>  <SCORE.INTER.ROT>
14

>  <SCORE.INTER.SOLV>
20.6286

>  <SCORE.INTER.VDW>
-21.538

>  <SCORE.INTER.norm>
-0.837756

>  <SCORE.INTRA>
-7.99736

>  <SCORE.INTRA.DIHEDRAL>
-14.7951

>  <SCORE.INTRA.DIHEDRAL.0>
48.7173

>  <SCORE.INTRA.POLAR>
-0.212791

>  <SCORE.INTRA.POLAR.0>
-1.54691

>  <SCORE.INTRA.REPUL>
0

>  <SCORE.INTRA.REPUL.0>
0

>  <SCORE.INTRA.SOLV>
-1.80346

>  <SCORE.INTRA.SOLV.lig_0>
-64.052

>  <SCORE.INTRA.VDW>
1.0254

>  <SCORE.INTRA.VDW.0>
-7.0667

>  <SCORE.INTRA.norm>
-0.190413

>  <SCORE.RESTR>
0.0213953

>  <SCORE.RESTR.CAVITY>
0.0213953

>  <SCORE.RESTR.norm>
0.000509412

>  <SCORE.SYSTEM>
0

>  <SCORE.SYSTEM.CONST>
0

>  <SCORE.SYSTEM.DIHEDRAL>
0

>  <SCORE.SYSTEM.SOLV>
0

>  <SCORE.SYSTEM.norm>
0

>  <SCORE.heavy>
42

>  <SCORE.norm>
-1.02766

>  <RMSD>
2.714

$$$$
1fyp_lig
 OpenBabel11021811393D
libRbt.so/2013.1/901 2013/11/27
 42 45  0  0  0  0  0  0  0  0999 V2000
    6.8333    5.2553   29.2965 C   0  0  2  0  0  0  0  0  0  0  0  0
    5.5958    5.7676   28.7234 O   0  0  0  0  0  0  0  0  0  0  0  0
    4.0900    7.6504   25.1980 C   0  0  2  0  0  0  0  0  0  0  0  0
    3.8233    8.1248   23.8275 N   0  0  0  0  0  0  0  0  0  0  0  0
    2.6322    3.6013   26.4236 C   0  0  1  0  0  0  0  0  0  0  0  0
   -0.4731    0.4632   25.8400 C   0  0  1  0  0  0  0  0  0  0  0  0
    6.5628    4.0637   30.2706 C   0  0  2  0  0  0  0  0  0  0  0  0
    5.7087    3.0365   29.6372 N   0  0  0  0  0  0  0  0  0  0  0  0
    5.5672    7.9124   25.5531 C   0  0  0  0  0  0  0  0  0  0  0  0
    2.6860    2.0848   26.6267 C   0  0  2  0  0  0  0  0  0  0  0  0
    3.0139    1.4492   25.3905 O   0  0  0  0  0  0  0  0  0  0  0  0
   -0.4380   -0.1886   24.4240 C   0  0  2  0  0  0  0  0  0  0  0  0
   -0.6199    0.8015   23.3345 N   0  0  0  0  0  0  0  0  0  0  0  0
    5.9116    4.5665   31.5970 C   0  0  1  0  0  0  0  0  0  0  0  0
    5.8173    3.4970   32.5346 O   0  0  0  0  0  0  0  0  0  0  0  0
    5.9134    7.4605   26.9982 C   0  0  2  0  0  0  0  0  0  0  0  0
    7.3600    7.6799   27.2055 N   0  0  0  0  0  0  0  0  0  0  0  0
    1.2471    1.7735   27.0474 C   0  0  2  0  0  0  0  0  0  0  0  0
    0.3639    1.6475   25.8982 O   0  0  0  0  0  0  0  0  0  0  0  0
   -1.4791   -1.3454   24.3189 C   0  0  1  0  0  0  0  0  0  0  0  0
   -0.9968   -2.4589   25.0680 O   0  0  0  0  0  0  0  0  0  0  0  0
    6.7281    5.7152   32.2404 C   0  0  2  0  0  0  0  0  0  0  0  0
    6.0355    6.1902   33.3908 O   0  0  0  0  0  0  0  0  0  0  0  0
    5.5126    5.9684   27.2832 C   0  0  2  0  0  0  0  0  0  0  0  0
    0.8796    3.0114   27.8774 C   0  0  2  0  0  0  0  0  0  0  0  0
    1.6101    4.1088   27.2962 O   0  0  0  0  0  0  0  0  0  0  0  0
   -2.8967   -0.9762   24.8517 C   0  0  2  0  0  0  0  0  0  0  0  0
   -3.5206   -0.0989   23.9127 O   0  0  0  0  0  0  0  0  0  0  0  0
    6.9416    6.8657   31.2162 C   0  0  2  0  0  0  0  0  0  0  0  0
    7.5491    6.3219   30.0058 O   0  0  0  0  0  0  0  0  0  0  0  0
    4.0605    5.6207   26.7926 C   0  0  2  0  0  0  0  0  0  0  0  0
    3.9186    4.1763   26.7901 O   0  0  0  0  0  0  0  0  0  0  0  0
    1.2384    2.8670   29.3671 C   0  0  0  0  0  0  0  0  0  0  0  0
    2.6245    3.0749   29.5751 O   0  0  0  0  0  0  0  0  0  0  0  0
   -2.8016   -0.2897   26.2496 C   0  0  1  0  0  0  0  0  0  0  0  0
   -1.8541    0.8198   26.1878 O   0  0  0  0  0  0  0  0  0  0  0  0
    7.8668    8.0036   31.7024 C   0  0  0  0  0  0  0  0  0  0  0  0
    7.8531    9.0985   30.8022 O   0  0  0  0  0  0  0  0  0  0  0  0
    3.7621    6.1459   25.3539 C   0  0  1  0  0  0  0  0  0  0  0  0
    2.3806    5.9357   25.0658 O   0  0  0  0  0  0  0  0  0  0  0  0
   -4.1697    0.2409   26.7496 C   0  0  0  0  0  0  0  0  0  0  0  0
   -5.2261   -0.7858   26.6949 N   0  0  0  0  0  0  0  0  0  0  0  0
  1  2  1  1  0  0  0
  1  7  1  0  0  0  0
  1 30  1  0  0  0  0
  3  4  1  6  0  0  0
  3  9  1  0  0  0  0
  3 39  1  0  0  0  0
  5 10  1  0  0  0  0
  5 26  1  0  0  0  0
  5 32  1  1  0  0  0
  6 12  1  0  0  0  0
  6 36  1  0  0  0  0
  6 19  1  6  0  0  0
  7  8  1  6  0  0  0
  7 14  1  0  0  0  0
  9 16  1  0  0  0  0
 10 11  1  6  0  0  0
 10 18  1  0  0  0  0
 12 13  1  6  0  0  0
 12 20  1  0  0  0  0
 14 15  1  1  0  0  0
 14 22  1  0  0  0  0
 16 17  1  6  0  0  0
 16 24  1  0  0  0  0
 18 19  1  6  0  0  0
 18 25  1  0  0  0  0
 20 21  1  1  0  0  0
 20 27  1  0  0  0  0
 22 23  1  1  0  0  0
 22 29  1  0  0  0  0
 24  2  1  1  0  0  0
 24 31  1  0  0  0  0
 25 26  1  0  0  0  0
 25 33  1  1  0  0  0
 27 28  1  6  0  0  0
 27 35  1  0  0  0  0
 29 30  1  0  0  0  0
 29 37  1  1  0  0  0
 31 32  1  6  0  0  0
 31 39  1  0  0  0  0
 33 34  1  0  0  0  0
 35 36  1  0  0  0  0
 35 41  1  6  0  0  0
 37 38  1  0  0  0  0
 39 40  1  1  0  0  0
 41 42  1  0  0  0  0
M  END
>  <CHROM.1>
-131.00887543,-93.08152931,69.03940188,-74.21982639,156.42832904,-25.30335290
-49.54638869,74.06723239,129.69982627,-133.81938430,-174.10922339,64.78841521
78.17476764,169.32116528,-171.30390480,177.48050668,-174.47464503,65.43497956
51.50020757,-178.82786446,-58.81327379,174.25910322,2.78823791,3.68128877
27.50321303,0.07807088,0.75162511,2.04599432

>  <Name>
1fyp_lig

>  <RI>
0

>  <Rbt.Current_Directory>
/home/itssahil/PROJECTS/Mol_Feturizer/New_Systems/rnas/1fyp

>  <Rbt.Executable>
rbdock ($Id: //depot/dev/client3/rdock/2013.1/src/exe/rbdock.cxx#4 $)

>  <Rbt.Library>
libRbt.so (2013.1, Build901 2013/11/27)

>  <Rbt.Parameter_File>
/export/apps/rDock/src/rDock_2013.1_src/data/scripts/dock_solv.prm

>  <Rbt.Receptor>
prm/pocket_docking_6.prm

>  <SCORE>
-36.9499

>  <SCORE.INTER>
-28.1963

>  <SCORE.INTER.CONST>
1

>  <SCORE.INTER.POLAR>
-4.10799

>  <SCORE.INTER.ROT>
14

>  <SCORE.INTER.SOLV>
11.6199

>  <SCORE.INTER.VDW>
-21.9108

>  <SCORE.INTER.norm>
-0.67134

>  <SCORE.INTRA>
-8.75364

>  <SCORE.INTRA.DIHEDRAL>
-16.874

>  <SCORE.INTRA.DIHEDRAL.0>
48.7173

>  <SCORE.INTRA.POLAR>
-0.497173

>  <SCORE.INTRA.POLAR.0>
-1.54691

>  <SCORE.INTRA.REPUL>
0

>  <SCORE.INTRA.REPUL.0>
0

>  <SCORE.INTRA.SOLV>
-0.408595

>  <SCORE.INTRA.SOLV.lig_0>
-64.052

>  <SCORE.INTRA.VDW>
1.57804

>  <SCORE.INTRA.VDW.0>
-7.0667

>  <SCORE.INTRA.norm>
-0.20842

>  <SCORE.RESTR>
0

>  <SCORE.RESTR.CAVITY>
0

>  <SCORE.RESTR.norm>
0

>  <SCORE.SYSTEM>
0

>  <SCORE.SYSTEM.CONST>
0

>  <SCORE.SYSTEM.DIHEDRAL>
0

>  <SCORE.SYSTEM.SOLV>
0

>  <SCORE.SYSTEM.norm>
0

>  <SCORE.heavy>
42

>  <SCORE.norm>
-0.87976

>  <RMSD>
2.716

$$$$
1fyp_lig
 OpenBabel11021811393D
libRbt.so/2013.1/901 2013/11/27
 42 45  0  0  0  0  0  0  0  0999 V2000
    5.4431    7.0423   27.3830 C   0  0  2  0  0  0  0  0  0  0  0  0
    5.8783    6.0147   26.4465 O   0  0  0  0  0  0  0  0  0  0  0  0
    3.7038    7.6937   23.1764 C   0  0  2  0  0  0  0  0  0  0  0  0
    3.1822    8.0996   21.8583 N   0  0  0  0  0  0  0  0  0  0  0  0
    2.7227    3.6832   25.3929 C   0  0  1  0  0  0  0  0  0  0  0  0
   -0.1810    0.5180   26.6065 C   0  0  1  0  0  0  0  0  0  0  0  0
    6.5764    7.4133   28.3930 C   0  0  2  0  0  0  0  0  0  0  0  0
    7.8413    7.7188   27.6912 N   0  0  0  0  0  0  0  0  0  0  0  0
    5.2089    8.0186   23.2547 C   0  0  0  0  0  0  0  0  0  0  0  0
    2.8009    2.1659   25.2043 C   0  0  2  0  0  0  0  0  0  0  0  0
    2.1648    1.8041   23.9780 O   0  0  0  0  0  0  0  0  0  0  0  0
    0.3580   -0.7949   25.9609 C   0  0  2  0  0  0  0  0  0  0  0  0
    0.5711   -0.6669   24.4985 N   0  0  0  0  0  0  0  0  0  0  0  0
    6.7952    6.2667   29.4290 C   0  0  1  0  0  0  0  0  0  0  0  0
    7.7156    6.6821   30.4351 O   0  0  0  0  0  0  0  0  0  0  0  0
    5.8209    7.6410   24.6313 C   0  0  2  0  0  0  0  0  0  0  0  0
    7.2716    7.9161   24.5712 N   0  0  0  0  0  0  0  0  0  0  0  0
    2.0088    1.6585   26.4124 C   0  0  2  0  0  0  0  0  0  0  0  0
    0.5755    1.6748   26.1636 O   0  0  0  0  0  0  0  0  0  0  0  0
   -0.5726   -2.0012   26.2951 C   0  0  1  0  0  0  0  0  0  0  0  0
   -0.3835   -2.3543   27.6637 O   0  0  0  0  0  0  0  0  0  0  0  0
    5.4704    5.8496   30.1154 C   0  0  2  0  0  0  0  0  0  0  0  0
    5.7208    4.7424   30.9757 O   0  0  0  0  0  0  0  0  0  0  0  0
    5.5358    6.1504   25.0374 C   0  0  2  0  0  0  0  0  0  0  0  0
    2.3805    2.6824   27.4941 C   0  0  2  0  0  0  0  0  0  0  0  0
    2.5952    3.9282   26.8027 O   0  0  0  0  0  0  0  0  0  0  0  0
   -2.0887   -1.7169   26.0698 C   0  0  2  0  0  0  0  0  0  0  0  0
   -2.3417   -1.6901   24.6641 O   0  0  0  0  0  0  0  0  0  0  0  0
    4.4011    5.4823   29.0477 C   0  0  2  0  0  0  0  0  0  0  0  0
    4.2531    6.5960   28.1163 O   0  0  0  0  0  0  0  0  0  0  0  0
    4.0351    5.7349   24.8246 C   0  0  2  0  0  0  0  0  0  0  0  0
    3.9522    4.2878   24.9003 O   0  0  0  0  0  0  0  0  0  0  0  0
    3.6415    2.2925   28.2857 C   0  0  0  0  0  0  0  0  0  0  0  0
    3.4410    1.0792   28.9894 O   0  0  0  0  0  0  0  0  0  0  0  0
   -2.4998   -0.3582   26.7173 C   0  0  1  0  0  0  0  0  0  0  0  0
   -1.5970    0.6953   26.2616 O   0  0  0  0  0  0  0  0  0  0  0  0
    2.9936    5.1888   29.6134 C   0  0  0  0  0  0  0  0  0  0  0  0
    2.3346    6.3830   29.9995 O   0  0  0  0  0  0  0  0  0  0  0  0
    3.4682    6.1874   23.4431 C   0  0  1  0  0  0  0  0  0  0  0  0
    2.0670    5.9202   23.4119 O   0  0  0  0  0  0  0  0  0  0  0  0
   -3.9585    0.0464   26.3833 C   0  0  0  0  0  0  0  0  0  0  0  0
   -4.9472   -0.7031   27.1794 N   0  0  0  0  0  0  0  0  0  0  0  0
  1  2  1  6  0  0  0
  1  7  1  0  0  0  0
  1 30  1  0  0  0  0
  3  4  1  6  0  0  0
  3  9  1  0  0  0  0
  3 39  1  0  0  0  0
  5 10  1  0  0  0  0
  5 26  1  0  0  0  0
  5 32  1  1  0  0  0
  6 12  1  0  0  0  0
  6 36  1  0  0  0  0
  6 19  1  6  0  0  0
  7  8  1  6  0  0  0
  7 14  1  0  0  0  0
  9 16  1  0  0  0  0
 10 11  1  6  0  0  0
 10 18  1  0  0  0  0
 12 13  1  6  0  0  0
 12 20  1  0  0  0  0
 14 15  1  1  0  0  0
 14 22  1  0  0  0  0
 16 17  1  6  0  0  0
 16 24  1  0  0  0  0
 18 19  1  6  0  0  0
 18 25  1  0  0  0  0
 20 21  1  1  0  0  0
 20 27  1  0  0  0  0
 22 23  1  1  0  0  0
 22 29  1  0  0  0  0
 24  2  1  1  0  0  0
 24 31  1  0  0  0  0
 25 26  1  0  0  0  0
 25 33  1  6  0  0  0
 27 28  1  6  0  0  0
 27 35  1  0  0  0  0
 29 30  1  0  0  0  0
 29 37  1  1  0  0  0
 31 32  1  6  0  0  0
 31 39  1  0  0  0  0
 33 34  1  0  0  0  0
 35 36  1  0  0  0  0
 35 41  1  6  0  0  0
 37 38  1  0  0  0  0
 39 40  1  1  0  0  0
 41 42  1  0  0  0  0
M  END
>  <CHROM.1>
-137.09582933,44.77548119,-64.10908297,86.01754870,82.19651231,79.70113371
58.34267633,159.88377919,137.10188764,-57.66793210,54.41727005,56.85491496
-62.63272922,65.76294148,74.99965516,149.85617832,172.43192396,-63.46373129
77.17379926,-176.35820014,-56.14824477,68.10914597,2.71352902,3.67230550
26.54156930,-0.22536497,0.78435871,1.97507474

>  <Name>
1fyp_lig

>  <RI>
0

>  <Rbt.Current_Directory>
/home/itssahil/PROJECTS/Mol_Feturizer/New_Systems/rnas/1fyp

>  <Rbt.Executable>
rbdock ($Id: //depot/dev/client3/rdock/2013.1/src/exe/rbdock.cxx#4 $)

>  <Rbt.Library>
libRbt.so (2013.1, Build901 2013/11/27)

>  <Rbt.Parameter_File>
/export/apps/rDock/src/rDock_2013.1_src/data/scripts/dock_solv.prm

>  <Rbt.Receptor>
prm/blind_docking_60.prm

>  <SCORE>
-59.3482

>  <SCORE.INTER>
-48.2884

>  <SCORE.INTER.CONST>
1

>  <SCORE.INTER.POLAR>
-6.05308

>  <SCORE.INTER.ROT>
14

>  <SCORE.INTER.SOLV>
19.683

>  <SCORE.INTER.VDW>
-31.5096

>  <SCORE.INTER.norm>
-1.14972

>  <SCORE.INTRA>
-12.1586

>  <SCORE.INTRA.DIHEDRAL>
-24.9844

>  <SCORE.INTRA.DIHEDRAL.0>
48.7173

>  <SCORE.INTRA.POLAR>
-0.232303

>  <SCORE.INTRA.POLAR.0>
-1.54691

>  <SCORE.INTRA.REPUL>
0

>  <SCORE.INTRA.REPUL.0>
0

>  <SCORE.INTRA.SOLV>
-1.15067

>  <SCORE.INTRA.SOLV.lig_0>
-64.052

>  <SCORE.INTRA.VDW>
1.69878

>  <SCORE.INTRA.VDW.0>
-7.0667

>  <SCORE.INTRA.norm>
-0.28949

>  <SCORE.RESTR>
1.09881

>  <SCORE.RESTR.CAVITY>
1.09881

>  <SCORE.RESTR.norm>
0.0261621

>  <SCORE.SYSTEM>
0

>  <SCORE.SYSTEM.CONST>
0

>  <SCORE.SYSTEM.DIHEDRAL>
0

>  <SCORE.SYSTEM.SOLV>
0

>  <SCORE.SYSTEM.norm>
0

>  <SCORE.heavy>
42

>  <SCORE.norm>
-1.41305

>  <RMSD>
2.719

$$$$
1fyp_lig
 OpenBabel11021811393D
libRbt.so/2013.1/901 2013/11/27
 42 45  0  0  0  0  0  0  0  0999 V2000
    6.1684    4.2158   27.4087 C   0  0  2  0  0  0  0  0  0  0  0  0
    4.8302    4.6000   26.9796 O   0  0  0  0  0  0  0  0  0  0  0  0
    3.0657    6.6880   23.6982 C   0  0  2  0  0  0  0  0  0  0  0  0
    2.6706    7.2144   22.3786 N   0  0  0  0  0  0  0  0  0  0  0  0
    1.3957    2.7643   25.3530 C   0  0  1  0  0  0  0  0  0  0  0  0
   -2.0657    0.0311   26.0282 C   0  0  1  0  0  0  0  0  0  0  0  0
    6.1327    3.4283   28.7581 C   0  0  2  0  0  0  0  0  0  0  0  0
    5.1624    2.3142   28.7033 N   0  0  0  0  0  0  0  0  0  0  0  0
    4.5941    6.8074   23.8614 C   0  0  0  0  0  0  0  0  0  0  0  0
    1.3715    1.2555   25.6112 C   0  0  2  0  0  0  0  0  0  0  0  0
    1.2286    0.5615   24.3713 O   0  0  0  0  0  0  0  0  0  0  0  0
   -3.2430   -0.0069   25.0066 C   0  0  2  0  0  0  0  0  0  0  0  0
   -3.7788    1.3422   24.7015 N   0  0  0  0  0  0  0  0  0  0  0  0
    5.7975    4.3802   29.9488 C   0  0  1  0  0  0  0  0  0  0  0  0
    5.9246    3.6836   31.1859 O   0  0  0  0  0  0  0  0  0  0  0  0
    5.0794    6.2946   25.2448 C   0  0  2  0  0  0  0  0  0  0  0  0
    6.5546    6.3776   25.2650 N   0  0  0  0  0  0  0  0  0  0  0  0
    0.1193    1.1061   26.4796 C   0  0  2  0  0  0  0  0  0  0  0  0
   -1.0915    1.0474   25.6752 O   0  0  0  0  0  0  0  0  0  0  0  0
   -4.3707   -0.9682   25.4937 C   0  0  1  0  0  0  0  0  0  0  0  0
   -3.9203   -2.3121   25.3362 O   0  0  0  0  0  0  0  0  0  0  0  0
    6.7328    5.6149   29.9803 C   0  0  2  0  0  0  0  0  0  0  0  0
    6.3175    6.4862   31.0277 O   0  0  0  0  0  0  0  0  0  0  0  0
    4.5821    4.8390   25.5644 C   0  0  2  0  0  0  0  0  0  0  0  0
    0.1509    2.3940   27.3143 C   0  0  2  0  0  0  0  0  0  0  0  0
    0.7561    3.3956   26.4737 O   0  0  0  0  0  0  0  0  0  0  0  0
   -4.7822   -0.7632   26.9832 C   0  0  2  0  0  0  0  0  0  0  0  0
   -5.5340    0.4472   27.0842 O   0  0  0  0  0  0  0  0  0  0  0  0
    6.7018    6.3513   28.6110 C   0  0  2  0  0  0  0  0  0  0  0  0
    7.0210    5.4015   27.5499 O   0  0  0  0  0  0  0  0  0  0  0  0
    3.0532    4.6349   25.2628 C   0  0  2  0  0  0  0  0  0  0  0  0
    2.7791    3.2097   25.2643 O   0  0  0  0  0  0  0  0  0  0  0  0
    0.9506    2.2463   28.6209 C   0  0  0  0  0  0  0  0  0  0  0  0
    0.0823    2.1544   29.7368 O   0  0  0  0  0  0  0  0  0  0  0  0
   -3.5227   -0.6934   27.9014 C   0  0  1  0  0  0  0  0  0  0  0  0
   -2.5863    0.2959   27.3751 O   0  0  0  0  0  0  0  0  0  0  0  0
    7.7073    7.5168   28.4784 C   0  0  0  0  0  0  0  0  0  0  0  0
    7.3617    8.5947   29.3317 O   0  0  0  0  0  0  0  0  0  0  0  0
    2.6227    5.2163   23.8803 C   0  0  1  0  0  0  0  0  0  0  0  0
    1.2022    5.1383   23.7716 O   0  0  0  0  0  0  0  0  0  0  0  0
   -3.8709   -0.3302   29.3677 C   0  0  0  0  0  0  0  0  0  0  0  0
   -2.6934   -0.3733   30.2534 N   0  0  0  0  0  0  0  0  0  0  0  0
  1  2  1  1  0  0  0
  1  7  1  0  0  0  0
  1 30  1  0  0  0  0
  3  4  1  6  0  0  0
  3  9  1  0  0  0  0
  3 39  1  0  0  0  0
  5 10  1  0  0  0  0
  5 26  1  0  0  0  0
  5 32  1  1  0  0  0
  6 12  1  0  0  0  0
  6 36  1  0  0  0  0
  6 19  1  6  0  0  0
  7  8  1  6  0  0  0
  7 14  1  0  0  0  0
  9 16  1  0  0  0  0
 10 11  1  6  0  0  0
 10 18  1  0  0  0  0
 12 13  1  1  0  0  0
 12 20  1  0  0  0  0
 14 15  1  1  0  0  0
 14 22  1  0  0  0  0
 16 17  1  6  0  0  0
 16 24  1  0  0  0  0
 18 19  1  6  0  0  0
 18 25  1  0  0  0  0
 20 21  1  1  0  0  0
 20 27  1  0  0  0  0
 22 23  1  1  0  0  0
 22 29  1  0  0  0  0
 24  2  1  1  0  0  0
 24 31  1  0  0  0  0
 25 26  1  0  0  0  0
 25 33  1  1  0  0  0
 27 28  1  6  0  0  0
 27 35  1  0  0  0  0
 29 30  1  0  0  0  0
 29 37  1  1  0  0  0
 31 32  1  6  0  0  0
 31 39  1  0  0  0  0
 33 34  1  0  0  0  0
 35 36  1  0  0  0  0
 35 41  1  1  0  0  0
 37 38  1  0  0  0  0
 39 40  1  1  0  0  0
 41 42  1  0  0  0  0
M  END
>  <CHROM.1>
-155.45486272,-81.02919325,103.84258114,57.53072138,84.83803828,79.25848411
-55.94427949,-49.22579814,135.17283242,-174.58403906,-59.74324866,72.78678472
-104.93303269,-45.86165153,-67.93536766,164.38245758,-169.08102129,-165.25324794
175.32150676,-55.16309245,-41.97351667,125.54394061,1.81557776,3.16147609
26.86526309,-0.10889978,0.57640852,1.94569620

>  <Name>
1fyp_lig

>  <RI>
0

>  <Rbt.Current_Directory>
/home/itssahil/PROJECTS/Mol_Feturizer/New_Systems/rnas/1fyp

>  <Rbt.Executable>
rbdock ($Id: //depot/dev/client3/rdock/2013.1/src/exe/rbdock.cxx#4 $)

>  <Rbt.Library>
libRbt.so (2013.1, Build901 2013/11/27)

>  <Rbt.Parameter_File>
/export/apps/rDock/src/rDock_2013.1_src/data/scripts/dock_solv.prm

>  <Rbt.Receptor>
prm/pocket_docking_3.prm

>  <SCORE>
-34.2882

>  <SCORE.INTER>
-30.1531

>  <SCORE.INTER.CONST>
1

>  <SCORE.INTER.POLAR>
-6.62308

>  <SCORE.INTER.ROT>
14

>  <SCORE.INTER.SOLV>
21.0405

>  <SCORE.INTER.VDW>
-17.9719

>  <SCORE.INTER.norm>
-0.71793

>  <SCORE.INTRA>
-4.57579

>  <SCORE.INTRA.DIHEDRAL>
-19.2922

>  <SCORE.INTRA.DIHEDRAL.0>
48.7173

>  <SCORE.INTRA.POLAR>
0.897505

>  <SCORE.INTRA.POLAR.0>
-1.54691

>  <SCORE.INTRA.REPUL>
0.0763984

>  <SCORE.INTRA.REPUL.0>
0

>  <SCORE.INTRA.SOLV>
-2.56103

>  <SCORE.INTRA.SOLV.lig_0>
-64.052

>  <SCORE.INTRA.VDW>
2.91729

>  <SCORE.INTRA.VDW.0>
-7.0667

>  <SCORE.INTRA.norm>
-0.108947

>  <SCORE.RESTR>
0.440672

>  <SCORE.RESTR.CAVITY>
0.440672

>  <SCORE.RESTR.norm>
0.0104922

>  <SCORE.SYSTEM>
0

>  <SCORE.SYSTEM.CONST>
0

>  <SCORE.SYSTEM.DIHEDRAL>
0

>  <SCORE.SYSTEM.SOLV>
0

>  <SCORE.SYSTEM.norm>
0

>  <SCORE.heavy>
42

>  <SCORE.norm>
-0.816385

>  <RMSD>
2.734

$$$$
1fyp_lig
 OpenBabel11021811393D
libRbt.so/2013.1/901 2013/11/27
 42 45  0  0  0  0  0  0  0  0999 V2000
    7.5514    7.0079   26.8219 C   0  0  2  0  0  0  0  0  0  0  0  0
    6.3556    7.6239   26.2624 O   0  0  0  0  0  0  0  0  0  0  0  0
    4.2328    8.4867   22.6582 C   0  0  2  0  0  0  0  0  0  0  0  0
    3.7539    8.6032   21.2684 N   0  0  0  0  0  0  0  0  0  0  0  0
    3.4246    4.7425   25.0620 C   0  0  1  0  0  0  0  0  0  0  0  0
    0.0364    2.3987   26.2136 C   0  0  1  0  0  0  0  0  0  0  0  0
    7.3909    5.4587   26.9497 C   0  0  2  0  0  0  0  0  0  0  0  0
    6.9302    4.8606   25.6787 N   0  0  0  0  0  0  0  0  0  0  0  0
    5.6967    8.9637   22.7378 C   0  0  0  0  0  0  0  0  0  0  0  0
    3.6877    3.3737   25.6952 C   0  0  2  0  0  0  0  0  0  0  0  0
    3.8692    2.3993   24.6671 O   0  0  0  0  0  0  0  0  0  0  0  0
    0.1216    1.4580   27.4541 C   0  0  2  0  0  0  0  0  0  0  0  0
    0.9201    0.2360   27.1909 N   0  0  0  0  0  0  0  0  0  0  0  0
    6.4086    5.0950   28.1068 C   0  0  1  0  0  0  0  0  0  0  0  0
    6.3948    3.6850   28.3150 O   0  0  0  0  0  0  0  0  0  0  0  0
    6.2598    8.8939   24.1837 C   0  0  2  0  0  0  0  0  0  0  0  0
    7.6819    9.2926   24.1340 N   0  0  0  0  0  0  0  0  0  0  0  0
    2.3886    3.1309   26.4684 C   0  0  2  0  0  0  0  0  0  0  0  0
    1.3414    2.5983   25.6104 O   0  0  0  0  0  0  0  0  0  0  0  0
   -1.3030    1.1023   27.9806 C   0  0  1  0  0  0  0  0  0  0  0  0
   -1.8454    2.2494   28.6313 O   0  0  0  0  0  0  0  0  0  0  0  0
    6.8034    5.7855   29.4363 C   0  0  2  0  0  0  0  0  0  0  0  0
    5.8203    5.4898   30.4237 O   0  0  0  0  0  0  0  0  0  0  0  0
    6.0836    7.4770   24.8390 C   0  0  2  0  0  0  0  0  0  0  0  0
    2.0287    4.5450   26.9450 C   0  0  2  0  0  0  0  0  0  0  0  0
    2.5162    5.4416   25.9280 O   0  0  0  0  0  0  0  0  0  0  0  0
   -2.2994    0.6558   26.8681 C   0  0  2  0  0  0  0  0  0  0  0  0
   -1.9423   -0.6592   26.4395 O   0  0  0  0  0  0  0  0  0  0  0  0
    6.9282    7.3219   29.2309 C   0  0  2  0  0  0  0  0  0  0  0  0
    7.8570    7.5841   28.1363 O   0  0  0  0  0  0  0  0  0  0  0  0
    4.6396    6.8880   24.6436 C   0  0  2  0  0  0  0  0  0  0  0  0
    4.6796    5.4755   24.9747 O   0  0  0  0  0  0  0  0  0  0  0  0
    2.6530    4.8997   28.3063 C   0  0  0  0  0  0  0  0  0  0  0  0
    2.1989    4.0153   29.3160 O   0  0  0  0  0  0  0  0  0  0  0  0
   -2.2621    1.6445   25.6616 C   0  0  1  0  0  0  0  0  0  0  0  0
   -0.8821    1.8281   25.2206 O   0  0  0  0  0  0  0  0  0  0  0  0
    7.4582    8.0992   30.4565 C   0  0  0  0  0  0  0  0  0  0  0  0
    7.3491    9.4995   30.2646 O   0  0  0  0  0  0  0  0  0  0  0  0
    4.1152    7.0349   23.1814 C   0  0  1  0  0  0  0  0  0  0  0  0
    2.7468    6.6326   23.1418 O   0  0  0  0  0  0  0  0  0  0  0  0
   -3.1155    1.1574   24.4626 C   0  0  0  0  0  0  0  0  0  0  0  0
   -2.5527   -0.0453   23.8225 N   0  0  0  0  0  0  0  0  0  0  0  0
  1  2  1  1  0  0  0
  1  7  1  0  0  0  0
  1 30  1  0  0  0  0
  3  4  1  6  0  0  0
  3  9  1  0  0  0  0
  3 39  1  0  0  0  0
  5 10  1  0  0  0  0
  5 26  1  0  0  0  0
  5 32  1  1  0  0  0
  6 12  1  0  0  0  0
  6 36  1  0  0  0  0
  6 19  1  6  0  0  0
  7  8  1  6  0  0  0
  7 14  1  0  0  0  0
  9 16  1  0  0  0  0
 10 11  1  6  0  0  0
 10 18  1  0  0  0  0
 12 13  1  6  0  0  0
 12 20  1  0  0  0  0
 14 15  1  1  0  0  0
 14 22  1  0  0  0  0
 16 17  1  6  0  0  0
 16 24  1  0  0  0  0
 18 19  1  6  0  0  0
 18 25  1  0  0  0  0
 20 21  1  6  0  0  0
 20 27  1  0  0  0  0
 22 23  1  1  0  0  0
 22 29  1  0  0  0  0
 24  2  1  1  0  0  0
 24 31  1  0  0  0  0
 25 26  1  0  0  0  0
 25 33  1  1  0  0  0
 27 28  1  6  0  0  0
 27 35  1  0  0  0  0
 29 30  1  0  0  0  0
 29 37  1  1  0  0  0
 31 32  1  6  0  0  0
 31 39  1  0  0  0  0
 33 34  1  0  0  0  0
 35 36  1  0  0  0  0
 35 41  1  6  0  0  0
 37 38  1  0  0  0  0
 39 40  1  1  0  0  0
 41 42  1  0  0  0  0
M  END
>  <CHROM.1>
-74.51038584,-111.47992151,174.30475421,166.65035700,177.26825098,62.10684550
60.62367414,65.50994665,-176.55014719,-56.97623362,176.97593139,170.84700151
-60.88783040,65.50712394,-170.97438143,171.14058180,-168.47301217,-173.47272501
-67.99877326,-52.52980487,74.46145219,160.39577574,3.37331537,4.79107499
26.30436838,-0.22786694,0.65767716,1.99642236

>  <Name>
1fyp_lig

>  <RI>
0

>  <Rbt.Current_Directory>
/home/itssahil/PROJECTS/Mol_Feturizer/New_Systems/rnas/1fyp

>  <Rbt.Executable>
rbdock ($Id: //depot/dev/client3/rdock/2013.1/src/exe/rbdock.cxx#4 $)

>  <Rbt.Library>
libRbt.so (2013.1, Build901 2013/11/27)

>  <Rbt.Parameter_File>
/export/apps/rDock/src/rDock_2013.1_src/data/scripts/dock_solv.prm

>  <Rbt.Receptor>
prm/pocket_docking_3.prm

>  <SCORE>
-58.093

>  <SCORE.INTER>
-43.8685

>  <SCORE.INTER.CONST>
1

>  <SCORE.INTER.POLAR>
-5.11133

>  <SCORE.INTER.ROT>
14

>  <SCORE.INTER.SOLV>
16.9338

>  <SCORE.INTER.VDW>
-30.7859

>  <SCORE.INTER.norm>
-1.04449

>  <SCORE.INTRA>
-14.2245

>  <SCORE.INTRA.DIHEDRAL>
-35.5332

>  <SCORE.INTRA.DIHEDRAL.0>
48.7173

>  <SCORE.INTRA.POLAR>
0.404874

>  <SCORE.INTRA.POLAR.0>
-1.54691

>  <SCORE.INTRA.REPUL>
0

>  <SCORE.INTRA.REPUL.0>
0

>  <SCORE.INTRA.SOLV>
-0.530833

>  <SCORE.INTRA.SOLV.lig_0>
-64.052

>  <SCORE.INTRA.VDW>
2.43098

>  <SCORE.INTRA.VDW.0>
-7.0667

>  <SCORE.INTRA.norm>
-0.338678

>  <SCORE.RESTR>
0

>  <SCORE.RESTR.CAVITY>
0

>  <SCORE.RESTR.norm>
0

>  <SCORE.SYSTEM>
0

>  <SCORE.SYSTEM.CONST>
0

>  <SCORE.SYSTEM.DIHEDRAL>
0

>  <SCORE.SYSTEM.SOLV>
0

>  <SCORE.SYSTEM.norm>
0

>  <SCORE.heavy>
42

>  <SCORE.norm>
-1.38317

>  <RMSD>
2.744

$$$$
1fyp_lig
 OpenBabel11021811393D
libRbt.so/2013.1/901 2013/11/27
 42 45  0  0  0  0  0  0  0  0999 V2000
    5.8906    6.9627   27.3962 C   0  0  2  0  0  0  0  0  0  0  0  0
    6.1489    5.9102   26.4226 O   0  0  0  0  0  0  0  0  0  0  0  0
    3.9555    7.8315   23.3020 C   0  0  2  0  0  0  0  0  0  0  0  0
    3.4119    8.3182   22.0206 N   0  0  0  0  0  0  0  0  0  0  0  0
    2.7966    3.7871   25.2483 C   0  0  1  0  0  0  0  0  0  0  0  0
   -0.3199    0.7747   26.3178 C   0  0  1  0  0  0  0  0  0  0  0  0
    6.7582    6.7777   28.6828 C   0  0  2  0  0  0  0  0  0  0  0  0
    8.1853    6.5912   28.3450 N   0  0  0  0  0  0  0  0  0  0  0  0
    5.4768    8.0784   23.3406 C   0  0  0  0  0  0  0  0  0  0  0  0
    2.8598    2.2622   25.1287 C   0  0  2  0  0  0  0  0  0  0  0  0
    2.3579    1.8625   23.8528 O   0  0  0  0  0  0  0  0  0  0  0  0
   -1.4069    0.4051   25.2628 C   0  0  2  0  0  0  0  0  0  0  0  0
   -2.0986    1.5967   24.7133 N   0  0  0  0  0  0  0  0  0  0  0  0
    6.2416    5.5757   29.5338 C   0  0  1  0  0  0  0  0  0  0  0  0
    6.9380    5.5175   30.7761 O   0  0  0  0  0  0  0  0  0  0  0  0
    6.1141    7.6130   24.6784 C   0  0  2  0  0  0  0  0  0  0  0  0
    7.5740    7.8186   24.5786 N   0  0  0  0  0  0  0  0  0  0  0  0
    1.9245    1.8201   26.2575 C   0  0  2  0  0  0  0  0  0  0  0  0
    0.5293    1.8534   25.8467 O   0  0  0  0  0  0  0  0  0  0  0  0
   -2.4246   -0.6211   25.8498 C   0  0  1  0  0  0  0  0  0  0  0  0
   -1.7858   -1.8929   25.9388 O   0  0  0  0  0  0  0  0  0  0  0  0
    4.7238    5.6856   29.8245 C   0  0  2  0  0  0  0  0  0  0  0  0
    4.2979    4.5182   30.5206 O   0  0  0  0  0  0  0  0  0  0  0  0
    5.7674    6.1223   25.0331 C   0  0  2  0  0  0  0  0  0  0  0  0
    2.1957    2.8803   27.3340 C   0  0  2  0  0  0  0  0  0  0  0  0
    2.5165    4.0922   26.6239 O   0  0  0  0  0  0  0  0  0  0  0  0
   -2.9631   -0.2457   27.2637 C   0  0  2  0  0  0  0  0  0  0  0  0
   -3.8777    0.8431   27.1270 O   0  0  0  0  0  0  0  0  0  0  0  0
    3.9302    5.8518   28.4976 C   0  0  2  0  0  0  0  0  0  0  0  0
    4.4687    6.9885   27.7574 O   0  0  0  0  0  0  0  0  0  0  0  0
    4.2413    5.7906   24.8563 C   0  0  2  0  0  0  0  0  0  0  0  0
    4.0878    4.3475   24.8759 O   0  0  0  0  0  0  0  0  0  0  0  0
    3.3496    2.4993   28.2785 C   0  0  0  0  0  0  0  0  0  0  0  0
    4.5490    2.2926   27.5528 O   0  0  0  0  0  0  0  0  0  0  0  0
   -1.7918    0.1506   28.2153 C   0  0  1  0  0  0  0  0  0  0  0  0
   -0.9643    1.1701   27.5762 O   0  0  0  0  0  0  0  0  0  0  0  0
    2.4182    6.1158   28.6747 C   0  0  0  0  0  0  0  0  0  0  0  0
    1.7653    4.9998   29.2558 O   0  0  0  0  0  0  0  0  0  0  0  0
    3.6528    6.3288   23.5152 C   0  0  1  0  0  0  0  0  0  0  0  0
    2.2396    6.1324   23.5223 O   0  0  0  0  0  0  0  0  0  0  0  0
   -2.2876    0.6861   29.5830 C   0  0  0  0  0  0  0  0  0  0  0  0
   -2.6966   -0.3959   30.4967 N   0  0  0  0  0  0  0  0  0  0  0  0
  1  2  1  6  0  0  0
  1  7  1  0  0  0  0
  1 30  1  0  0  0  0
  3  4  1  6  0  0  0
  3  9  1  0  0  0  0
  3 39  1  0  0  0  0
  5 10  1  0  0  0  0
  5 26  1  0  0  0  0
  5 32  1  1  0  0  0
  6 12  1  0  0  0  0
  6 36  1  0  0  0  0
  6 19  1  6  0  0  0
  7  8  1  6  0  0  0
  7 14  1  0  0  0  0
  9 16  1  0  0  0  0
 10 11  1  6  0  0  0
 10 18  1  0  0  0  0
 12 13  1  1  0  0  0
 12 20  1  0  0  0  0
 14 15  1  1  0  0  0
 14 22  1  0  0  0  0
 16 17  1  6  0  0  0
 16 24  1  0  0  0  0
 18 19  1  6  0  0  0
 18 25  1  0  0  0  0
 20 21  1  1  0  0  0
 20 27  1  0  0  0  0
 22 23  1  6  0  0  0
 22 29  1  0  0  0  0
 24  2  1  1  0  0  0
 24 31  1  0  0  0  0
 25 26  1  0  0  0  0
 25 33  1  1  0  0  0
 27 28  1  6  0  0  0
 27 35  1  0  0  0  0
 29 30  1  0  0  0  0
 29 37  1  1  0  0  0
 31 32  1  6  0  0  0
 31 39  1  0  0  0  0
 33 34  1  0  0  0  0
 35 36  1  0  0  0  0
 35 41  1  1  0  0  0
 37 38  1  0  0  0  0
 39 40  1  1  0  0  0
 41 42  1  0  0  0  0
M  END
>  <CHROM.1>
-161.25170640,40.03425291,71.47173563,156.03874579,179.99498808,-77.10850004
-62.98061636,68.28343868,140.97770628,-146.10161590,-178.34793418,62.24464698
58.43181949,-170.87338654,-65.44772890,156.43617290,177.20566331,-67.66063117
78.90401592,50.85620410,78.40654164,-70.59038581,2.57316029,3.92095635,26.68813667
-0.26188945,0.66654196,1.86392497

>  <Name>
1fyp_lig

>  <RI>
0

>  <Rbt.Current_Directory>
/home/itssahil/PROJECTS/Mol_Feturizer/New_Systems/rnas/1fyp

>  <Rbt.Executable>
rbdock ($Id: //depot/dev/client3/rdock/2013.1/src/exe/rbdock.cxx#4 $)

>  <Rbt.Library>
libRbt.so (2013.1, Build901 2013/11/27)

>  <Rbt.Parameter_File>
/export/apps/rDock/src/rDock_2013.1_src/data/scripts/dock_solv.prm

>  <Rbt.Receptor>
prm/pocket_docking_3.prm

>  <SCORE>
-56.914

>  <SCORE.INTER>
-47.072

>  <SCORE.INTER.CONST>
1

>  <SCORE.INTER.POLAR>
-6.01203

>  <SCORE.INTER.ROT>
14

>  <SCORE.INTER.SOLV>
15.1204

>  <SCORE.INTER.VDW>
-29.3147

>  <SCORE.INTER.norm>
-1.12076

>  <SCORE.INTRA>
-9.86205

>  <SCORE.INTRA.DIHEDRAL>
-27.07

>  <SCORE.INTRA.DIHEDRAL.0>
48.7173

>  <SCORE.INTRA.POLAR>
0.462745

>  <SCORE.INTRA.POLAR.0>
-1.54691

>  <SCORE.INTRA.REPUL>
0.0751617

>  <SCORE.INTRA.REPUL.0>
0

>  <SCORE.INTRA.SOLV>
0.729615

>  <SCORE.INTRA.SOLV.lig_0>
-64.052

>  <SCORE.INTRA.VDW>
1.35902

>  <SCORE.INTRA.VDW.0>
-7.0667

>  <SCORE.INTRA.norm>
-0.234811

>  <SCORE.RESTR>
0.0200202

>  <SCORE.RESTR.CAVITY>
0.0200202

>  <SCORE.RESTR.norm>
0.000476672

>  <SCORE.SYSTEM>
0

>  <SCORE.SYSTEM.CONST>
0

>  <SCORE.SYSTEM.DIHEDRAL>
0

>  <SCORE.SYSTEM.SOLV>
0

>  <SCORE.SYSTEM.norm>
0

>  <SCORE.heavy>
42

>  <SCORE.norm>
-1.35509

>  <RMSD>
2.747

$$$$
1fyp_lig
 OpenBabel11021811393D
libRbt.so/2013.1/901 2013/11/27
 42 45  0  0  0  0  0  0  0  0999 V2000
    7.2388    5.4258   29.9460 C   0  0  2  0  0  0  0  0  0  0  0  0
    6.0833    5.9120   29.2039 O   0  0  0  0  0  0  0  0  0  0  0  0
    4.9005    7.2971   25.3408 C   0  0  2  0  0  0  0  0  0  0  0  0
    4.7578    7.5837   23.9014 N   0  0  0  0  0  0  0  0  0  0  0  0
    3.2985    3.4459   27.0585 C   0  0  1  0  0  0  0  0  0  0  0  0
    0.0014    0.8374   26.3451 C   0  0  1  0  0  0  0  0  0  0  0  0
    6.8341    4.9184   31.3675 C   0  0  2  0  0  0  0  0  0  0  0  0
    5.7058    3.9657   31.2958 N   0  0  0  0  0  0  0  0  0  0  0  0
    6.3405    7.6193   25.7877 C   0  0  0  0  0  0  0  0  0  0  0  0
    3.5114    2.3018   26.0638 C   0  0  2  0  0  0  0  0  0  0  0  0
    3.2841    2.7756   24.7359 O   0  0  0  0  0  0  0  0  0  0  0  0
    0.1625   -0.6486   25.9012 C   0  0  2  0  0  0  0  0  0  0  0  0
    0.5697   -0.7798   24.4809 N   0  0  0  0  0  0  0  0  0  0  0  0
    6.4740    6.1146   32.3033 C   0  0  1  0  0  0  0  0  0  0  0  0
    6.2622    5.6511   33.6344 O   0  0  0  0  0  0  0  0  0  0  0  0
    6.5557    7.3658   27.3048 C   0  0  2  0  0  0  0  0  0  0  0  0
    7.9783    7.6260   27.6086 N   0  0  0  0  0  0  0  0  0  0  0  0
    2.4285    1.3079   26.4925 C   0  0  2  0  0  0  0  0  0  0  0  0
    1.1328    1.6418   25.9214 O   0  0  0  0  0  0  0  0  0  0  0  0
   -1.1361   -1.4606   26.1964 C   0  0  1  0  0  0  0  0  0  0  0  0
   -1.2261   -1.6765   27.6031 O   0  0  0  0  0  0  0  0  0  0  0  0
    7.5937    7.1851   32.3267 C   0  0  2  0  0  0  0  0  0  0  0  0
    7.1662    8.2878   33.1205 O   0  0  0  0  0  0  0  0  0  0  0  0
    6.1293    5.9202   27.7481 C   0  0  2  0  0  0  0  0  0  0  0  0
    2.4097    1.4900   28.0166 C   0  0  2  0  0  0  0  0  0  0  0  0
    2.7495    2.8698   28.2546 O   0  0  0  0  0  0  0  0  0  0  0  0
   -2.4462   -0.7590   25.7258 C   0  0  2  0  0  0  0  0  0  0  0  0
   -2.5163   -0.8362   24.3011 O   0  0  0  0  0  0  0  0  0  0  0  0
    7.9283    7.6488   30.8806 C   0  0  2  0  0  0  0  0  0  0  0  0
    8.2510    6.4812   30.0667 O   0  0  0  0  0  0  0  0  0  0  0  0
    4.7264    5.4954   27.1811 C   0  0  2  0  0  0  0  0  0  0  0  0
    4.5834    4.0619   27.3573 O   0  0  0  0  0  0  0  0  0  0  0  0
    3.4019    0.5673   28.7465 C   0  0  0  0  0  0  0  0  0  0  0  0
    3.1560    0.5642   30.1419 O   0  0  0  0  0  0  0  0  0  0  0  0
   -2.4725    0.7315   26.1866 C   0  0  1  0  0  0  0  0  0  0  0  0
   -1.2351    1.3923   25.7807 O   0  0  0  0  0  0  0  0  0  0  0  0
    9.1318    8.6112   30.7700 C   0  0  0  0  0  0  0  0  0  0  0  0
    9.4114    8.9330   29.4181 O   0  0  0  0  0  0  0  0  0  0  0  0
    4.5582    5.8229   25.6649 C   0  0  1  0  0  0  0  0  0  0  0  0
    3.2077    5.5619   25.2858 O   0  0  0  0  0  0  0  0  0  0  0  0
   -3.6779    1.5153   25.6071 C   0  0  0  0  0  0  0  0  0  0  0  0
   -3.8396    1.3082   24.1566 N   0  0  0  0  0  0  0  0  0  0  0  0
  1  2  1  1  0  0  0
  1  7  1  0  0  0  0
  1 30  1  0  0  0  0
  3  4  1  6  0  0  0
  3  9  1  0  0  0  0
  3 39  1  0  0  0  0
  5 10  1  0  0  0  0
  5 26  1  0  0  0  0
  5 32  1  1  0  0  0
  6 12  1  0  0  0  0
  6 36  1  0  0  0  0
  6 19  1  6  0  0  0
  7  8  1  6  0  0  0
  7 14  1  0  0  0  0
  9 16  1  0  0  0  0
 10 11  1  6  0  0  0
 10 18  1  0  0  0  0
 12 13  1  6  0  0  0
 12 20  1  0  0  0  0
 14 15  1  1  0  0  0
 14 22  1  0  0  0  0
 16 17  1  6  0  0  0
 16 24  1  0  0  0  0
 18 19  1  6  0  0  0
 18 25  1  0  0  0  0
 20 21  1  1  0  0  0
 20 27  1  0  0  0  0
 22 23  1  1  0  0  0
 22 29  1  0  0  0  0
 24  2  1  1  0  0  0
 24 31  1  0  0  0  0
 25 26  1  0  0  0  0
 25 33  1  1  0  0  0
 27 28  1  6  0  0  0
 27 35  1  0  0  0  0
 29 30  1  0  0  0  0
 29 37  1  1  0  0  0
 31 32  1  6  0  0  0
 31 39  1  0  0  0  0
 33 34  1  0  0  0  0
 35 36  1  0  0  0  0
 35 41  1  6  0  0  0
 37 38  1  0  0  0  0
 39 40  1  1  0  0  0
 41 42  1  0  0  0  0
M  END
>  <CHROM.1>
-155.70152295,-96.31503161,77.71795147,98.69436747,30.49069197,63.64877809
-68.92928060,-162.38038555,-174.97013728,-64.00280771,57.41891200,-52.18085879
-167.73672775,176.57684226,177.10106728,172.61907810,126.11682301,-152.60101002
-48.01404373,67.11002899,-59.04976585,-50.65550184,3.54607152,3.81022258
27.74835204,0.06960062,0.76465038,2.04049287

>  <Name>
1fyp_lig

>  <RI>
0

>  <Rbt.Current_Directory>
/home/itssahil/PROJECTS/Mol_Feturizer/New_Systems/rnas/1fyp

>  <Rbt.Executable>
rbdock ($Id: //depot/dev/client3/rdock/2013.1/src/exe/rbdock.cxx#4 $)

>  <Rbt.Library>
libRbt.so (2013.1, Build901 2013/11/27)

>  <Rbt.Parameter_File>
/export/apps/rDock/src/rDock_2013.1_src/data/scripts/dock_solv.prm

>  <Rbt.Receptor>
prm/pocket_docking_6.prm

>  <SCORE>
-49.9823

>  <SCORE.INTER>
-41.534

>  <SCORE.INTER.CONST>
1

>  <SCORE.INTER.POLAR>
-5.45573

>  <SCORE.INTER.ROT>
14

>  <SCORE.INTER.SOLV>
14.4617

>  <SCORE.INTER.VDW>
-27.2575

>  <SCORE.INTER.norm>
-0.988905

>  <SCORE.INTRA>
-8.44823

>  <SCORE.INTRA.DIHEDRAL>
-22.2737

>  <SCORE.INTRA.DIHEDRAL.0>
48.7173

>  <SCORE.INTRA.POLAR>
-0.806637

>  <SCORE.INTRA.POLAR.0>
-1.54691

>  <SCORE.INTRA.REPUL>
0.0556572

>  <SCORE.INTRA.REPUL.0>
0

>  <SCORE.INTRA.SOLV>
-0.227887

>  <SCORE.INTRA.SOLV.lig_0>
-64.052

>  <SCORE.INTRA.VDW>
5.26684

>  <SCORE.INTRA.VDW.0>
-7.0667

>  <SCORE.INTRA.norm>
-0.201148

>  <SCORE.RESTR>
0

>  <SCORE.RESTR.CAVITY>
0

>  <SCORE.RESTR.norm>
0

>  <SCORE.SYSTEM>
0

>  <SCORE.SYSTEM.CONST>
0

>  <SCORE.SYSTEM.DIHEDRAL>
0

>  <SCORE.SYSTEM.SOLV>
0

>  <SCORE.SYSTEM.norm>
0

>  <SCORE.heavy>
42

>  <SCORE.norm>
-1.19005

>  <RMSD>
2.748

$$$$
1fyp_lig
 OpenBabel11021811393D
libRbt.so/2013.1/901 2013/11/27
 42 45  0  0  0  0  0  0  0  0999 V2000
    5.8292    6.6343   27.7212 C   0  0  2  0  0  0  0  0  0  0  0  0
    5.9814    5.5550   26.7545 O   0  0  0  0  0  0  0  0  0  0  0  0
    4.2290    7.6995   23.5033 C   0  0  2  0  0  0  0  0  0  0  0  0
    3.8470    8.2573   22.1927 N   0  0  0  0  0  0  0  0  0  0  0  0
    2.7155    3.6548   25.3958 C   0  0  1  0  0  0  0  0  0  0  0  0
   -0.3086    0.5703   25.8417 C   0  0  1  0  0  0  0  0  0  0  0  0
    7.0279    6.6789   28.7228 C   0  0  2  0  0  0  0  0  0  0  0  0
    8.3230    6.6721   28.0098 N   0  0  0  0  0  0  0  0  0  0  0  0
    5.7499    7.8541   23.7029 C   0  0  0  0  0  0  0  0  0  0  0  0
    2.6993    2.1325   25.2342 C   0  0  2  0  0  0  0  0  0  0  0  0
    2.0973    1.7917   23.9848 O   0  0  0  0  0  0  0  0  0  0  0  0
   -0.1181    0.0956   24.3688 C   0  0  2  0  0  0  0  0  0  0  0  0
   -0.3239    1.1870   23.3855 N   0  0  0  0  0  0  0  0  0  0  0  0
    6.9571    5.4873   29.7283 C   0  0  1  0  0  0  0  0  0  0  0  0
    7.9611    5.6290   30.7301 O   0  0  0  0  0  0  0  0  0  0  0  0
    6.2203    7.3103   25.0796 C   0  0  2  0  0  0  0  0  0  0  0  0
    7.6920    7.4316   25.1340 N   0  0  0  0  0  0  0  0  0  0  0  0
    1.8197    1.7015   26.4111 C   0  0  2  0  0  0  0  0  0  0  0  0
    0.4038    1.8093   26.0946 O   0  0  0  0  0  0  0  0  0  0  0  0
   -1.0328   -1.1288   24.0569 C   0  0  1  0  0  0  0  0  0  0  0  0
   -0.4946   -2.2754   24.7120 O   0  0  0  0  0  0  0  0  0  0  0  0
    5.5755    5.4017   30.4241 C   0  0  2  0  0  0  0  0  0  0  0  0
    5.5438    4.2449   31.2544 O   0  0  0  0  0  0  0  0  0  0  0  0
    5.7562    5.8325   25.3426 C   0  0  2  0  0  0  0  0  0  0  0  0
    2.2097    2.7179   27.4934 C   0  0  2  0  0  0  0  0  0  0  0  0
    2.5400    3.9335   26.7941 O   0  0  0  0  0  0  0  0  0  0  0  0
   -2.5113   -0.9526   24.5183 C   0  0  2  0  0  0  0  0  0  0  0  0
   -3.1549   -0.0298   23.6380 O   0  0  0  0  0  0  0  0  0  0  0  0
    4.4392    5.3460   29.3640 C   0  0  2  0  0  0  0  0  0  0  0  0
    4.5710    6.4851   28.4613 O   0  0  0  0  0  0  0  0  0  0  0  0
    4.2399    5.5979   25.0019 C   0  0  2  0  0  0  0  0  0  0  0  0
    4.0045    4.1666   24.9527 O   0  0  0  0  0  0  0  0  0  0  0  0
    3.4035    2.2589   28.3495 C   0  0  0  0  0  0  0  0  0  0  0  0
    3.1483    0.9943   28.9353 O   0  0  0  0  0  0  0  0  0  0  0  0
   -2.5747   -0.4299   25.9870 C   0  0  1  0  0  0  0  0  0  0  0  0
   -1.7375    0.7591   26.1210 O   0  0  0  0  0  0  0  0  0  0  0  0
    3.0081    5.4041   29.9433 C   0  0  0  0  0  0  0  0  0  0  0  0
    2.0858    5.9010   28.9883 O   0  0  0  0  0  0  0  0  0  0  0  0
    3.8224    6.2115   23.6295 C   0  0  1  0  0  0  0  0  0  0  0  0
    2.4070    6.0995   23.4879 O   0  0  0  0  0  0  0  0  0  0  0  0
   -4.0175   -0.0857   26.4376 C   0  0  0  0  0  0  0  0  0  0  0  0
   -4.5504    1.1082   25.7567 N   0  0  0  0  0  0  0  0  0  0  0  0
  1  2  1  6  0  0  0
  1  7  1  0  0  0  0
  1 30  1  0  0  0  0
  3  4  1  6  0  0  0
  3  9  1  0  0  0  0
  3 39  1  0  0  0  0
  5 10  1  0  0  0  0
  5 26  1  0  0  0  0
  5 32  1  1  0  0  0
  6 12  1  0  0  0  0
  6 36  1  0  0  0  0
  6 19  1  6  0  0  0
  7  8  1  6  0  0  0
  7 14  1  0  0  0  0
  9 16  1  0  0  0  0
 10 11  1  6  0  0  0
 10 18  1  0  0  0  0
 12 13  1  6  0  0  0
 12 20  1  0  0  0  0
 14 15  1  1  0  0  0
 14 22  1  0  0  0  0
 16 17  1  6  0  0  0
 16 24  1  0  0  0  0
 18 19  1  6  0  0  0
 18 25  1  0  0  0  0
 20 21  1  1  0  0  0
 20 27  1  0  0  0  0
 22 23  1  6  0  0  0
 22 29  1  0  0  0  0
 24  2  1  1  0  0  0
 24 31  1  0  0  0  0
 25 26  1  0  0  0  0
 25 33  1  6  0  0  0
 27 28  1  6  0  0  0
 27 35  1  0  0  0  0
 29 30  1  0  0  0  0
 29 37  1  1  0  0  0
 31 32  1  6  0  0  0
 31 39  1  0  0  0  0
 33 34  1  0  0  0  0
 35 36  1  0  0  0  0
 35 41  1  6  0  0  0
 37 38  1  0  0  0  0
 39 40  1  1  0  0  0
 41 42  1  0  0  0  0
M  END
>  <CHROM.1>
-133.18444970,33.20229454,-34.72734568,-82.13094401,175.27960320,102.03577492
71.33170701,-36.42981989,105.43772537,-83.02175295,67.81146450,-172.06914175
-55.66615602,-159.78286414,155.52480863,146.01705953,179.26904412,-174.38384436
-69.67805856,-177.98176475,-51.82830677,-110.28188966,2.72946693,3.69599267
26.33470432,-0.02690725,0.71213912,1.97050729

>  <Name>
1fyp_lig

>  <RI>
0

>  <Rbt.Current_Directory>
/home/itssahil/PROJECTS/Mol_Feturizer/New_Systems/rnas/1fyp

>  <Rbt.Executable>
rbdock ($Id: //depot/dev/client3/rdock/2013.1/src/exe/rbdock.cxx#4 $)

>  <Rbt.Library>
libRbt.so (2013.1, Build901 2013/11/27)

>  <Rbt.Parameter_File>
/export/apps/rDock/src/rDock_2013.1_src/data/scripts/dock_solv.prm

>  <Rbt.Receptor>
prm/pocket_docking_4.prm

>  <SCORE>
-64.3061

>  <SCORE.INTER>
-59.6631

>  <SCORE.INTER.CONST>
1

>  <SCORE.INTER.POLAR>
-8.21369

>  <SCORE.INTER.ROT>
14

>  <SCORE.INTER.SOLV>
17.1183

>  <SCORE.INTER.VDW>
-31.0358

>  <SCORE.INTER.norm>
-1.42055

>  <SCORE.INTRA>
-4.64298

>  <SCORE.INTRA.DIHEDRAL>
-13.9826

>  <SCORE.INTRA.DIHEDRAL.0>
48.7173

>  <SCORE.INTRA.POLAR>
-0.929356

>  <SCORE.INTRA.POLAR.0>
-1.54691

>  <SCORE.INTRA.REPUL>
0

>  <SCORE.INTRA.REPUL.0>
0

>  <SCORE.INTRA.SOLV>
0.267919

>  <SCORE.INTRA.SOLV.lig_0>
-64.052

>  <SCORE.INTRA.VDW>
5.37415

>  <SCORE.INTRA.VDW.0>
-7.0667

>  <SCORE.INTRA.norm>
-0.110547

>  <SCORE.RESTR>
0

>  <SCORE.RESTR.CAVITY>
0

>  <SCORE.RESTR.norm>
0

>  <SCORE.SYSTEM>
0

>  <SCORE.SYSTEM.CONST>
0

>  <SCORE.SYSTEM.DIHEDRAL>
0

>  <SCORE.SYSTEM.SOLV>
0

>  <SCORE.SYSTEM.norm>
0

>  <SCORE.heavy>
42

>  <SCORE.norm>
-1.5311

>  <RMSD>
2.778

$$$$
1fyp_lig
 OpenBabel11021811393D
libRbt.so/2013.1/901 2013/11/27
 42 45  0  0  0  0  0  0  0  0999 V2000
    7.0588    6.2910   26.8239 C   0  0  2  0  0  0  0  0  0  0  0  0
    5.8003    6.9389   26.4791 O   0  0  0  0  0  0  0  0  0  0  0  0
    3.3071    8.1285   23.2219 C   0  0  2  0  0  0  0  0  0  0  0  0
    2.6546    8.3340   21.9156 N   0  0  0  0  0  0  0  0  0  0  0  0
    2.4205    4.4476   25.7182 C   0  0  1  0  0  0  0  0  0  0  0  0
   -0.9148    1.4828   25.8509 C   0  0  1  0  0  0  0  0  0  0  0  0
    6.9561    4.7369   26.6964 C   0  0  2  0  0  0  0  0  0  0  0  0
    6.4021    4.3418   25.3839 N   0  0  0  0  0  0  0  0  0  0  0  0
    4.8130    8.4344   23.0968 C   0  0  0  0  0  0  0  0  0  0  0  0
    2.2743    3.1309   24.9509 C   0  0  2  0  0  0  0  0  0  0  0  0
    1.5856    3.3684   23.7226 O   0  0  0  0  0  0  0  0  0  0  0  0
   -1.3447    1.1912   27.3210 C   0  0  2  0  0  0  0  0  0  0  0  0
   -0.1944    1.1585   28.2570 N   0  0  0  0  0  0  0  0  0  0  0  0
    6.0917    4.1401   27.8508 C   0  0  1  0  0  0  0  0  0  0  0  0
    6.1380    2.7159   27.8141 O   0  0  0  0  0  0  0  0  0  0  0  0
    5.5615    8.2643   24.4470 C   0  0  2  0  0  0  0  0  0  0  0  0
    6.9990    8.5004   24.1991 N   0  0  0  0  0  0  0  0  0  0  0  0
    1.4225    2.2996   25.9141 C   0  0  2  0  0  0  0  0  0  0  0  0
    0.0058    2.6027   25.7810 O   0  0  0  0  0  0  0  0  0  0  0  0
   -2.1820   -0.1221   27.4050 C   0  0  1  0  0  0  0  0  0  0  0  0
   -3.4756    0.1292   26.8602 O   0  0  0  0  0  0  0  0  0  0  0  0
    6.5824    4.6133   29.2421 C   0  0  2  0  0  0  0  0  0  0  0  0
    5.7001    4.1121   30.2416 O   0  0  0  0  0  0  0  0  0  0  0  0
    5.3161    6.8602   25.1077 C   0  0  2  0  0  0  0  0  0  0  0  0
    1.9459    2.7565   27.2830 C   0  0  2  0  0  0  0  0  0  0  0  0
    2.3375    4.1331   27.1175 O   0  0  0  0  0  0  0  0  0  0  0  0
   -1.5555   -1.3263   26.6386 C   0  0  2  0  0  0  0  0  0  0  0  0
   -0.4260   -1.7961   27.3763 O   0  0  0  0  0  0  0  0  0  0  0  0
    6.6431    6.1663   29.2941 C   0  0  2  0  0  0  0  0  0  0  0  0
    7.4628    6.6502   28.1880 O   0  0  0  0  0  0  0  0  0  0  0  0
    3.8006    6.4438   25.1143 C   0  0  2  0  0  0  0  0  0  0  0  0
    3.7229    5.0279   25.4234 O   0  0  0  0  0  0  0  0  0  0  0  0
    3.1400    1.9229   27.7809 C   0  0  0  0  0  0  0  0  0  0  0  0
    2.8141    0.5444   27.8159 O   0  0  0  0  0  0  0  0  0  0  0  0
   -1.1218   -0.9028   25.2009 C   0  0  1  0  0  0  0  0  0  0  0  0
   -0.2829    0.2902   25.2731 O   0  0  0  0  0  0  0  0  0  0  0  0
    7.2567    6.7485   30.5870 C   0  0  0  0  0  0  0  0  0  0  0  0
    7.3098    8.1643   30.5396 O   0  0  0  0  0  0  0  0  0  0  0  0
    3.0968    6.6865   23.7431 C   0  0  1  0  0  0  0  0  0  0  0  0
    1.6991    6.4430   23.8950 O   0  0  0  0  0  0  0  0  0  0  0  0
   -0.3481   -2.0207   24.4560 C   0  0  0  0  0  0  0  0  0  0  0  0
   -1.2193   -3.1433   24.0638 N   0  0  0  0  0  0  0  0  0  0  0  0
  1  2  1  1  0  0  0
  1  7  1  0  0  0  0
  1 30  1  0  0  0  0
  3  4  1  6  0  0  0
  3  9  1  0  0  0  0
  3 39  1  0  0  0  0
  5 10  1  0  0  0  0
  5 26  1  0  0  0  0
  5 32  1  1  0  0  0
  6 12  1  0  0  0  0
  6 36  1  0  0  0  0
  6 19  1  1  0  0  0
  7  8  1  6  0  0  0
  7 14  1  0  0  0  0
  9 16  1  0  0  0  0
 10 11  1  6  0  0  0
 10 18  1  0  0  0  0
 12 13  1  1  0  0  0
 12 20  1  0  0  0  0
 14 15  1  1  0  0  0
 14 22  1  0  0  0  0
 16 17  1  6  0  0  0
 16 24  1  0  0  0  0
 18 19  1  1  0  0  0
 18 25  1  0  0  0  0
 20 21  1  6  0  0  0
 20 27  1  0  0  0  0
 22 23  1  1  0  0  0
 22 29  1  0  0  0  0
 24  2  1  1  0  0  0
 24 31  1  0  0  0  0
 25 26  1  0  0  0  0
 25 33  1  6  0  0  0
 27 28  1  1  0  0  0
 27 35  1  0  0  0  0
 29 30  1  0  0  0  0
 29 37  1  1  0  0  0
 31 32  1  6  0  0  0
 31 39  1  0  0  0  0
 33 34  1  0  0  0  0
 35 36  1  0  0  0  0
 35 41  1  1  0  0  0
 37 38  1  0  0  0  0
 39 40  1  1  0  0  0
 41 42  1  0  0  0  0
M  END
>  <CHROM.1>
-66.03248506,-105.16171352,54.60225075,-78.18800440,30.07438631,-31.94794195
179.97321937,166.66923514,139.97898295,88.50344327,63.28036359,-175.66578402
-55.60107615,179.41828514,178.35130942,169.45257579,134.44911958,144.11763268
71.31194260,177.91178802,-38.08470389,-103.88958404,2.97910100,3.75542215
26.30505491,-0.45529569,0.68637656,2.30992497

>  <Name>
1fyp_lig

>  <RI>
0

>  <Rbt.Current_Directory>
/home/itssahil/PROJECTS/Mol_Feturizer/New_Systems/rnas/1fyp

>  <Rbt.Executable>
rbdock ($Id: //depot/dev/client3/rdock/2013.1/src/exe/rbdock.cxx#4 $)

>  <Rbt.Library>
libRbt.so (2013.1, Build901 2013/11/27)

>  <Rbt.Parameter_File>
/export/apps/rDock/src/rDock_2013.1_src/data/scripts/dock_solv.prm

>  <Rbt.Receptor>
prm/pocket_docking_8.prm

>  <SCORE>
-44.4012

>  <SCORE.INTER>
-40.4817

>  <SCORE.INTER.CONST>
1

>  <SCORE.INTER.POLAR>
-5.1302

>  <SCORE.INTER.ROT>
14

>  <SCORE.INTER.SOLV>
17.8324

>  <SCORE.INTER.VDW>
-28.7646

>  <SCORE.INTER.norm>
-0.96385

>  <SCORE.INTRA>
-3.91956

>  <SCORE.INTRA.DIHEDRAL>
-11.8062

>  <SCORE.INTRA.DIHEDRAL.0>
48.7173

>  <SCORE.INTRA.POLAR>
-1.09525

>  <SCORE.INTRA.POLAR.0>
-1.54691

>  <SCORE.INTRA.REPUL>
0.124571

>  <SCORE.INTRA.REPUL.0>
0

>  <SCORE.INTRA.SOLV>
0.766198

>  <SCORE.INTRA.SOLV.lig_0>
-64.052

>  <SCORE.INTRA.VDW>
4.70144

>  <SCORE.INTRA.VDW.0>
-7.0667

>  <SCORE.INTRA.norm>
-0.0933228

>  <SCORE.RESTR>
0

>  <SCORE.RESTR.CAVITY>
0

>  <SCORE.RESTR.norm>
0

>  <SCORE.SYSTEM>
0

>  <SCORE.SYSTEM.CONST>
0

>  <SCORE.SYSTEM.DIHEDRAL>
0

>  <SCORE.SYSTEM.SOLV>
0

>  <SCORE.SYSTEM.norm>
0

>  <SCORE.heavy>
42

>  <SCORE.norm>
-1.05717

>  <RMSD>
2.783

$$$$
1fyp_lig
 OpenBabel11021811393D
libRbt.so/2013.1/901 2013/11/27
 42 45  0  0  0  0  0  0  0  0999 V2000
    7.1879    5.9924   28.3743 C   0  0  2  0  0  0  0  0  0  0  0  0
    5.9781    6.7029   27.9818 O   0  0  0  0  0  0  0  0  0  0  0  0
    2.9974    7.0114   24.9385 C   0  0  2  0  0  0  0  0  0  0  0  0
    2.0972    6.8150   23.7872 N   0  0  0  0  0  0  0  0  0  0  0  0
    2.0995    4.6088   28.4493 C   0  0  1  0  0  0  0  0  0  0  0  0
   -1.2787    2.4344   27.3331 C   0  0  1  0  0  0  0  0  0  0  0  0
    7.5143    6.2103   29.8869 C   0  0  2  0  0  0  0  0  0  0  0  0
    6.3362    5.9312   30.7354 N   0  0  0  0  0  0  0  0  0  0  0  0
    4.4616    6.8862   24.4720 C   0  0  0  0  0  0  0  0  0  0  0  0
    1.8301    3.3474   27.6246 C   0  0  2  0  0  0  0  0  0  0  0  0
    1.1916    3.7061   26.3986 O   0  0  0  0  0  0  0  0  0  0  0  0
   -2.3787    1.4828   27.8950 C   0  0  2  0  0  0  0  0  0  0  0  0
   -1.8568    0.5509   28.9243 N   0  0  0  0  0  0  0  0  0  0  0  0
    8.0330    7.6604   30.1406 C   0  0  1  0  0  0  0  0  0  0  0  0
    8.4754    7.7955   31.4889 O   0  0  0  0  0  0  0  0  0  0  0  0
    5.4694    7.1097   25.6325 C   0  0  2  0  0  0  0  0  0  0  0  0
    6.8293    6.8887   25.0983 N   0  0  0  0  0  0  0  0  0  0  0  0
    0.8795    2.5712   28.5403 C   0  0  2  0  0  0  0  0  0  0  0  0
   -0.4952    3.0267   28.4018 O   0  0  0  0  0  0  0  0  0  0  0  0
   -3.0894    0.7121   26.7400 C   0  0  1  0  0  0  0  0  0  0  0  0
   -3.9411    1.6207   26.0454 O   0  0  0  0  0  0  0  0  0  0  0  0
    9.2070    8.0256   29.1980 C   0  0  2  0  0  0  0  0  0  0  0  0
    9.5711    9.3856   29.4140 O   0  0  0  0  0  0  0  0  0  0  0  0
    5.1840    6.1899   26.8738 C   0  0  2  0  0  0  0  0  0  0  0  0
    1.4238    2.9140   29.9341 C   0  0  2  0  0  0  0  0  0  0  0  0
    1.9598    4.2476   29.8327 O   0  0  0  0  0  0  0  0  0  0  0  0
   -2.1133    0.0718   25.7070 C   0  0  2  0  0  0  0  0  0  0  0  0
   -1.4915   -1.0628   26.3125 O   0  0  0  0  0  0  0  0  0  0  0  0
    8.8001    7.7969   27.7146 C   0  0  2  0  0  0  0  0  0  0  0  0
    8.3252    6.4262   27.5549 O   0  0  0  0  0  0  0  0  0  0  0  0
    3.6674    6.1717   27.2857 C   0  0  2  0  0  0  0  0  0  0  0  0
    3.4603    5.0608   28.1965 O   0  0  0  0  0  0  0  0  0  0  0  0
    2.5156    1.9399   30.4115 C   0  0  0  0  0  0  0  0  0  0  0  0
    3.0162    2.3247   31.6800 O   0  0  0  0  0  0  0  0  0  0  0  0
   -1.0318    1.1016   25.2548 C   0  0  1  0  0  0  0  0  0  0  0  0
   -0.3934    1.6899   26.4291 O   0  0  0  0  0  0  0  0  0  0  0  0
    9.9414    7.9915   26.6915 C   0  0  0  0  0  0  0  0  0  0  0  0
    9.4768    7.8206   25.3632 O   0  0  0  0  0  0  0  0  0  0  0  0
    2.7081    5.9936   26.0681 C   0  0  1  0  0  0  0  0  0  0  0  0
    1.3633    6.1601   26.5148 O   0  0  0  0  0  0  0  0  0  0  0  0
    0.0570    0.4676   24.3517 C   0  0  0  0  0  0  0  0  0  0  0  0
   -0.5170   -0.2936   23.2274 N   0  0  0  0  0  0  0  0  0  0  0  0
  1  2  1  6  0  0  0
  1  7  1  0  0  0  0
  1 30  1  0  0  0  0
  3  4  1  6  0  0  0
  3  9  1  0  0  0  0
  3 39  1  0  0  0  0
  5 10  1  0  0  0  0
  5 26  1  0  0  0  0
  5 32  1  1  0  0  0
  6 12  1  0  0  0  0
  6 36  1  0  0  0  0
  6 19  1  1  0  0  0
  7  8  1  1  0  0  0
  7 14  1  0  0  0  0
  9 16  1  0  0  0  0
 10 11  1  6  0  0  0
 10 18  1  0  0  0  0
 12 13  1  1  0  0  0
 12 20  1  0  0  0  0
 14 15  1  1  0  0  0
 14 22  1  0  0  0  0
 16 17  1  6  0  0  0
 16 24  1  0  0  0  0
 18 19  1  1  0  0  0
 18 25  1  0  0  0  0
 20 21  1  6  0  0  0
 20 27  1  0  0  0  0
 22 23  1  6  0  0  0
 22 29  1  0  0  0  0
 24  2  1  1  0  0  0
 24 31  1  0  0  0  0
 25 26  1  0  0  0  0
 25 33  1  6  0  0  0
 27 28  1  1  0  0  0
 27 35  1  0  0  0  0
 29 30  1  0  0  0  0
 29 37  1  6  0  0  0
 31 32  1  1  0  0  0
 31 39  1  0  0  0  0
 33 34  1  0  0  0  0
 35 36  1  0  0  0  0
 35 41  1  6  0  0  0
 37 38  1  0  0  0  0
 39 40  1  1  0  0  0
 41 42  1  0  0  0  0
M  END
>  <CHROM.1>
-152.49382825,-104.13292284,-68.51503548,-117.72615064,-170.66731710,-157.32285391
-174.57120962,-146.83938259,85.41496063,109.43746757,-51.91928575,-68.98810012
178.01503575,-66.95015669,-177.52992562,-164.04985876,101.18983795,-168.73839455
50.95909019,-58.43032906,96.37108381,-131.36394615,3.18351551,4.50380466
27.45498034,-0.00080337,0.60856800,1.81129381

>  <Name>
1fyp_lig

>  <RI>
0

>  <Rbt.Current_Directory>
/home/itssahil/PROJECTS/Mol_Feturizer/New_Systems/rnas/1fyp

>  <Rbt.Executable>
rbdock ($Id: //depot/dev/client3/rdock/2013.1/src/exe/rbdock.cxx#4 $)

>  <Rbt.Library>
libRbt.so (2013.1, Build901 2013/11/27)

>  <Rbt.Parameter_File>
/export/apps/rDock/src/rDock_2013.1_src/data/scripts/dock_solv.prm

>  <Rbt.Receptor>
prm/pocket_docking_8.prm

>  <SCORE>
-38.7407

>  <SCORE.INTER>
-40.7184

>  <SCORE.INTER.CONST>
1

>  <SCORE.INTER.POLAR>
-6.17661

>  <SCORE.INTER.ROT>
14

>  <SCORE.INTER.SOLV>
13.8211

>  <SCORE.INTER.VDW>
-24.0973

>  <SCORE.INTER.norm>
-0.969486

>  <SCORE.INTRA>
1.97774

>  <SCORE.INTRA.DIHEDRAL>
-9.06787

>  <SCORE.INTRA.DIHEDRAL.0>
48.7173

>  <SCORE.INTRA.POLAR>
-0.450214

>  <SCORE.INTRA.POLAR.0>
-1.54691

>  <SCORE.INTRA.REPUL>
0

>  <SCORE.INTRA.REPUL.0>
0

>  <SCORE.INTRA.SOLV>
0.787032

>  <SCORE.INTRA.SOLV.lig_0>
-64.052

>  <SCORE.INTRA.VDW>
7.64889

>  <SCORE.INTRA.VDW.0>
-7.0667

>  <SCORE.INTRA.norm>
0.0470891

>  <SCORE.RESTR>
0

>  <SCORE.RESTR.CAVITY>
0

>  <SCORE.RESTR.norm>
0

>  <SCORE.SYSTEM>
0

>  <SCORE.SYSTEM.CONST>
0

>  <SCORE.SYSTEM.DIHEDRAL>
0

>  <SCORE.SYSTEM.SOLV>
0

>  <SCORE.SYSTEM.norm>
0

>  <SCORE.heavy>
42

>  <SCORE.norm>
-0.922397

>  <RMSD>
2.808

$$$$
1fyp_lig
 OpenBabel11021811393D
libRbt.so/2013.1/901 2013/11/27
 42 45  0  0  0  0  0  0  0  0999 V2000
    4.2092    4.5879   28.5975 C   0  0  2  0  0  0  0  0  0  0  0  0
    4.4702    5.8853   27.9883 O   0  0  0  0  0  0  0  0  0  0  0  0
    3.8011    7.2356   23.9921 C   0  0  2  0  0  0  0  0  0  0  0  0
    3.8741    7.5515   22.5536 N   0  0  0  0  0  0  0  0  0  0  0  0
    2.3254    3.1912   25.8876 C   0  0  1  0  0  0  0  0  0  0  0  0
   -0.5450   -0.2194   25.6443 C   0  0  1  0  0  0  0  0  0  0  0  0
    3.0522    4.6696   29.6447 C   0  0  2  0  0  0  0  0  0  0  0  0
    1.8590    5.3310   29.0750 N   0  0  0  0  0  0  0  0  0  0  0  0
    5.0819    7.7322   24.6919 C   0  0  0  0  0  0  0  0  0  0  0  0
    2.5755    1.7510   25.4328 C   0  0  2  0  0  0  0  0  0  0  0  0
    2.3193    1.6416   24.0322 O   0  0  0  0  0  0  0  0  0  0  0  0
   -0.9867   -0.6385   24.2089 C   0  0  2  0  0  0  0  0  0  0  0  0
   -1.5671    0.4879   23.4379 N   0  0  0  0  0  0  0  0  0  0  0  0
    3.5204    5.4145   30.9339 C   0  0  1  0  0  0  0  0  0  0  0  0
    2.5109    5.3423   31.9375 O   0  0  0  0  0  0  0  0  0  0  0  0
    5.0615    7.4560   26.2202 C   0  0  2  0  0  0  0  0  0  0  0  0
    6.3590    7.8939   26.7755 N   0  0  0  0  0  0  0  0  0  0  0  0
    1.5360    0.9790   26.2501 C   0  0  2  0  0  0  0  0  0  0  0  0
    0.2237    1.0116   25.6231 O   0  0  0  0  0  0  0  0  0  0  0  0
   -1.9636   -1.8534   24.2607 C   0  0  1  0  0  0  0  0  0  0  0  0
   -1.2170   -3.0219   24.5937 O   0  0  0  0  0  0  0  0  0  0  0  0
    4.8276    4.8106   31.5057 C   0  0  2  0  0  0  0  0  0  0  0  0
    5.2506    5.5891   32.6208 O   0  0  0  0  0  0  0  0  0  0  0  0
    4.7685    5.9513   26.5642 C   0  0  2  0  0  0  0  0  0  0  0  0
    1.5220    1.7592   27.5721 C   0  0  2  0  0  0  0  0  0  0  0  0
    1.8089    3.1282   27.2267 O   0  0  0  0  0  0  0  0  0  0  0  0
   -3.1166   -1.6992   25.2984 C   0  0  2  0  0  0  0  0  0  0  0  0
   -4.0551   -0.7464   24.7964 O   0  0  0  0  0  0  0  0  0  0  0  0
    5.9315    4.7775   30.4109 C   0  0  2  0  0  0  0  0  0  0  0  0
    5.4227    4.0705   29.2399 O   0  0  0  0  0  0  0  0  0  0  0  0
    3.5589    5.3625   25.7516 C   0  0  2  0  0  0  0  0  0  0  0  0
    3.5873    3.9174   25.8834 O   0  0  0  0  0  0  0  0  0  0  0  0
    2.5557    1.2422   28.5884 C   0  0  0  0  0  0  0  0  0  0  0  0
    2.5769   -0.1744   28.6110 O   0  0  0  0  0  0  0  0  0  0  0  0
   -2.5602   -1.2316   26.6791 C   0  0  1  0  0  0  0  0  0  0  0  0
   -1.7278   -0.0457   26.4963 O   0  0  0  0  0  0  0  0  0  0  0  0
    7.2363    4.0623   30.8268 C   0  0  0  0  0  0  0  0  0  0  0  0
    8.2172    4.9904   31.2582 O   0  0  0  0  0  0  0  0  0  0  0  0
    3.6148    5.7182   24.2334 C   0  0  1  0  0  0  0  0  0  0  0  0
    2.4008    5.2918   23.6169 O   0  0  0  0  0  0  0  0  0  0  0  0
   -3.6831   -0.9090   27.6981 C   0  0  0  0  0  0  0  0  0  0  0  0
   -4.3768    0.3548   27.3904 N   0  0  0  0  0  0  0  0  0  0  0  0
  1  2  1  1  0  0  0
  1  7  1  0  0  0  0
  1 30  1  0  0  0  0
  3  4  1  6  0  0  0
  3  9  1  0  0  0  0
  3 39  1  0  0  0  0
  5 10  1  0  0  0  0
  5 26  1  0  0  0  0
  5 32  1  1  0  0  0
  6 12  1  0  0  0  0
  6 36  1  0  0  0  0
  6 19  1  6  0  0  0
  7  8  1  6  0  0  0
  7 14  1  0  0  0  0
  9 16  1  0  0  0  0
 10 11  1  6  0  0  0
 10 18  1  0  0  0  0
 12 13  1  1  0  0  0
 12 20  1  0  0  0  0
 14 15  1  1  0  0  0
 14 22  1  0  0  0  0
 16 17  1  6  0  0  0
 16 24  1  0  0  0  0
 18 19  1  6  0  0  0
 18 25  1  0  0  0  0
 20 21  1  1  0  0  0
 20 27  1  0  0  0  0
 22 23  1  1  0  0  0
 22 29  1  0  0  0  0
 24  2  1  1  0  0  0
 24 31  1  0  0  0  0
 25 26  1  0  0  0  0
 25 33  1  1  0  0  0
 27 28  1  6  0  0  0
 27 35  1  0  0  0  0
 29 30  1  0  0  0  0
 29 37  1  1  0  0  0
 31 32  1  6  0  0  0
 31 39  1  0  0  0  0
 33 34  1  0  0  0  0
 35 36  1  0  0  0  0
 35 41  1  1  0  0  0
 37 38  1  0  0  0  0
 39 40  1  6  0  0  0
 41 42  1  0  0  0  0
M  END
>  <CHROM.1>
-140.38636937,-177.59765756,-172.56804490,62.87665612,64.31845653,33.37403074
-178.15917770,-61.98231950,139.21828818,-125.43211214,178.94010357,177.42821781
-42.45865052,-171.57246626,-97.51005406,147.49121511,155.76749270,-155.95002307
-73.44441432,57.46749620,59.97794364,-94.50889860,2.13998909,3.05979739,27.01814398
0.08874005,0.78575621,1.90554813

>  <Name>
1fyp_lig

>  <RI>
0

>  <Rbt.Current_Directory>
/home/itssahil/PROJECTS/Mol_Feturizer/New_Systems/rnas/1fyp

>  <Rbt.Executable>
rbdock ($Id: //depot/dev/client3/rdock/2013.1/src/exe/rbdock.cxx#4 $)

>  <Rbt.Library>
libRbt.so (2013.1, Build901 2013/11/27)

>  <Rbt.Parameter_File>
/export/apps/rDock/src/rDock_2013.1_src/data/scripts/dock_solv.prm

>  <Rbt.Receptor>
prm/pocket_docking_7.prm

>  <SCORE>
-42.2706

>  <SCORE.INTER>
-36.8846

>  <SCORE.INTER.CONST>
1

>  <SCORE.INTER.POLAR>
-4.52976

>  <SCORE.INTER.ROT>
14

>  <SCORE.INTER.SOLV>
17.4991

>  <SCORE.INTER.VDW>
-28.2569

>  <SCORE.INTER.norm>
-0.878204

>  <SCORE.INTRA>
-5.38598

>  <SCORE.INTRA.DIHEDRAL>
-12.9612

>  <SCORE.INTRA.DIHEDRAL.0>
48.7173

>  <SCORE.INTRA.POLAR>
-0.0108498

>  <SCORE.INTRA.POLAR.0>
-1.54691

>  <SCORE.INTRA.REPUL>
0

>  <SCORE.INTRA.REPUL.0>
0

>  <SCORE.INTRA.SOLV>
-1.54263

>  <SCORE.INTRA.SOLV.lig_0>
-64.052

>  <SCORE.INTRA.VDW>
1.90283

>  <SCORE.INTRA.VDW.0>
-7.0667

>  <SCORE.INTRA.norm>
-0.128238

>  <SCORE.RESTR>
0

>  <SCORE.RESTR.CAVITY>
0

>  <SCORE.RESTR.norm>
0

>  <SCORE.SYSTEM>
0

>  <SCORE.SYSTEM.CONST>
0

>  <SCORE.SYSTEM.DIHEDRAL>
0

>  <SCORE.SYSTEM.SOLV>
0

>  <SCORE.SYSTEM.norm>
0

>  <SCORE.heavy>
42

>  <SCORE.norm>
-1.00644

>  <RMSD>
2.837

$$$$
1fyp_lig
 OpenBabel11021811393D
libRbt.so/2013.1/901 2013/11/27
 42 45  0  0  0  0  0  0  0  0999 V2000
    6.6311    5.2410   27.0335 C   0  0  2  0  0  0  0  0  0  0  0  0
    5.3387    5.7640   26.6107 O   0  0  0  0  0  0  0  0  0  0  0  0
    3.4420    7.5507   23.2268 C   0  0  2  0  0  0  0  0  0  0  0  0
    3.0059    7.9692   21.8818 N   0  0  0  0  0  0  0  0  0  0  0  0
    2.1622    3.7012   25.7760 C   0  0  1  0  0  0  0  0  0  0  0  0
   -1.1075    1.4768   25.8657 C   0  0  1  0  0  0  0  0  0  0  0  0
    6.5900    3.6890   27.2114 C   0  0  2  0  0  0  0  0  0  0  0  0
    6.0209    3.0272   26.0181 N   0  0  0  0  0  0  0  0  0  0  0  0
    4.9668    7.7402   23.3537 C   0  0  0  0  0  0  0  0  0  0  0  0
    1.7922    2.3014   25.2786 C   0  0  2  0  0  0  0  0  0  0  0  0
    0.7693    2.4021   24.2872 O   0  0  0  0  0  0  0  0  0  0  0  0
   -2.5521    1.5697   26.4449 C   0  0  2  0  0  0  0  0  0  0  0  0
   -2.6444    1.0604   27.8350 N   0  0  0  0  0  0  0  0  0  0  0  0
    5.7795    3.2966   28.4863 C   0  0  1  0  0  0  0  0  0  0  0  0
    5.8841    1.8950   28.7233 O   0  0  0  0  0  0  0  0  0  0  0  0
    5.4934    7.3432   24.7600 C   0  0  2  0  0  0  0  0  0  0  0  0
    6.9643    7.4844   24.7476 N   0  0  0  0  0  0  0  0  0  0  0  0
    1.2650    1.6436   26.5568 C   0  0  2  0  0  0  0  0  0  0  0  0
   -0.1266    1.9870   26.8061 O   0  0  0  0  0  0  0  0  0  0  0  0
   -3.5732    0.8522   25.5090 C   0  0  1  0  0  0  0  0  0  0  0  0
   -3.7668    1.6568   24.3477 O   0  0  0  0  0  0  0  0  0  0  0  0
    6.2841    4.0479   29.7437 C   0  0  2  0  0  0  0  0  0  0  0  0
    5.4481    3.7187   30.8489 O   0  0  0  0  0  0  0  0  0  0  0  0
    5.0595    5.8950   25.1873 C   0  0  2  0  0  0  0  0  0  0  0  0
    2.1730    2.2563   27.6322 C   0  0  2  0  0  0  0  0  0  0  0  0
    2.4994    3.5804   27.1672 O   0  0  0  0  0  0  0  0  0  0  0  0
   -3.1256   -0.5684   25.0491 C   0  0  2  0  0  0  0  0  0  0  0  0
   -3.2491   -1.4638   26.1552 O   0  0  0  0  0  0  0  0  0  0  0  0
    6.2814    5.5827   29.4934 C   0  0  2  0  0  0  0  0  0  0  0  0
    7.0531    5.8722   28.2890 O   0  0  0  0  0  0  0  0  0  0  0  0
    3.5354    5.6116   24.9281 C   0  0  2  0  0  0  0  0  0  0  0  0
    3.3183    4.1804   25.0320 O   0  0  0  0  0  0  0  0  0  0  0  0
    3.4601    1.4461   27.8678 C   0  0  0  0  0  0  0  0  0  0  0  0
    3.3881    0.7265   29.0863 O   0  0  0  0  0  0  0  0  0  0  0  0
   -1.6523   -0.5459   24.5359 C   0  0  1  0  0  0  0  0  0  0  0  0
   -0.7937    0.0807   25.5372 O   0  0  0  0  0  0  0  0  0  0  0  0
    6.9018    6.4263   30.6295 C   0  0  0  0  0  0  0  0  0  0  0  0
    8.2890    6.1675   30.7644 O   0  0  0  0  0  0  0  0  0  0  0  0
    3.0608    6.0791   23.5171 C   0  0  1  0  0  0  0  0  0  0  0  0
    1.6430    5.9389   23.4398 O   0  0  0  0  0  0  0  0  0  0  0  0
   -1.1081   -1.9622   24.2181 C   0  0  0  0  0  0  0  0  0  0  0  0
   -0.7801   -2.7258   25.4357 N   0  0  0  0  0  0  0  0  0  0  0  0
  1  2  1  1  0  0  0
  1  7  1  0  0  0  0
  1 30  1  0  0  0  0
  3  4  1  6  0  0  0
  3  9  1  0  0  0  0
  3 39  1  0  0  0  0
  5 10  1  0  0  0  0
  5 26  1  0  0  0  0
  5 32  1  6  0  0  0
  6 12  1  0  0  0  0
  6 36  1  0  0  0  0
  6 19  1  1  0  0  0
  7  8  1  6  0  0  0
  7 14  1  0  0  0  0
  9 16  1  0  0  0  0
 10 11  1  6  0  0  0
 10 18  1  0  0  0  0
 12 13  1  1  0  0  0
 12 20  1  0  0  0  0
 14 15  1  1  0  0  0
 14 22  1  0  0  0  0
 16 17  1  6  0  0  0
 16 24  1  0  0  0  0
 18 19  1  1  0  0  0
 18 25  1  0  0  0  0
 20 21  1  6  0  0  0
 20 27  1  0  0  0  0
 22 23  1  1  0  0  0
 22 29  1  0  0  0  0
 24  2  1  1  0  0  0
 24 31  1  0  0  0  0
 25 26  1  0  0  0  0
 25 33  1  6  0  0  0
 27 28  1  1  0  0  0
 27 35  1  0  0  0  0
 29 30  1  0  0  0  0
 29 37  1  1  0  0  0
 31 32  1  6  0  0  0
 31 39  1  0  0  0  0
 33 34  1  0  0  0  0
 35 36  1  0  0  0  0
 35 41  1  1  0  0  0
 37 38  1  0  0  0  0
 39 40  1  1  0  0  0
 41 42  1  0  0  0  0
M  END
>  <CHROM.1>
-91.23601388,-91.45091769,173.10277490,-177.67324248,-54.46984505,152.98741448
70.21485965,71.88746670,66.89693183,164.19187753,-58.91522361,62.11832794
-105.52153197,160.52166988,65.57143050,135.60813787,156.05088040,-147.73004179
-75.29354732,-71.29368053,-169.77337416,165.72408384,2.61049212,3.29984685
26.34981258,-0.25054218,0.58797474,2.31639128

>  <Name>
1fyp_lig

>  <RI>
0

>  <Rbt.Current_Directory>
/home/itssahil/PROJECTS/Mol_Feturizer/New_Systems/rnas/1fyp

>  <Rbt.Executable>
rbdock ($Id: //depot/dev/client3/rdock/2013.1/src/exe/rbdock.cxx#4 $)

>  <Rbt.Library>
libRbt.so (2013.1, Build901 2013/11/27)

>  <Rbt.Parameter_File>
/export/apps/rDock/src/rDock_2013.1_src/data/scripts/dock_solv.prm

>  <Rbt.Receptor>
prm/pocket_docking_6.prm

>  <SCORE>
-44.7461

>  <SCORE.INTER>
-42.5773

>  <SCORE.INTER.CONST>
1

>  <SCORE.INTER.POLAR>
-5.03622

>  <SCORE.INTER.ROT>
14

>  <SCORE.INTER.SOLV>
19.8227

>  <SCORE.INTER.VDW>
-31.1384

>  <SCORE.INTER.norm>
-1.01375

>  <SCORE.INTRA>
-2.16872

>  <SCORE.INTRA.DIHEDRAL>
-15.8571

>  <SCORE.INTRA.DIHEDRAL.0>
48.7173

>  <SCORE.INTRA.POLAR>
-0.419868

>  <SCORE.INTRA.POLAR.0>
-1.54691

>  <SCORE.INTRA.REPUL>
0

>  <SCORE.INTRA.REPUL.0>
0

>  <SCORE.INTRA.SOLV>
1.194

>  <SCORE.INTRA.SOLV.lig_0>
-64.052

>  <SCORE.INTRA.VDW>
6.59037

>  <SCORE.INTRA.VDW.0>
-7.0667

>  <SCORE.INTRA.norm>
-0.0516363

>  <SCORE.RESTR>
0

>  <SCORE.RESTR.CAVITY>
0

>  <SCORE.RESTR.norm>
0

>  <SCORE.SYSTEM>
0

>  <SCORE.SYSTEM.CONST>
0

>  <SCORE.SYSTEM.DIHEDRAL>
0

>  <SCORE.SYSTEM.SOLV>
0

>  <SCORE.SYSTEM.norm>
0

>  <SCORE.heavy>
42

>  <SCORE.norm>
-1.06538

>  <RMSD>
2.839

$$$$
1fyp_lig
 OpenBabel11021811393D
libRbt.so/2013.1/901 2013/11/27
 42 45  0  0  0  0  0  0  0  0999 V2000
    5.6865    4.5793   29.6631 C   0  0  2  0  0  0  0  0  0  0  0  0
    5.8283    5.8775   29.0175 O   0  0  0  0  0  0  0  0  0  0  0  0
    3.0715    7.4001   26.1327 C   0  0  2  0  0  0  0  0  0  0  0  0
    2.3516    7.8069   24.9118 N   0  0  0  0  0  0  0  0  0  0  0  0
    2.9808    3.1682   26.9259 C   0  0  1  0  0  0  0  0  0  0  0  0
    0.4560    0.0229   25.3964 C   0  0  1  0  0  0  0  0  0  0  0  0
    4.7211    4.6524   30.8897 C   0  0  2  0  0  0  0  0  0  0  0  0
    3.4425    5.3006   30.5280 N   0  0  0  0  0  0  0  0  0  0  0  0
    4.5052    7.9659   26.0953 C   0  0  0  0  0  0  0  0  0  0  0  0
    3.6020    2.0824   26.0433 C   0  0  2  0  0  0  0  0  0  0  0  0
    3.6406    2.5327   24.6886 O   0  0  0  0  0  0  0  0  0  0  0  0
   -0.0932   -0.3179   23.9775 C   0  0  2  0  0  0  0  0  0  0  0  0
   -0.4481    0.8921   23.1963 N   0  0  0  0  0  0  0  0  0  0  0  0
    5.3918    5.4052   32.0812 C   0  0  1  0  0  0  0  0  0  0  0  0
    4.5659    5.3258   33.2403 O   0  0  0  0  0  0  0  0  0  0  0  0
    5.3157    7.5979   27.3680 C   0  0  2  0  0  0  0  0  0  0  0  0
    6.6889    8.1154   27.1941 N   0  0  0  0  0  0  0  0  0  0  0  0
    2.6090    0.9301   26.2182 C   0  0  2  0  0  0  0  0  0  0  0  0
    1.4591    1.0702   25.3381 O   0  0  0  0  0  0  0  0  0  0  0  0
   -1.2962   -1.3065   24.0699 C   0  0  1  0  0  0  0  0  0  0  0  0
   -0.7967   -2.5979   24.4109 O   0  0  0  0  0  0  0  0  0  0  0  0
    6.7824    4.8156   32.4258 C   0  0  2  0  0  0  0  0  0  0  0  0
    7.3789    5.6011   33.4533 O   0  0  0  0  0  0  0  0  0  0  0  0
    5.3172    6.0552   27.6652 C   0  0  2  0  0  0  0  0  0  0  0  0
    2.1878    1.0881   27.6858 C   0  0  2  0  0  0  0  0  0  0  0  0
    2.2469    2.5004   27.9647 O   0  0  0  0  0  0  0  0  0  0  0  0
   -2.3705   -0.9047   25.1255 C   0  0  2  0  0  0  0  0  0  0  0  0
   -3.1054    0.2125   24.6231 O   0  0  0  0  0  0  0  0  0  0  0  0
    7.6870    4.7904   31.1611 C   0  0  2  0  0  0  0  0  0  0  0  0
    6.9959    4.0754   30.0930 O   0  0  0  0  0  0  0  0  0  0  0  0
    3.8876    5.4108   27.5608 C   0  0  2  0  0  0  0  0  0  0  0  0
    4.0447    3.9687   27.5152 O   0  0  0  0  0  0  0  0  0  0  0  0
    3.0967    0.3179   28.6603 C   0  0  0  0  0  0  0  0  0  0  0  0
    4.3987    0.8762   28.6849 O   0  0  0  0  0  0  0  0  0  0  0  0
   -1.7005   -0.5407   26.4868 C   0  0  1  0  0  0  0  0  0  0  0  0
   -0.6477    0.4471   26.2666 O   0  0  0  0  0  0  0  0  0  0  0  0
    9.0503    4.0891   31.3526 C   0  0  0  0  0  0  0  0  0  0  0  0
    8.9334    2.6850   31.1971 O   0  0  0  0  0  0  0  0  0  0  0  0
    3.1089    5.8604   26.2856 C   0  0  1  0  0  0  0  0  0  0  0  0
    1.7731    5.3654   26.3649 O   0  0  0  0  0  0  0  0  0  0  0  0
   -2.7113    0.0195   27.5200 C   0  0  0  0  0  0  0  0  0  0  0  0
   -2.0481    0.5648   28.7182 N   0  0  0  0  0  0  0  0  0  0  0  0
  1  2  1  1  0  0  0
  1  7  1  0  0  0  0
  1 30  1  0  0  0  0
  3  4  1  6  0  0  0
  3  9  1  0  0  0  0
  3 39  1  0  0  0  0
  5 10  1  0  0  0  0
  5 26  1  0  0  0  0
  5 32  1  1  0  0  0
  6 12  1  0  0  0  0
  6 36  1  0  0  0  0
  6 19  1  6  0  0  0
  7  8  1  6  0  0  0
  7 14  1  0  0  0  0
  9 16  1  0  0  0  0
 10 11  1  6  0  0  0
 10 18  1  0  0  0  0
 12 13  1  1  0  0  0
 12 20  1  0  0  0  0
 14 15  1  1  0  0  0
 14 22  1  0  0  0  0
 16 17  1  6  0  0  0
 16 24  1  0  0  0  0
 18 19  1  6  0  0  0
 18 25  1  0  0  0  0
 20 21  1  1  0  0  0
 20 27  1  0  0  0  0
 22 23  1  1  0  0  0
 22 29  1  0  0  0  0
 24  2  1  1  0  0  0
 24 31  1  0  0  0  0
 25 26  1  0  0  0  0
 25 33  1  1  0  0  0
 27 28  1  6  0  0  0
 27 35  1  0  0  0  0
 29 30  1  0  0  0  0
 29 37  1  1  0  0  0
 31 32  1  6  0  0  0
 31 39  1  0  0  0  0
 33 34  1  0  0  0  0
 35 36  1  0  0  0  0
 35 41  1  1  0  0  0
 37 38  1  0  0  0  0
 39 40  1  1  0  0  0
 41 42  1  0  0  0  0
M  END
>  <CHROM.1>
-113.80704170,167.49463127,-148.67667739,164.19151084,-72.50659950,-40.73773713
-61.59919215,174.53721788,178.97805020,-140.73341961,-60.73302607,60.22745321
67.08765741,172.66029741,83.53318236,-157.03655381,137.36313745,64.99094987
-170.65466660,-64.97675841,60.37964978,59.94265889,3.04463674,3.18257342
27.73749815,-0.11303207,0.79530903,2.47397877

>  <Name>
1fyp_lig

>  <RI>
0

>  <Rbt.Current_Directory>
/home/itssahil/PROJECTS/Mol_Feturizer/New_Systems/rnas/1fyp

>  <Rbt.Executable>
rbdock ($Id: //depot/dev/client3/rdock/2013.1/src/exe/rbdock.cxx#4 $)

>  <Rbt.Library>
libRbt.so (2013.1, Build901 2013/11/27)

>  <Rbt.Parameter_File>
/export/apps/rDock/src/rDock_2013.1_src/data/scripts/dock_solv.prm

>  <Rbt.Receptor>
prm/pocket_docking_8.prm

>  <SCORE>
-34.5868

>  <SCORE.INTER>
-33.4569

>  <SCORE.INTER.CONST>
1

>  <SCORE.INTER.POLAR>
-3.67611

>  <SCORE.INTER.ROT>
14

>  <SCORE.INTER.SOLV>
17.3466

>  <SCORE.INTER.VDW>
-28.7664

>  <SCORE.INTER.norm>
-0.796593

>  <SCORE.INTRA>
-1.1299

>  <SCORE.INTRA.DIHEDRAL>
-21.3153

>  <SCORE.INTRA.DIHEDRAL.0>
48.7173

>  <SCORE.INTRA.POLAR>
1.21285

>  <SCORE.INTRA.POLAR.0>
-1.54691

>  <SCORE.INTRA.REPUL>
0.208849

>  <SCORE.INTRA.REPUL.0>
0

>  <SCORE.INTRA.SOLV>
-1.34879

>  <SCORE.INTRA.SOLV.lig_0>
-64.052

>  <SCORE.INTRA.VDW>
5.03418

>  <SCORE.INTRA.VDW.0>
-7.0667

>  <SCORE.INTRA.norm>
-0.0269024

>  <SCORE.RESTR>
0

>  <SCORE.RESTR.CAVITY>
0

>  <SCORE.RESTR.norm>
0

>  <SCORE.SYSTEM>
0

>  <SCORE.SYSTEM.CONST>
0

>  <SCORE.SYSTEM.DIHEDRAL>
0

>  <SCORE.SYSTEM.SOLV>
0

>  <SCORE.SYSTEM.norm>
0

>  <SCORE.heavy>
42

>  <SCORE.norm>
-0.823496

>  <RMSD>
2.841

$$$$
1fyp_lig
 OpenBabel11021811393D
libRbt.so/2013.1/901 2013/11/27
 42 45  0  0  0  0  0  0  0  0999 V2000
    3.6065    4.9695   28.0518 C   0  0  2  0  0  0  0  0  0  0  0  0
    4.1785    6.1514   27.4209 O   0  0  0  0  0  0  0  0  0  0  0  0
    3.3835    7.2492   23.3707 C   0  0  2  0  0  0  0  0  0  0  0  0
    3.4131    7.4776   21.9142 N   0  0  0  0  0  0  0  0  0  0  0  0
    2.0178    3.3409   25.7302 C   0  0  1  0  0  0  0  0  0  0  0  0
   -0.8804    0.0478   26.5224 C   0  0  1  0  0  0  0  0  0  0  0  0
    3.4487    5.1638   29.5944 C   0  0  2  0  0  0  0  0  0  0  0  0
    2.7464    6.4266   29.9068 N   0  0  0  0  0  0  0  0  0  0  0  0
    4.6773    7.8004   24.0027 C   0  0  0  0  0  0  0  0  0  0  0  0
    2.2294    1.8468   25.4722 C   0  0  2  0  0  0  0  0  0  0  0  0
    1.8092    1.5274   24.1452 O   0  0  0  0  0  0  0  0  0  0  0  0
   -0.3806   -1.3064   25.9329 C   0  0  2  0  0  0  0  0  0  0  0  0
   -0.1390   -1.2387   24.4710 N   0  0  0  0  0  0  0  0  0  0  0  0
    4.8382    5.1270   30.3045 C   0  0  1  0  0  0  0  0  0  0  0  0
    4.6677    5.1455   31.7195 O   0  0  0  0  0  0  0  0  0  0  0  0
    4.7023    7.6176   25.5449 C   0  0  2  0  0  0  0  0  0  0  0  0
    6.0094    8.1015   26.0357 N   0  0  0  0  0  0  0  0  0  0  0  0
    1.3044    1.2143   26.5156 C   0  0  2  0  0  0  0  0  0  0  0  0
   -0.0737    1.1592   26.0526 O   0  0  0  0  0  0  0  0  0  0  0  0
   -1.3613   -2.4647   26.2928 C   0  0  1  0  0  0  0  0  0  0  0  0
   -1.2080   -2.7754   27.6761 O   0  0  0  0  0  0  0  0  0  0  0  0
    5.6474    3.8623   29.9222 C   0  0  2  0  0  0  0  0  0  0  0  0
    6.9354    3.9344   30.5259 O   0  0  0  0  0  0  0  0  0  0  0  0
    4.4367    6.1337   25.9875 C   0  0  2  0  0  0  0  0  0  0  0  0
    1.4387    2.1863   27.6961 C   0  0  2  0  0  0  0  0  0  0  0  0
    1.6656    3.4852   27.1154 O   0  0  0  0  0  0  0  0  0  0  0  0
   -2.8617   -2.1328   26.0308 C   0  0  2  0  0  0  0  0  0  0  0  0
   -3.0905   -2.1468   24.6209 O   0  0  0  0  0  0  0  0  0  0  0  0
    5.7729    3.7480   28.3765 C   0  0  2  0  0  0  0  0  0  0  0  0
    4.4399    3.7919   27.7839 O   0  0  0  0  0  0  0  0  0  0  0  0
    3.2122    5.4843   25.2466 C   0  0  2  0  0  0  0  0  0  0  0  0
    3.2613    4.0503   25.4648 O   0  0  0  0  0  0  0  0  0  0  0  0
    2.5924    1.8234   28.6479 C   0  0  0  0  0  0  0  0  0  0  0  0
    2.5027    0.4699   29.0573 O   0  0  0  0  0  0  0  0  0  0  0  0
   -3.2319   -0.7375   26.6229 C   0  0  1  0  0  0  0  0  0  0  0  0
   -2.2828    0.2649   26.1465 O   0  0  0  0  0  0  0  0  0  0  0  0
    6.4375    2.4469   27.8741 C   0  0  0  0  0  0  0  0  0  0  0  0
    6.5735    2.4497   26.4631 O   0  0  0  0  0  0  0  0  0  0  0  0
    3.2220    5.7475   23.7087 C   0  0  1  0  0  0  0  0  0  0  0  0
    1.9965    5.2721   23.1536 O   0  0  0  0  0  0  0  0  0  0  0  0
   -4.6687   -0.2914   26.2491 C   0  0  0  0  0  0  0  0  0  0  0  0
   -4.7238    1.1114   25.7994 N   0  0  0  0  0  0  0  0  0  0  0  0
  1  2  1  1  0  0  0
  1  7  1  0  0  0  0
  1 30  1  0  0  0  0
  3  4  1  6  0  0  0
  3  9  1  0  0  0  0
  3 39  1  0  0  0  0
  5 10  1  0  0  0  0
  5 26  1  0  0  0  0
  5 32  1  1  0  0  0
  6 12  1  0  0  0  0
  6 36  1  0  0  0  0
  6 19  1  6  0  0  0
  7  8  1  6  0  0  0
  7 14  1  0  0  0  0
  9 16  1  0  0  0  0
 10 11  1  6  0  0  0
 10 18  1  0  0  0  0
 12 13  1  6  0  0  0
 12 20  1  0  0  0  0
 14 15  1  1  0  0  0
 14 22  1  0  0  0  0
 16 17  1  6  0  0  0
 16 24  1  0  0  0  0
 18 19  1  6  0  0  0
 18 25  1  0  0  0  0
 20 21  1  1  0  0  0
 20 27  1  0  0  0  0
 22 23  1  1  0  0  0
 22 29  1  0  0  0  0
 24  2  1  1  0  0  0
 24 31  1  0  0  0  0
 25 26  1  0  0  0  0
 25 33  1  1  0  0  0
 27 28  1  6  0  0  0
 27 35  1  0  0  0  0
 29 30  1  0  0  0  0
 29 37  1  1  0  0  0
 31 32  1  6  0  0  0
 31 39  1  0  0  0  0
 33 34  1  0  0  0  0
 35 36  1  0  0  0  0
 35 41  1  6  0  0  0
 37 38  1  0  0  0  0
 39 40  1  1  0  0  0
 41 42  1  0  0  0  0
M  END
>  <CHROM.1>
178.09595738,166.25067599,82.64976885,-23.71461934,165.54345225,146.69842103
-70.43492398,-50.40698350,148.32331937,-67.68316111,-52.54342083,-94.29692358
-52.11255734,71.41029824,-177.10805063,139.23556067,161.61322585,-178.96974708
-134.41110026,-51.72588922,-74.10689799,-105.41651542,2.10070598,2.91941215
26.64496253,-0.33777874,0.71196470,2.22912216

>  <Name>
1fyp_lig

>  <RI>
0

>  <Rbt.Current_Directory>
/home/itssahil/PROJECTS/Mol_Feturizer/New_Systems/rnas/1fyp

>  <Rbt.Executable>
rbdock ($Id: //depot/dev/client3/rdock/2013.1/src/exe/rbdock.cxx#4 $)

>  <Rbt.Library>
libRbt.so (2013.1, Build901 2013/11/27)

>  <Rbt.Parameter_File>
/export/apps/rDock/src/rDock_2013.1_src/data/scripts/dock_solv.prm

>  <Rbt.Receptor>
prm/blind_docking_40.prm

>  <SCORE>
-60.055

>  <SCORE.INTER>
-57.3389

>  <SCORE.INTER.CONST>
1

>  <SCORE.INTER.POLAR>
-7.38027

>  <SCORE.INTER.ROT>
14

>  <SCORE.INTER.SOLV>
24.9555

>  <SCORE.INTER.VDW>
-34.8769

>  <SCORE.INTER.norm>
-1.36521

>  <SCORE.INTRA>
-2.90662

>  <SCORE.INTRA.DIHEDRAL>
-17.6336

>  <SCORE.INTRA.DIHEDRAL.0>
48.7173

>  <SCORE.INTRA.POLAR>
1.20727

>  <SCORE.INTRA.POLAR.0>
-1.54691

>  <SCORE.INTRA.REPUL>
0

>  <SCORE.INTRA.REPUL.0>
0

>  <SCORE.INTRA.SOLV>
-2.23896

>  <SCORE.INTRA.SOLV.lig_0>
-64.052

>  <SCORE.INTRA.VDW>
2.92495

>  <SCORE.INTRA.VDW.0>
-7.0667

>  <SCORE.INTRA.norm>
-0.0692051

>  <SCORE.RESTR>
0.190548

>  <SCORE.RESTR.CAVITY>
0.190548

>  <SCORE.RESTR.norm>
0.00453685

>  <SCORE.SYSTEM>
0

>  <SCORE.SYSTEM.CONST>
0

>  <SCORE.SYSTEM.DIHEDRAL>
0

>  <SCORE.SYSTEM.SOLV>
0

>  <SCORE.SYSTEM.norm>
0

>  <SCORE.heavy>
42

>  <SCORE.norm>
-1.42988

>  <RMSD>
2.874

$$$$
1fyp_lig
 OpenBabel11021811393D
libRbt.so/2013.1/901 2013/11/27
 42 45  0  0  0  0  0  0  0  0999 V2000
    6.2079    7.0317   27.5259 C   0  0  2  0  0  0  0  0  0  0  0  0
    6.6217    6.0681   26.5146 O   0  0  0  0  0  0  0  0  0  0  0  0
    4.3101    7.9534   23.4580 C   0  0  2  0  0  0  0  0  0  0  0  0
    3.7000    8.4054   22.1940 N   0  0  0  0  0  0  0  0  0  0  0  0
    3.0016    4.0571   25.1406 C   0  0  1  0  0  0  0  0  0  0  0  0
   -0.5046    1.3195   25.5075 C   0  0  1  0  0  0  0  0  0  0  0  0
    7.4361    7.6210   28.2916 C   0  0  2  0  0  0  0  0  0  0  0  0
    8.4641    8.1196   27.3533 N   0  0  0  0  0  0  0  0  0  0  0  0
    5.8413    8.1128   23.3743 C   0  0  0  0  0  0  0  0  0  0  0  0
    3.0046    2.5446   25.3779 C   0  0  2  0  0  0  0  0  0  0  0  0
    3.0214    1.8647   24.1221 O   0  0  0  0  0  0  0  0  0  0  0  0
    0.0644   -0.0837   25.8796 C   0  0  2  0  0  0  0  0  0  0  0  0
    1.0800   -0.5638   24.9109 N   0  0  0  0  0  0  0  0  0  0  0  0
    8.0522    6.5592   29.2555 C   0  0  1  0  0  0  0  0  0  0  0  0
    9.0665    7.1554   30.0602 O   0  0  0  0  0  0  0  0  0  0  0  0
    6.5500    7.6794   24.6867 C   0  0  2  0  0  0  0  0  0  0  0  0
    8.0075    7.7943   24.4717 N   0  0  0  0  0  0  0  0  0  0  0  0
    1.6725    2.3385   26.1040 C   0  0  2  0  0  0  0  0  0  0  0  0
    0.5582    2.2496   25.1729 O   0  0  0  0  0  0  0  0  0  0  0  0
   -1.0869   -1.1213   26.0555 C   0  0  1  0  0  0  0  0  0  0  0  0
   -1.7638   -0.8444   27.2797 O   0  0  0  0  0  0  0  0  0  0  0  0
    6.9827    5.9399   30.1899 C   0  0  2  0  0  0  0  0  0  0  0  0
    7.5876    4.9174   30.9756 O   0  0  0  0  0  0  0  0  0  0  0  0
    6.1500    6.2314   25.1463 C   0  0  2  0  0  0  0  0  0  0  0  0
    1.5672    3.6140   26.9516 C   0  0  2  0  0  0  0  0  0  0  0  0
    2.2225    4.6487   26.1926 O   0  0  0  0  0  0  0  0  0  0  0  0
   -2.1371   -1.1080   24.9036 C   0  0  2  0  0  0  0  0  0  0  0  0
   -1.5481   -1.7009   23.7451 O   0  0  0  0  0  0  0  0  0  0  0  0
    5.8042    5.3637   29.3549 C   0  0  2  0  0  0  0  0  0  0  0  0
    5.2829    6.4082   28.4791 O   0  0  0  0  0  0  0  0  0  0  0  0
    4.5993    5.9807   25.0975 C   0  0  2  0  0  0  0  0  0  0  0  0
    4.3693    4.5518   25.2070 O   0  0  0  0  0  0  0  0  0  0  0  0
    2.2264    3.4748   28.3353 C   0  0  0  0  0  0  0  0  0  0  0  0
    1.6313    2.4228   29.0747 O   0  0  0  0  0  0  0  0  0  0  0  0
   -2.5956    0.3498   24.5889 C   0  0  1  0  0  0  0  0  0  0  0  0
   -1.4254    1.1957   24.3708 O   0  0  0  0  0  0  0  0  0  0  0  0
    4.6096    4.8485   30.1883 C   0  0  0  0  0  0  0  0  0  0  0  0
    5.0429    4.0077   31.2442 O   0  0  0  0  0  0  0  0  0  0  0  0
    3.9428    6.4836   23.7743 C   0  0  1  0  0  0  0  0  0  0  0  0
    2.5255    6.3705   23.8931 O   0  0  0  0  0  0  0  0  0  0  0  0
   -3.5174    0.4314   23.3452 C   0  0  0  0  0  0  0  0  0  0  0  0
   -4.4265    1.5908   23.3931 N   0  0  0  0  0  0  0  0  0  0  0  0
  1  2  1  6  0  0  0
  1  7  1  0  0  0  0
  1 30  1  0  0  0  0
  3  4  1  6  0  0  0
  3  9  1  0  0  0  0
  3 39  1  0  0  0  0
  5 10  1  0  0  0  0
  5 26  1  0  0  0  0
  5 32  1  1  0  0  0
  6 12  1  0  0  0  0
  6 36  1  0  0  0  0
  6 19  1  6  0  0  0
  7  8  1  6  0  0  0
  7 14  1  0  0  0  0
  9 16  1  0  0  0  0
 10 11  1  6  0  0  0
 10 18  1  0  0  0  0
 12 13  1  6  0  0  0
 12 20  1  0  0  0  0
 14 15  1  1  0  0  0
 14 22  1  0  0  0  0
 16 17  1  6  0  0  0
 16 24  1  0  0  0  0
 18 19  1  6  0  0  0
 18 25  1  0  0  0  0
 20 21  1  1  0  0  0
 20 27  1  0  0  0  0
 22 23  1  6  0  0  0
 22 29  1  0  0  0  0
 24  2  1  1  0  0  0
 24 31  1  0  0  0  0
 25 26  1  0  0  0  0
 25 33  1  1  0  0  0
 27 28  1  6  0  0  0
 27 35  1  0  0  0  0
 29 30  1  0  0  0  0
 29 37  1  1  0  0  0
 31 32  1  6  0  0  0
 31 39  1  0  0  0  0
 33 34  1  0  0  0  0
 35 36  1  0  0  0  0
 35 41  1  6  0  0  0
 37 38  1  0  0  0  0
 39 40  1  1  0  0  0
 41 42  1  0  0  0  0
M  END
>  <CHROM.1>
-127.45568408,55.07689674,74.48775788,93.77161662,-57.45746514,-66.62649792
-172.80595440,48.50870571,143.39780354,-49.23906850,-172.63474742,-175.61901190
-59.23671838,65.65269940,-48.13767561,-177.93469922,-176.01220477,67.84985770
153.36763323,-80.07410055,-57.24390180,-57.71355692,3.14087919,4.02759773
26.23853276,-0.08784496,0.70012738,2.09292824

>  <Name>
1fyp_lig

>  <RI>
0

>  <Rbt.Current_Directory>
/home/itssahil/PROJECTS/Mol_Feturizer/New_Systems/rnas/1fyp

>  <Rbt.Executable>
rbdock ($Id: //depot/dev/client3/rdock/2013.1/src/exe/rbdock.cxx#4 $)

>  <Rbt.Library>
libRbt.so (2013.1, Build901 2013/11/27)

>  <Rbt.Parameter_File>
/export/apps/rDock/src/rDock_2013.1_src/data/scripts/dock_solv.prm

>  <Rbt.Receptor>
prm/pocket_docking_4.prm

>  <SCORE>
-44.646

>  <SCORE.INTER>
-32.5243

>  <SCORE.INTER.CONST>
1

>  <SCORE.INTER.POLAR>
-3.70382

>  <SCORE.INTER.ROT>
14

>  <SCORE.INTER.SOLV>
15.6994

>  <SCORE.INTER.VDW>
-27.5032

>  <SCORE.INTER.norm>
-0.774387

>  <SCORE.INTRA>
-12.1218

>  <SCORE.INTRA.DIHEDRAL>
-28.1304

>  <SCORE.INTRA.DIHEDRAL.0>
48.7173

>  <SCORE.INTRA.POLAR>
-0.411666

>  <SCORE.INTRA.POLAR.0>
-1.54691

>  <SCORE.INTRA.REPUL>
0

>  <SCORE.INTRA.REPUL.0>
0

>  <SCORE.INTRA.SOLV>
-0.403966

>  <SCORE.INTRA.SOLV.lig_0>
-64.052

>  <SCORE.INTRA.VDW>
3.54505

>  <SCORE.INTRA.VDW.0>
-7.0667

>  <SCORE.INTRA.norm>
-0.288614

>  <SCORE.RESTR>
0

>  <SCORE.RESTR.CAVITY>
0

>  <SCORE.RESTR.norm>
0

>  <SCORE.SYSTEM>
0

>  <SCORE.SYSTEM.CONST>
0

>  <SCORE.SYSTEM.DIHEDRAL>
0

>  <SCORE.SYSTEM.SOLV>
0

>  <SCORE.SYSTEM.norm>
0

>  <SCORE.heavy>
42

>  <SCORE.norm>
-1.063

>  <RMSD>
2.874

$$$$
1fyp_lig
 OpenBabel11021811393D
libRbt.so/2013.1/901 2013/11/27
 42 45  0  0  0  0  0  0  0  0999 V2000
    5.5278    6.8323   27.5495 C   0  0  2  0  0  0  0  0  0  0  0  0
    5.7852    5.7646   26.5923 O   0  0  0  0  0  0  0  0  0  0  0  0
    3.8160    7.6857   23.3255 C   0  0  2  0  0  0  0  0  0  0  0  0
    3.3773    8.1894   22.0108 N   0  0  0  0  0  0  0  0  0  0  0  0
    2.8619    3.5059   25.4905 C   0  0  1  0  0  0  0  0  0  0  0  0
    0.2960    0.1139   26.5014 C   0  0  1  0  0  0  0  0  0  0  0  0
    5.9072    6.4017   29.0030 C   0  0  2  0  0  0  0  0  0  0  0  0
    7.2760    5.8457   29.0576 N   0  0  0  0  0  0  0  0  0  0  0  0
    5.3121    8.0016   23.5225 C   0  0  0  0  0  0  0  0  0  0  0  0
    2.9381    1.9981   25.2364 C   0  0  2  0  0  0  0  0  0  0  0  0
    2.0957    1.6567   24.1349 O   0  0  0  0  0  0  0  0  0  0  0  0
    0.0417   -0.3192   25.0253 C   0  0  2  0  0  0  0  0  0  0  0  0
   -0.5674    0.7599   24.2099 N   0  0  0  0  0  0  0  0  0  0  0  0
    4.8802    5.3682   29.5628 C   0  0  1  0  0  0  0  0  0  0  0  0
    5.1464    5.1063   30.9384 O   0  0  0  0  0  0  0  0  0  0  0  0
    5.8373    7.5216   24.9032 C   0  0  2  0  0  0  0  0  0  0  0  0
    7.2880    7.7982   24.9553 N   0  0  0  0  0  0  0  0  0  0  0  0
    2.3930    1.4307   26.5499 C   0  0  2  0  0  0  0  0  0  0  0  0
    0.9384    1.4137   26.5682 O   0  0  0  0  0  0  0  0  0  0  0  0
   -0.8115   -1.6237   24.9681 C   0  0  1  0  0  0  0  0  0  0  0  0
    0.0096   -2.7204   25.3639 O   0  0  0  0  0  0  0  0  0  0  0  0
    3.4222    5.8754   29.4311 C   0  0  2  0  0  0  0  0  0  0  0  0
    2.5329    4.8535   29.8710 O   0  0  0  0  0  0  0  0  0  0  0  0
    5.5319    6.0053   25.1784 C   0  0  2  0  0  0  0  0  0  0  0  0
    2.9341    2.4306   27.5814 C   0  0  2  0  0  0  0  0  0  0  0  0
    2.9901    3.7030   26.9077 O   0  0  0  0  0  0  0  0  0  0  0  0
   -2.0710   -1.6012   25.8864 C   0  0  2  0  0  0  0  0  0  0  0  0
   -3.0442   -0.7345   25.3012 O   0  0  0  0  0  0  0  0  0  0  0  0
    3.1181    6.2688   27.9576 C   0  0  2  0  0  0  0  0  0  0  0  0
    4.1166    7.2316   27.5039 O   0  0  0  0  0  0  0  0  0  0  0  0
    4.0489    5.6091   24.8409 C   0  0  2  0  0  0  0  0  0  0  0  0
    3.9660    4.1606   24.8035 O   0  0  0  0  0  0  0  0  0  0  0  0
    4.3274    2.0525   28.1146 C   0  0  0  0  0  0  0  0  0  0  0  0
    5.3262    2.3056   27.1419 O   0  0  0  0  0  0  0  0  0  0  0  0
   -1.7025   -1.1076   27.3200 C   0  0  1  0  0  0  0  0  0  0  0  0
   -0.9766    0.1564   27.2320 O   0  0  0  0  0  0  0  0  0  0  0  0
    1.7374    6.9246   27.7331 C   0  0  0  0  0  0  0  0  0  0  0  0
    1.5848    7.3572   26.3918 O   0  0  0  0  0  0  0  0  0  0  0  0
    3.5688    6.1641   23.4640 C   0  0  1  0  0  0  0  0  0  0  0  0
    2.1733    5.9021   23.3246 O   0  0  0  0  0  0  0  0  0  0  0  0
   -2.9469   -0.9143   28.2241 C   0  0  0  0  0  0  0  0  0  0  0  0
   -2.6454   -1.1301   29.6508 N   0  0  0  0  0  0  0  0  0  0  0  0
  1  2  1  6  0  0  0
  1  7  1  0  0  0  0
  1 30  1  0  0  0  0
  3  4  1  6  0  0  0
  3  9  1  0  0  0  0
  3 39  1  0  0  0  0
  5 10  1  0  0  0  0
  5 26  1  0  0  0  0
  5 32  1  6  0  0  0
  6 12  1  0  0  0  0
  6 36  1  0  0  0  0
  6 19  1  6  0  0  0
  7  8  1  6  0  0  0
  7 14  1  0  0  0  0
  9 16  1  0  0  0  0
 10 11  1  6  0  0  0
 10 18  1  0  0  0  0
 12 13  1  6  0  0  0
 12 20  1  0  0  0  0
 14 15  1  1  0  0  0
 14 22  1  0  0  0  0
 16 17  1  6  0  0  0
 16 24  1  0  0  0  0
 18 19  1  6  0  0  0
 18 25  1  0  0  0  0
 20 21  1  1  0  0  0
 20 27  1  0  0  0  0
 22 23  1  6  0  0  0
 22 29  1  0  0  0  0
 24  2  1  1  0  0  0
 24 31  1  0  0  0  0
 25 26  1  0  0  0  0
 25 33  1  6  0  0  0
 27 28  1  6  0  0  0
 27 35  1  0  0  0  0
 29 30  1  0  0  0  0
 29 37  1  1  0  0  0
 31 32  1  6  0  0  0
 31 39  1  0  0  0  0
 33 34  1  0  0  0  0
 35 36  1  0  0  0  0
 35 41  1  1  0  0  0
 37 38  1  0  0  0  0
 39 40  1  1  0  0  0
 41 42  1  0  0  0  0
M  END
>  <CHROM.1>
-177.96098837,32.81964501,-46.96170783,78.90663868,174.39907500,-35.16848714
-66.21866724,168.80463661,109.91274595,-89.27901376,-177.85608838,69.86052179
74.05396083,176.34255094,174.90887321,133.91961782,176.43790010,172.67155657
150.74355716,-174.71968691,73.49684007,156.46778761,2.56456213,3.61303147
26.42182044,-0.27132691,0.85034829,1.89987632

>  <Name>
1fyp_lig

>  <RI>
0

>  <Rbt.Current_Directory>
/home/itssahil/PROJECTS/Mol_Feturizer/New_Systems/rnas/1fyp

>  <Rbt.Executable>
rbdock ($Id: //depot/dev/client3/rdock/2013.1/src/exe/rbdock.cxx#4 $)

>  <Rbt.Library>
libRbt.so (2013.1, Build901 2013/11/27)

>  <Rbt.Parameter_File>
/export/apps/rDock/src/rDock_2013.1_src/data/scripts/dock_solv.prm

>  <Rbt.Receptor>
prm/pocket_docking_4.prm

>  <SCORE>
-63.8081

>  <SCORE.INTER>
-56.5018

>  <SCORE.INTER.CONST>
1

>  <SCORE.INTER.POLAR>
-6.55692

>  <SCORE.INTER.ROT>
14

>  <SCORE.INTER.SOLV>
17.9144

>  <SCORE.INTER.VDW>
-34.7163

>  <SCORE.INTER.norm>
-1.34528

>  <SCORE.INTRA>
-7.30627

>  <SCORE.INTRA.DIHEDRAL>
-20.9704

>  <SCORE.INTRA.DIHEDRAL.0>
48.7173

>  <SCORE.INTRA.POLAR>
0.798868

>  <SCORE.INTRA.POLAR.0>
-1.54691

>  <SCORE.INTRA.REPUL>
0.0168947

>  <SCORE.INTRA.REPUL.0>
0

>  <SCORE.INTRA.SOLV>
1.1618

>  <SCORE.INTRA.SOLV.lig_0>
-64.052

>  <SCORE.INTRA.VDW>
-0.202589

>  <SCORE.INTRA.VDW.0>
-7.0667

>  <SCORE.INTRA.norm>
-0.173959

>  <SCORE.RESTR>
0

>  <SCORE.RESTR.CAVITY>
0

>  <SCORE.RESTR.norm>
0

>  <SCORE.SYSTEM>
0

>  <SCORE.SYSTEM.CONST>
0

>  <SCORE.SYSTEM.DIHEDRAL>
0

>  <SCORE.SYSTEM.SOLV>
0

>  <SCORE.SYSTEM.norm>
0

>  <SCORE.heavy>
42

>  <SCORE.norm>
-1.51924

>  <RMSD>
2.879

$$$$
1fyp_lig
 OpenBabel11021811393D
libRbt.so/2013.1/901 2013/11/27
 42 45  0  0  0  0  0  0  0  0999 V2000
    6.8280    6.0623   27.1443 C   0  0  2  0  0  0  0  0  0  0  0  0
    5.5768    6.7201   26.7916 O   0  0  0  0  0  0  0  0  0  0  0  0
    3.2471    8.2287   23.5455 C   0  0  2  0  0  0  0  0  0  0  0  0
    2.6771    8.5857   22.2332 N   0  0  0  0  0  0  0  0  0  0  0  0
    2.4432    4.1798   25.4669 C   0  0  1  0  0  0  0  0  0  0  0  0
   -0.4715    0.8849   26.2281 C   0  0  1  0  0  0  0  0  0  0  0  0
    7.0476    4.7624   26.3053 C   0  0  2  0  0  0  0  0  0  0  0  0
    6.8772    5.0219   24.8598 N   0  0  0  0  0  0  0  0  0  0  0  0
    4.7334    8.6362   23.5871 C   0  0  0  0  0  0  0  0  0  0  0  0
    2.6993    2.6757   25.5928 C   0  0  2  0  0  0  0  0  0  0  0  0
    2.5637    2.0596   24.3115 O   0  0  0  0  0  0  0  0  0  0  0  0
    0.2517   -0.4543   25.8895 C   0  0  2  0  0  0  0  0  0  0  0  0
    0.7946   -0.4774   24.5093 N   0  0  0  0  0  0  0  0  0  0  0  0
    6.0790    3.6302   26.7701 C   0  0  1  0  0  0  0  0  0  0  0  0
    6.3973    2.4085   26.1084 O   0  0  0  0  0  0  0  0  0  0  0  0
    5.3933    8.3133   24.9555 C   0  0  2  0  0  0  0  0  0  0  0  0
    6.8252    8.6659   24.8606 N   0  0  0  0  0  0  0  0  0  0  0  0
    1.5753    2.2443   26.5388 C   0  0  2  0  0  0  0  0  0  0  0  0
    0.3237    2.0314   25.8284 O   0  0  0  0  0  0  0  0  0  0  0  0
   -0.6856   -1.6734   26.1509 C   0  0  1  0  0  0  0  0  0  0  0  0
   -0.8074   -1.8578   27.5597 O   0  0  0  0  0  0  0  0  0  0  0  0
    6.1571    3.3969   28.2997 C   0  0  2  0  0  0  0  0  0  0  0  0
    5.1873    2.4223   28.6716 O   0  0  0  0  0  0  0  0  0  0  0  0
    5.1986    6.8156   25.3883 C   0  0  2  0  0  0  0  0  0  0  0  0
    1.4638    3.4531   27.4784 C   0  0  2  0  0  0  0  0  0  0  0  0
    1.8107    4.6045   26.6848 O   0  0  0  0  0  0  0  0  0  0  0  0
   -2.1169   -1.5152   25.5542 C   0  0  2  0  0  0  0  0  0  0  0  0
   -2.0364   -1.6625   24.1356 O   0  0  0  0  0  0  0  0  0  0  0  0
    5.9138    4.7300   29.0626 C   0  0  2  0  0  0  0  0  0  0  0  0
    6.8501    5.7377   28.5751 O   0  0  0  0  0  0  0  0  0  0  0  0
    3.7188    6.3159   25.2133 C   0  0  2  0  0  0  0  0  0  0  0  0
    3.7168    4.8678   25.3110 O   0  0  0  0  0  0  0  0  0  0  0  0
    2.3929    3.3541   28.7013 C   0  0  0  0  0  0  0  0  0  0  0  0
    2.0713    2.2214   29.4895 O   0  0  0  0  0  0  0  0  0  0  0  0
   -2.7179   -0.1220   25.9180 C   0  0  1  0  0  0  0  0  0  0  0  0
   -1.7738    0.9301   25.5519 O   0  0  0  0  0  0  0  0  0  0  0  0
    6.1107    4.6469   30.5928 C   0  0  0  0  0  0  0  0  0  0  0  0
    6.2538    5.9363   31.1643 O   0  0  0  0  0  0  0  0  0  0  0  0
    3.0998    6.7161   23.8381 C   0  0  1  0  0  0  0  0  0  0  0  0
    1.7149    6.3725   23.8405 O   0  0  0  0  0  0  0  0  0  0  0  0
   -4.0728    0.1470   25.2143 C   0  0  0  0  0  0  0  0  0  0  0  0
   -5.1486   -0.7308   25.7093 N   0  0  0  0  0  0  0  0  0  0  0  0
  1  2  1  6  0  0  0
  1  7  1  0  0  0  0
  1 30  1  0  0  0  0
  3  4  1  6  0  0  0
  3  9  1  0  0  0  0
  3 39  1  0  0  0  0
  5 10  1  0  0  0  0
  5 26  1  0  0  0  0
  5 32  1  1  0  0  0
  6 12  1  0  0  0  0
  6 36  1  0  0  0  0
  6 19  1  6  0  0  0
  7  8  1  6  0  0  0
  7 14  1  0  0  0  0
  9 16  1  0  0  0  0
 10 11  1  6  0  0  0
 10 18  1  0  0  0  0
 12 13  1  6  0  0  0
 12 20  1  0  0  0  0
 14 15  1  6  0  0  0
 14 22  1  0  0  0  0
 16 17  1  6  0  0  0
 16 24  1  0  0  0  0
 18 19  1  6  0  0  0
 18 25  1  0  0  0  0
 20 21  1  1  0  0  0
 20 27  1  0  0  0  0
 22 23  1  1  0  0  0
 22 29  1  0  0  0  0
 24  2  1  1  0  0  0
 24 31  1  0  0  0  0
 25 26  1  0  0  0  0
 25 33  1  1  0  0  0
 27 28  1  6  0  0  0
 27 35  1  0  0  0  0
 29 30  1  0  0  0  0
 29 37  1  1  0  0  0
 31 32  1  6  0  0  0
 31 39  1  0  0  0  0
 33 34  1  0  0  0  0
 35 36  1  0  0  0  0
 35 41  1  6  0  0  0
 37 38  1  0  0  0  0
 39 40  1  1  0  0  0
 41 42  1  0  0  0  0
M  END
>  <CHROM.1>
-42.01828129,-107.20282874,173.43554659,107.87916280,-52.37307360,73.53263324
-59.82012280,-179.33490868,139.21550890,-66.41736200,66.86801771,175.98239368
-61.34711159,-40.72069696,163.12045362,167.08615637,-178.16381706,-174.56092662
67.97716391,78.29412805,-39.14267444,-179.15435547,2.70452114,3.52667361
26.19082291,-0.46918555,0.59623912,2.39256691

>  <Name>
1fyp_lig

>  <RI>
0

>  <Rbt.Current_Directory>
/home/itssahil/PROJECTS/Mol_Feturizer/New_Systems/rnas/1fyp

>  <Rbt.Executable>
rbdock ($Id: //depot/dev/client3/rdock/2013.1/src/exe/rbdock.cxx#4 $)

>  <Rbt.Library>
libRbt.so (2013.1, Build901 2013/11/27)

>  <Rbt.Parameter_File>
/export/apps/rDock/src/rDock_2013.1_src/data/scripts/dock_solv.prm

>  <Rbt.Receptor>
prm/pocket_docking_6.prm

>  <SCORE>
-44.4188

>  <SCORE.INTER>
-36.1946

>  <SCORE.INTER.CONST>
1

>  <SCORE.INTER.POLAR>
-4.68736

>  <SCORE.INTER.ROT>
14

>  <SCORE.INTER.SOLV>
18.5887

>  <SCORE.INTER.VDW>
-27.6348

>  <SCORE.INTER.norm>
-0.861776

>  <SCORE.INTRA>
-8.22421

>  <SCORE.INTRA.DIHEDRAL>
-24.4128

>  <SCORE.INTRA.DIHEDRAL.0>
48.7173

>  <SCORE.INTRA.POLAR>
0.102233

>  <SCORE.INTRA.POLAR.0>
-1.54691

>  <SCORE.INTRA.REPUL>
0.00139224

>  <SCORE.INTRA.REPUL.0>
0

>  <SCORE.INTRA.SOLV>
-0.139478

>  <SCORE.INTRA.SOLV.lig_0>
-64.052

>  <SCORE.INTRA.VDW>
3.69738

>  <SCORE.INTRA.VDW.0>
-7.0667

>  <SCORE.INTRA.norm>
-0.195815

>  <SCORE.RESTR>
0

>  <SCORE.RESTR.CAVITY>
0

>  <SCORE.RESTR.norm>
0

>  <SCORE.SYSTEM>
0

>  <SCORE.SYSTEM.CONST>
0

>  <SCORE.SYSTEM.DIHEDRAL>
0

>  <SCORE.SYSTEM.SOLV>
0

>  <SCORE.SYSTEM.norm>
0

>  <SCORE.heavy>
42

>  <SCORE.norm>
-1.05759

>  <RMSD>
2.906

$$$$
1fyp_lig
 OpenBabel11021811393D
libRbt.so/2013.1/901 2013/11/27
 42 45  0  0  0  0  0  0  0  0999 V2000
    6.6846    6.6821   27.4744 C   0  0  2  0  0  0  0  0  0  0  0  0
    5.4434    7.1076   26.8413 O   0  0  0  0  0  0  0  0  0  0  0  0
    3.3330    7.4055   23.1402 C   0  0  2  0  0  0  0  0  0  0  0  0
    2.8821    7.3480   21.7374 N   0  0  0  0  0  0  0  0  0  0  0  0
    2.9549    3.7433   25.6464 C   0  0  1  0  0  0  0  0  0  0  0  0
    0.1315    0.5230   26.2309 C   0  0  1  0  0  0  0  0  0  0  0  0
    7.3686    5.5271   26.6742 C   0  0  2  0  0  0  0  0  0  0  0  0
    7.4965    5.8698   25.2417 N   0  0  0  0  0  0  0  0  0  0  0  0
    4.7261    8.0627   23.2047 C   0  0  0  0  0  0  0  0  0  0  0  0
    3.4760    2.3173   25.8425 C   0  0  2  0  0  0  0  0  0  0  0  0
    3.6987    1.7112   24.5687 O   0  0  0  0  0  0  0  0  0  0  0  0
    0.1033   -0.9781   25.8101 C   0  0  2  0  0  0  0  0  0  0  0  0
    0.3233   -1.1680   24.3555 N   0  0  0  0  0  0  0  0  0  0  0  0
    6.5800    4.1908   26.8429 C   0  0  1  0  0  0  0  0  0  0  0  0
    7.2986    3.1166   26.2417 O   0  0  0  0  0  0  0  0  0  0  0  0
    5.2533    8.1812   24.6609 C   0  0  2  0  0  0  0  0  0  0  0  0
    6.6179    8.7452   24.6024 N   0  0  0  0  0  0  0  0  0  0  0  0
    2.3073    1.6545   26.5769 C   0  0  2  0  0  0  0  0  0  0  0  0
    1.2718    1.2124   25.6555 O   0  0  0  0  0  0  0  0  0  0  0  0
   -1.2186   -1.6615   26.2778 C   0  0  1  0  0  0  0  0  0  0  0  0
   -1.1580   -1.8467   27.6905 O   0  0  0  0  0  0  0  0  0  0  0  0
    6.3389    3.8484   28.3345 C   0  0  2  0  0  0  0  0  0  0  0  0
    5.5380    2.6735   28.4184 O   0  0  0  0  0  0  0  0  0  0  0  0
    5.2306    6.8121   25.4311 C   0  0  2  0  0  0  0  0  0  0  0  0
    1.7912    2.7994   27.4598 C   0  0  2  0  0  0  0  0  0  0  0  0
    2.0414    4.0115   26.7223 O   0  0  0  0  0  0  0  0  0  0  0  0
   -2.5068   -0.8484   25.9473 C   0  0  2  0  0  0  0  0  0  0  0  0
   -2.7543   -0.9404   24.5434 O   0  0  0  0  0  0  0  0  0  0  0  0
    5.6437    5.0375   29.0563 C   0  0  2  0  0  0  0  0  0  0  0  0
    6.4335    6.2478   28.8533 O   0  0  0  0  0  0  0  0  0  0  0  0
    3.8739    6.0371   25.2611 C   0  0  2  0  0  0  0  0  0  0  0  0
    4.0742    4.6721   25.7117 O   0  0  0  0  0  0  0  0  0  0  0  0
    2.4849    2.8623   28.8322 C   0  0  0  0  0  0  0  0  0  0  0  0
    2.0160    3.9674   29.5849 O   0  0  0  0  0  0  0  0  0  0  0  0
   -2.3429    0.6448   26.3689 C   0  0  1  0  0  0  0  0  0  0  0  0
   -1.1086    1.1817   25.8024 O   0  0  0  0  0  0  0  0  0  0  0  0
    5.4832    4.8652   30.5832 C   0  0  0  0  0  0  0  0  0  0  0  0
    4.5673    3.8279   30.8909 O   0  0  0  0  0  0  0  0  0  0  0  0
    3.3763    5.9981   23.7828 C   0  0  1  0  0  0  0  0  0  0  0  0
    2.0679    5.4298   23.7536 O   0  0  0  0  0  0  0  0  0  0  0  0
   -3.5333    1.5283   25.9157 C   0  0  0  0  0  0  0  0  0  0  0  0
   -4.8368    0.9574   26.3003 N   0  0  0  0  0  0  0  0  0  0  0  0
  1  2  1  6  0  0  0
  1  7  1  0  0  0  0
  1 30  1  0  0  0  0
  3  4  1  6  0  0  0
  3  9  1  0  0  0  0
  3 39  1  0  0  0  0
  5 10  1  0  0  0  0
  5 26  1  0  0  0  0
  5 32  1  1  0  0  0
  6 12  1  0  0  0  0
  6 36  1  0  0  0  0
  6 19  1  6  0  0  0
  7  8  1  6  0  0  0
  7 14  1  0  0  0  0
  9 16  1  0  0  0  0
 10 11  1  6  0  0  0
 10 18  1  0  0  0  0
 12 13  1  6  0  0  0
 12 20  1  0  0  0  0
 14 15  1  1  0  0  0
 14 22  1  0  0  0  0
 16 17  1  6  0  0  0
 16 24  1  0  0  0  0
 18 19  1  6  0  0  0
 18 25  1  0  0  0  0
 20 21  1  1  0  0  0
 20 27  1  0  0  0  0
 22 23  1  6  0  0  0
 22 29  1  0  0  0  0
 24  2  1  1  0  0  0
 24 31  1  0  0  0  0
 25 26  1  0  0  0  0
 25 33  1  1  0  0  0
 27 28  1  6  0  0  0
 27 35  1  0  0  0  0
 29 30  1  0  0  0  0
 29 37  1  1  0  0  0
 31 32  1  6  0  0  0
 31 39  1  0  0  0  0
 33 34  1  0  0  0  0
 35 36  1  0  0  0  0
 35 41  1  6  0  0  0
 37 38  1  0  0  0  0
 39 40  1  1  0  0  0
 41 42  1  0  0  0  0
M  END
>  <CHROM.1>
-20.89172908,-111.91127037,-159.74522141,80.95341437,74.13256004,-158.76751877
39.16663568,137.47321123,177.80477158,-112.02780752,59.03556820,68.50131653
177.47933119,-65.92918693,-67.58269982,-179.65456422,166.43722423,-162.05447581
50.65872222,71.29950072,-55.89141814,-102.60283388,2.83202826,3.53030086
26.26461454,-0.40168434,0.59633168,2.25050671

>  <Name>
1fyp_lig

>  <RI>
0

>  <Rbt.Current_Directory>
/home/itssahil/PROJECTS/Mol_Feturizer/New_Systems/rnas/1fyp

>  <Rbt.Executable>
rbdock ($Id: //depot/dev/client3/rdock/2013.1/src/exe/rbdock.cxx#4 $)

>  <Rbt.Library>
libRbt.so (2013.1, Build901 2013/11/27)

>  <Rbt.Parameter_File>
/export/apps/rDock/src/rDock_2013.1_src/data/scripts/dock_solv.prm

>  <Rbt.Receptor>
prm/blind_docking_60.prm

>  <SCORE>
-39.1184

>  <SCORE.INTER>
-35.6917

>  <SCORE.INTER.CONST>
1

>  <SCORE.INTER.POLAR>
-4.05808

>  <SCORE.INTER.ROT>
14

>  <SCORE.INTER.SOLV>
20.1129

>  <SCORE.INTER.VDW>
-29.9051

>  <SCORE.INTER.norm>
-0.849801

>  <SCORE.INTRA>
-3.42675

>  <SCORE.INTRA.DIHEDRAL>
-16.7197

>  <SCORE.INTRA.DIHEDRAL.0>
48.7173

>  <SCORE.INTRA.POLAR>
-0.380045

>  <SCORE.INTRA.POLAR.0>
-1.54691

>  <SCORE.INTRA.REPUL>
0.00232362

>  <SCORE.INTRA.REPUL.0>
0

>  <SCORE.INTRA.SOLV>
1.99069

>  <SCORE.INTRA.SOLV.lig_0>
-64.052

>  <SCORE.INTRA.VDW>
5.21829

>  <SCORE.INTRA.VDW.0>
-7.0667

>  <SCORE.INTRA.norm>
-0.0815894

>  <SCORE.RESTR>
0

>  <SCORE.RESTR.CAVITY>
0

>  <SCORE.RESTR.norm>
0

>  <SCORE.SYSTEM>
0

>  <SCORE.SYSTEM.CONST>
0

>  <SCORE.SYSTEM.DIHEDRAL>
0

>  <SCORE.SYSTEM.SOLV>
0

>  <SCORE.SYSTEM.norm>
0

>  <SCORE.heavy>
42

>  <SCORE.norm>
-0.931391

>  <RMSD>
2.907

$$$$
1fyp_lig
 OpenBabel11021811393D
libRbt.so/2013.1/901 2013/11/27
 42 45  0  0  0  0  0  0  0  0999 V2000
    6.2952    5.8722   27.2119 C   0  0  2  0  0  0  0  0  0  0  0  0
    4.9910    6.2502   26.6841 O   0  0  0  0  0  0  0  0  0  0  0  0
    3.1940    8.0715   23.2644 C   0  0  2  0  0  0  0  0  0  0  0  0
    2.8404    8.5591   21.9184 N   0  0  0  0  0  0  0  0  0  0  0  0
    2.2286    3.8226   25.0571 C   0  0  1  0  0  0  0  0  0  0  0  0
   -0.2696    0.2563   25.7894 C   0  0  1  0  0  0  0  0  0  0  0  0
    6.9126    4.6800   26.4122 C   0  0  2  0  0  0  0  0  0  0  0  0
    6.8920    4.9423   24.9573 N   0  0  0  0  0  0  0  0  0  0  0  0
    4.6423    8.4837   23.5952 C   0  0  0  0  0  0  0  0  0  0  0  0
    2.5413    2.3257   25.1289 C   0  0  2  0  0  0  0  0  0  0  0  0
    2.2451    1.7156   23.8722 O   0  0  0  0  0  0  0  0  0  0  0  0
   -0.4744   -0.3824   24.3818 C   0  0  2  0  0  0  0  0  0  0  0  0
   -1.1844    0.5198   23.4426 N   0  0  0  0  0  0  0  0  0  0  0  0
    6.1643    3.3484   26.7329 C   0  0  1  0  0  0  0  0  0  0  0  0
    6.8349    2.2484   26.1230 O   0  0  0  0  0  0  0  0  0  0  0  0
    5.0744    8.0248   25.0147 C   0  0  2  0  0  0  0  0  0  0  0  0
    6.4930    8.3963   25.1969 N   0  0  0  0  0  0  0  0  0  0  0  0
    1.5730    1.8549   26.2176 C   0  0  2  0  0  0  0  0  0  0  0  0
    0.2407    1.6112   25.6863 O   0  0  0  0  0  0  0  0  0  0  0  0
   -1.1941   -1.7615   24.4969 C   0  0  1  0  0  0  0  0  0  0  0  0
   -0.2698   -2.7131   25.0202 O   0  0  0  0  0  0  0  0  0  0  0  0
    6.0782    3.0887   28.2579 C   0  0  2  0  0  0  0  0  0  0  0  0
    5.3068    1.9134   28.4866 O   0  0  0  0  0  0  0  0  0  0  0  0
    4.8480    6.4888   25.2544 C   0  0  2  0  0  0  0  0  0  0  0  0
    1.5605    3.0530   27.1772 C   0  0  2  0  0  0  0  0  0  0  0  0
    1.7611    4.2198   26.3562 O   0  0  0  0  0  0  0  0  0  0  0  0
   -2.4529   -1.7477   25.4162 C   0  0  2  0  0  0  0  0  0  0  0  0
   -3.5050   -1.0621   24.7353 O   0  0  0  0  0  0  0  0  0  0  0  0
    5.4413    4.3104   28.9789 C   0  0  2  0  0  0  0  0  0  0  0  0
    6.1892    5.5144   28.6309 O   0  0  0  0  0  0  0  0  0  0  0  0
    3.4305    5.9988   24.7846 C   0  0  2  0  0  0  0  0  0  0  0  0
    3.4484    4.5485   24.7330 O   0  0  0  0  0  0  0  0  0  0  0  0
    2.6539    2.9718   28.2573 C   0  0  0  0  0  0  0  0  0  0  0  0
    2.4630    1.8378   29.0850 O   0  0  0  0  0  0  0  0  0  0  0  0
   -2.1403   -1.0434   26.7729 C   0  0  1  0  0  0  0  0  0  0  0  0
   -1.5428    0.2649   26.5202 O   0  0  0  0  0  0  0  0  0  0  0  0
    5.4365    4.2232   30.5214 C   0  0  0  0  0  0  0  0  0  0  0  0
    4.4335    5.0541   31.0810 O   0  0  0  0  0  0  0  0  0  0  0  0
    3.0380    6.5355   23.3731 C   0  0  1  0  0  0  0  0  0  0  0  0
    1.6809    6.1831   23.1089 O   0  0  0  0  0  0  0  0  0  0  0  0
   -3.4010   -0.8613   27.6565 C   0  0  0  0  0  0  0  0  0  0  0  0
   -3.1315   -0.0597   28.8639 N   0  0  0  0  0  0  0  0  0  0  0  0
  1  2  1  6  0  0  0
  1  7  1  0  0  0  0
  1 30  1  0  0  0  0
  3  4  1  6  0  0  0
  3  9  1  0  0  0  0
  3 39  1  0  0  0  0
  5 10  1  0  0  0  0
  5 26  1  0  0  0  0
  5 32  1  1  0  0  0
  6 12  1  0  0  0  0
  6 36  1  0  0  0  0
  6 19  1  6  0  0  0
  7  8  1  6  0  0  0
  7 14  1  0  0  0  0
  9 16  1  0  0  0  0
 10 11  1  6  0  0  0
 10 18  1  0  0  0  0
 12 13  1  6  0  0  0
 12 20  1  0  0  0  0
 14 15  1  6  0  0  0
 14 22  1  0  0  0  0
 16 17  1  6  0  0  0
 16 24  1  0  0  0  0
 18 19  1  6  0  0  0
 18 25  1  0  0  0  0
 20 21  1  1  0  0  0
 20 27  1  0  0  0  0
 22 23  1  6  0  0  0
 22 29  1  0  0  0  0
 24  2  1  1  0  0  0
 24 31  1  0  0  0  0
 25 26  1  0  0  0  0
 25 33  1  1  0  0  0
 27 28  1  6  0  0  0
 27 35  1  0  0  0  0
 29 30  1  0  0  0  0
 29 37  1  1  0  0  0
 31 32  1  6  0  0  0
 31 39  1  0  0  0  0
 33 34  1  0  0  0  0
 35 36  1  0  0  0  0
 35 41  1  6  0  0  0
 37 38  1  0  0  0  0
 39 40  1  1  0  0  0
 41 42  1  0  0  0  0
M  END
>  <CHROM.1>
-50.56277751,-92.48881223,78.56639023,126.29412077,-175.45404867,152.24375766
-82.36634615,74.86949072,118.24848714,-115.20396728,177.89901741,-176.54302783
-62.41455707,169.32780419,-157.42394596,146.49004225,-172.02329723,55.99405636
-173.37677110,-179.61101022,61.11096342,-119.53874669,2.53631904,3.24315151
26.06467619,-0.45852704,0.64985955,2.26741178

>  <Name>
1fyp_lig

>  <RI>
0

>  <Rbt.Current_Directory>
/home/itssahil/PROJECTS/Mol_Feturizer/New_Systems/rnas/1fyp

>  <Rbt.Executable>
rbdock ($Id: //depot/dev/client3/rdock/2013.1/src/exe/rbdock.cxx#4 $)

>  <Rbt.Library>
libRbt.so (2013.1, Build901 2013/11/27)

>  <Rbt.Parameter_File>
/export/apps/rDock/src/rDock_2013.1_src/data/scripts/dock_solv.prm

>  <Rbt.Receptor>
prm/pocket_docking_7.prm

>  <SCORE>
-54.4527

>  <SCORE.INTER>
-53.3142

>  <SCORE.INTER.CONST>
1

>  <SCORE.INTER.POLAR>
-7.78517

>  <SCORE.INTER.ROT>
14

>  <SCORE.INTER.SOLV>
20.9554

>  <SCORE.INTER.VDW>
-29.5107

>  <SCORE.INTER.norm>
-1.26939

>  <SCORE.INTRA>
-1.13848

>  <SCORE.INTRA.DIHEDRAL>
-13.7006

>  <SCORE.INTRA.DIHEDRAL.0>
48.7173

>  <SCORE.INTRA.POLAR>
1.1559

>  <SCORE.INTRA.POLAR.0>
-1.54691

>  <SCORE.INTRA.REPUL>
0

>  <SCORE.INTRA.REPUL.0>
0

>  <SCORE.INTRA.SOLV>
-0.643806

>  <SCORE.INTRA.SOLV.lig_0>
-64.052

>  <SCORE.INTRA.VDW>
2.10364

>  <SCORE.INTRA.VDW.0>
-7.0667

>  <SCORE.INTRA.norm>
-0.0271066

>  <SCORE.RESTR>
0

>  <SCORE.RESTR.CAVITY>
0

>  <SCORE.RESTR.norm>
0

>  <SCORE.SYSTEM>
0

>  <SCORE.SYSTEM.CONST>
0

>  <SCORE.SYSTEM.DIHEDRAL>
0

>  <SCORE.SYSTEM.SOLV>
0

>  <SCORE.SYSTEM.norm>
0

>  <SCORE.heavy>
42

>  <SCORE.norm>
-1.29649

>  <RMSD>
2.910

$$$$
1fyp_lig
 OpenBabel11021811393D
libRbt.so/2013.1/901 2013/11/27
 42 45  0  0  0  0  0  0  0  0999 V2000
    5.4464    6.8207   27.6130 C   0  0  2  0  0  0  0  0  0  0  0  0
    5.7520    5.7671   26.6544 O   0  0  0  0  0  0  0  0  0  0  0  0
    3.8265    7.6983   23.3675 C   0  0  2  0  0  0  0  0  0  0  0  0
    3.4033    8.2034   22.0484 N   0  0  0  0  0  0  0  0  0  0  0  0
    2.8623    3.5244   25.5877 C   0  0  1  0  0  0  0  0  0  0  0  0
    0.2878    0.1745   26.5431 C   0  0  1  0  0  0  0  0  0  0  0  0
    5.8026    6.3883   29.0718 C   0  0  2  0  0  0  0  0  0  0  0  0
    7.1830    5.8656   29.1542 N   0  0  0  0  0  0  0  0  0  0  0  0
    5.3230    8.0034   23.5777 C   0  0  0  0  0  0  0  0  0  0  0  0
    2.8966    2.0211   25.3005 C   0  0  2  0  0  0  0  0  0  0  0  0
    1.9868    1.7165   24.2427 O   0  0  0  0  0  0  0  0  0  0  0  0
    0.0111   -0.1016   25.0337 C   0  0  2  0  0  0  0  0  0  0  0  0
   -0.5744    1.0695   24.3365 N   0  0  0  0  0  0  0  0  0  0  0  0
    4.7887    5.3258   29.6002 C   0  0  1  0  0  0  0  0  0  0  0  0
    5.0295    5.0598   30.9797 O   0  0  0  0  0  0  0  0  0  0  0  0
    5.8322    7.5214   24.9636 C   0  0  2  0  0  0  0  0  0  0  0  0
    7.2844    7.7874   25.0285 N   0  0  0  0  0  0  0  0  0  0  0  0
    2.4171    1.4364   26.6319 C   0  0  2  0  0  0  0  0  0  0  0  0
    0.9658    1.4438   26.7332 O   0  0  0  0  0  0  0  0  0  0  0  0
   -0.8777   -1.3709   24.8549 C   0  0  1  0  0  0  0  0  0  0  0  0
   -0.0837   -2.5229   25.1308 O   0  0  0  0  0  0  0  0  0  0  0  0
    3.3221    5.7981   29.4381 C   0  0  2  0  0  0  0  0  0  0  0  0
    2.4483    4.7514   29.8499 O   0  0  0  0  0  0  0  0  0  0  0  0
    5.5132    6.0078   25.2380 C   0  0  2  0  0  0  0  0  0  0  0  0
    3.0340    2.4058   27.6499 C   0  0  2  0  0  0  0  0  0  0  0  0
    3.0746    3.6904   26.9988 O   0  0  0  0  0  0  0  0  0  0  0  0
   -2.1293   -1.4074   25.7833 C   0  0  2  0  0  0  0  0  0  0  0  0
   -3.0829   -0.4612   25.2976 O   0  0  0  0  0  0  0  0  0  0  0  0
    3.0425    6.1954   27.9609 C   0  0  2  0  0  0  0  0  0  0  0  0
    4.0272    7.1858   27.5374 O   0  0  0  0  0  0  0  0  0  0  0  0
    4.0304    5.6221   24.8877 C   0  0  2  0  0  0  0  0  0  0  0  0
    3.9372    4.1741   24.8513 O   0  0  0  0  0  0  0  0  0  0  0  0
    4.4484    1.9933   28.0949 C   0  0  0  0  0  0  0  0  0  0  0  0
    5.4008    2.2889   27.0884 O   0  0  0  0  0  0  0  0  0  0  0  0
   -1.7372   -1.0699   27.2553 C   0  0  1  0  0  0  0  0  0  0  0  0
   -0.9778    0.1770   27.2870 O   0  0  0  0  0  0  0  0  0  0  0  0
    1.6516    6.8190   27.7090 C   0  0  0  0  0  0  0  0  0  0  0  0
    1.4036    6.9817   26.3228 O   0  0  0  0  0  0  0  0  0  0  0  0
    3.5669    6.1788   23.5057 C   0  0  1  0  0  0  0  0  0  0  0  0
    2.1707    5.9268   23.3541 O   0  0  0  0  0  0  0  0  0  0  0  0
   -2.9691   -0.9355   28.1866 C   0  0  0  0  0  0  0  0  0  0  0  0
   -2.5981   -0.9233   29.6132 N   0  0  0  0  0  0  0  0  0  0  0  0
  1  2  1  6  0  0  0
  1  7  1  0  0  0  0
  1 30  1  0  0  0  0
  3  4  1  6  0  0  0
  3  9  1  0  0  0  0
  3 39  1  0  0  0  0
  5 10  1  0  0  0  0
  5 26  1  0  0  0  0
  5 32  1  6  0  0  0
  6 12  1  0  0  0  0
  6 36  1  0  0  0  0
  6 19  1  6  0  0  0
  7  8  1  6  0  0  0
  7 14  1  0  0  0  0
  9 16  1  0  0  0  0
 10 11  1  6  0  0  0
 10 18  1  0  0  0  0
 12 13  1  1  0  0  0
 12 20  1  0  0  0  0
 14 15  1  1  0  0  0
 14 22  1  0  0  0  0
 16 17  1  6  0  0  0
 16 24  1  0  0  0  0
 18 19  1  6  0  0  0
 18 25  1  0  0  0  0
 20 21  1  1  0  0  0
 20 27  1  0  0  0  0
 22 23  1  6  0  0  0
 22 29  1  0  0  0  0
 24  2  1  1  0  0  0
 24 31  1  0  0  0  0
 25 26  1  0  0  0  0
 25 33  1  6  0  0  0
 27 28  1  6  0  0  0
 27 35  1  0  0  0  0
 29 30  1  0  0  0  0
 29 37  1  1  0  0  0
 31 32  1  6  0  0  0
 31 39  1  0  0  0  0
 33 34  1  0  0  0  0
 35 36  1  0  0  0  0
 35 41  1  1  0  0  0
 37 38  1  0  0  0  0
 39 40  1  1  0  0  0
 41 42  1  0  0  0  0
M  END
>  <CHROM.1>
-178.55827242,35.10486299,-171.95193987,-58.45337403,63.42345843,75.17380665
-65.53025152,-18.83350561,103.86589040,-86.12593890,-52.50887641,164.07189564
75.94109497,163.95777170,-171.91934151,130.73081120,175.07666055,174.81133684
166.97997255,75.60200603,75.26089140,143.74493857,2.53472243,3.64044207,26.43635215
-0.27561560,0.83474614,1.91415156

>  <Name>
1fyp_lig

>  <RI>
0

>  <Rbt.Current_Directory>
/home/itssahil/PROJECTS/Mol_Feturizer/New_Systems/rnas/1fyp

>  <Rbt.Executable>
rbdock ($Id: //depot/dev/client3/rdock/2013.1/src/exe/rbdock.cxx#4 $)

>  <Rbt.Library>
libRbt.so (2013.1, Build901 2013/11/27)

>  <Rbt.Parameter_File>
/export/apps/rDock/src/rDock_2013.1_src/data/scripts/dock_solv.prm

>  <Rbt.Receptor>
prm/blind_docking_80.prm

>  <SCORE>
-55.4683

>  <SCORE.INTER>
-49.3711

>  <SCORE.INTER.CONST>
1

>  <SCORE.INTER.POLAR>
-5.39653

>  <SCORE.INTER.ROT>
14

>  <SCORE.INTER.SOLV>
17.6181

>  <SCORE.INTER.VDW>
-33.7316

>  <SCORE.INTER.norm>
-1.1755

>  <SCORE.INTRA>
-6.09727

>  <SCORE.INTRA.DIHEDRAL>
-19.6404

>  <SCORE.INTRA.DIHEDRAL.0>
48.7173

>  <SCORE.INTRA.POLAR>
0.897193

>  <SCORE.INTRA.POLAR.0>
-1.54691

>  <SCORE.INTRA.REPUL>
0

>  <SCORE.INTRA.REPUL.0>
0

>  <SCORE.INTRA.SOLV>
1.43761

>  <SCORE.INTRA.SOLV.lig_0>
-64.052

>  <SCORE.INTRA.VDW>
-0.0463244

>  <SCORE.INTRA.VDW.0>
-7.0667

>  <SCORE.INTRA.norm>
-0.145173

>  <SCORE.RESTR>
0

>  <SCORE.RESTR.CAVITY>
0

>  <SCORE.RESTR.norm>
0

>  <SCORE.SYSTEM>
0

>  <SCORE.SYSTEM.CONST>
0

>  <SCORE.SYSTEM.DIHEDRAL>
0

>  <SCORE.SYSTEM.SOLV>
0

>  <SCORE.SYSTEM.norm>
0

>  <SCORE.heavy>
42

>  <SCORE.norm>
-1.32067

>  <RMSD>
2.914

$$$$
1fyp_lig
 OpenBabel11021811393D
libRbt.so/2013.1/901 2013/11/27
 42 45  0  0  0  0  0  0  0  0999 V2000
    3.5441    4.8906   28.7721 C   0  0  2  0  0  0  0  0  0  0  0  0
    3.9717    6.1367   28.1502 O   0  0  0  0  0  0  0  0  0  0  0  0
    3.7357    7.2255   24.0271 C   0  0  2  0  0  0  0  0  0  0  0  0
    3.9640    7.4519   22.5880 N   0  0  0  0  0  0  0  0  0  0  0  0
    2.0748    3.3240   26.2424 C   0  0  1  0  0  0  0  0  0  0  0  0
   -0.9617    0.1437   25.5819 C   0  0  1  0  0  0  0  0  0  0  0  0
    3.6649    4.9569   30.3288 C   0  0  2  0  0  0  0  0  0  0  0  0
    3.0087    6.1677   30.8665 N   0  0  0  0  0  0  0  0  0  0  0  0
    4.9284    7.7829   24.8295 C   0  0  0  0  0  0  0  0  0  0  0  0
    2.0830    2.0835   25.3452 C   0  0  2  0  0  0  0  0  0  0  0  0
    1.4499    2.3895   24.1022 O   0  0  0  0  0  0  0  0  0  0  0  0
   -0.6713   -0.2712   24.1073 C   0  0  2  0  0  0  0  0  0  0  0  0
   -0.6939    0.8816   23.1742 N   0  0  0  0  0  0  0  0  0  0  0  0
    5.1603    4.9089   30.7731 C   0  0  1  0  0  0  0  0  0  0  0  0
    5.2486    4.8098   32.1923 O   0  0  0  0  0  0  0  0  0  0  0  0
    4.7422    7.6023   26.3609 C   0  0  2  0  0  0  0  0  0  0  0  0
    5.9677    8.0924   27.0255 N   0  0  0  0  0  0  0  0  0  0  0  0
    1.2481    1.0971   26.1665 C   0  0  2  0  0  0  0  0  0  0  0  0
   -0.1786    1.3027   25.9694 O   0  0  0  0  0  0  0  0  0  0  0  0
   -1.6483   -1.3954   23.6437 C   0  0  1  0  0  0  0  0  0  0  0  0
   -1.2691   -2.6154   24.2774 O   0  0  0  0  0  0  0  0  0  0  0  0
    5.9089    3.7053   30.1476 C   0  0  2  0  0  0  0  0  0  0  0  0
    7.2836    3.7709   30.5149 O   0  0  0  0  0  0  0  0  0  0  0  0
    4.4242    6.1180   26.7659 C   0  0  2  0  0  0  0  0  0  0  0  0
    1.6513    1.4534   27.6042 C   0  0  2  0  0  0  0  0  0  0  0  0
    1.9367    2.8656   27.5968 O   0  0  0  0  0  0  0  0  0  0  0  0
   -3.1448   -1.1162   23.9791 C   0  0  2  0  0  0  0  0  0  0  0  0
   -3.6252   -0.0986   23.0991 O   0  0  0  0  0  0  0  0  0  0  0  0
    5.7545    3.7180   28.6003 C   0  0  2  0  0  0  0  0  0  0  0  0
    4.3358    3.7656   28.2617 O   0  0  0  0  0  0  0  0  0  0  0  0
    3.3154    5.4625   25.8652 C   0  0  2  0  0  0  0  0  0  0  0  0
    3.3397    4.0290   26.0909 O   0  0  0  0  0  0  0  0  0  0  0  0
    2.8792    0.6680   28.0983 C   0  0  0  0  0  0  0  0  0  0  0  0
    2.9486    0.6772   29.5135 O   0  0  0  0  0  0  0  0  0  0  0  0
   -3.3047   -0.6642   25.4639 C   0  0  1  0  0  0  0  0  0  0  0  0
   -2.3906    0.4403   25.7415 O   0  0  0  0  0  0  0  0  0  0  0  0
    6.3399    2.4828   27.8799 C   0  0  0  0  0  0  0  0  0  0  0  0
    5.9637    2.4575   26.5134 O   0  0  0  0  0  0  0  0  0  0  0  0
    3.5352    5.7236   24.3427 C   0  0  1  0  0  0  0  0  0  0  0  0
    2.3993    5.2424   23.6257 O   0  0  0  0  0  0  0  0  0  0  0  0
   -4.7512   -0.2204   25.8013 C   0  0  0  0  0  0  0  0  0  0  0  0
   -4.8012    0.7241   26.9321 N   0  0  0  0  0  0  0  0  0  0  0  0
  1  2  1  6  0  0  0
  1  7  1  0  0  0  0
  1 30  1  0  0  0  0
  3  4  1  6  0  0  0
  3  9  1  0  0  0  0
  3 39  1  0  0  0  0
  5 10  1  0  0  0  0
  5 26  1  0  0  0  0
  5 32  1  1  0  0  0
  6 12  1  0  0  0  0
  6 36  1  0  0  0  0
  6 19  1  6  0  0  0
  7  8  1  6  0  0  0
  7 14  1  0  0  0  0
  9 16  1  0  0  0  0
 10 11  1  6  0  0  0
 10 18  1  0  0  0  0
 12 13  1  6  0  0  0
 12 20  1  0  0  0  0
 14 15  1  1  0  0  0
 14 22  1  0  0  0  0
 16 17  1  1  0  0  0
 16 24  1  0  0  0  0
 18 19  1  1  0  0  0
 18 25  1  0  0  0  0
 20 21  1  1  0  0  0
 20 27  1  0  0  0  0
 22 23  1  6  0  0  0
 22 29  1  0  0  0  0
 24  2  1  1  0  0  0
 24 31  1  0  0  0  0
 25 26  1  0  0  0  0
 25 33  1  6  0  0  0
 27 28  1  6  0  0  0
 27 35  1  0  0  0  0
 29 30  1  0  0  0  0
 29 37  1  6  0  0  0
 31 32  1  6  0  0  0
 31 39  1  0  0  0  0
 33 34  1  0  0  0  0
 35 36  1  0  0  0  0
 35 41  1  6  0  0  0
 37 38  1  0  0  0  0
 39 40  1  6  0  0  0
 41 42  1  0  0  0  0
M  END
>  <CHROM.1>
156.41145142,177.11597412,-41.71957218,-10.96126963,53.44216974,95.96262866
78.69280715,42.21703593,126.92824518,-71.96813143,-177.42293923,61.06875504
-160.46827585,-58.16250715,170.05084948,136.61050696,131.77993698,-143.45804576
-154.82773501,-39.96972849,58.66103504,123.98915085,2.12973858,3.04479816
26.59854194,-0.01725386,0.73805278,2.14259494

>  <Name>
1fyp_lig

>  <RI>
0

>  <Rbt.Current_Directory>
/home/itssahil/PROJECTS/Mol_Feturizer/New_Systems/rnas/1fyp

>  <Rbt.Executable>
rbdock ($Id: //depot/dev/client3/rdock/2013.1/src/exe/rbdock.cxx#4 $)

>  <Rbt.Library>
libRbt.so (2013.1, Build901 2013/11/27)

>  <Rbt.Parameter_File>
/export/apps/rDock/src/rDock_2013.1_src/data/scripts/dock_solv.prm

>  <Rbt.Receptor>
prm/blind_docking_100.prm

>  <SCORE>
-64.7341

>  <SCORE.INTER>
-57.1445

>  <SCORE.INTER.CONST>
1

>  <SCORE.INTER.POLAR>
-7.44783

>  <SCORE.INTER.ROT>
14

>  <SCORE.INTER.SOLV>
21.5331

>  <SCORE.INTER.VDW>
-33.3812

>  <SCORE.INTER.norm>
-1.36058

>  <SCORE.INTRA>
-7.58966

>  <SCORE.INTRA.DIHEDRAL>
-7.00192

>  <SCORE.INTRA.DIHEDRAL.0>
48.7173

>  <SCORE.INTRA.POLAR>
-1.92162

>  <SCORE.INTRA.POLAR.0>
-1.54691

>  <SCORE.INTRA.REPUL>
0

>  <SCORE.INTRA.REPUL.0>
0

>  <SCORE.INTRA.SOLV>
-0.251094

>  <SCORE.INTRA.SOLV.lig_0>
-64.052

>  <SCORE.INTRA.VDW>
2.57036

>  <SCORE.INTRA.VDW.0>
-7.0667

>  <SCORE.INTRA.norm>
-0.180706

>  <SCORE.RESTR>
0

>  <SCORE.RESTR.CAVITY>
0

>  <SCORE.RESTR.norm>
0

>  <SCORE.SYSTEM>
0

>  <SCORE.SYSTEM.CONST>
0

>  <SCORE.SYSTEM.DIHEDRAL>
0

>  <SCORE.SYSTEM.SOLV>
0

>  <SCORE.SYSTEM.norm>
0

>  <SCORE.heavy>
42

>  <SCORE.norm>
-1.54129

>  <RMSD>
2.917

$$$$
1fyp_lig
 OpenBabel11021811393D
libRbt.so/2013.1/901 2013/11/27
 42 45  0  0  0  0  0  0  0  0999 V2000
    5.9217    6.8331   28.3340 C   0  0  2  0  0  0  0  0  0  0  0  0
    6.4408    5.8107   27.4353 O   0  0  0  0  0  0  0  0  0  0  0  0
    4.2377    7.3064   24.0962 C   0  0  2  0  0  0  0  0  0  0  0  0
    3.6946    7.6262   22.7631 N   0  0  0  0  0  0  0  0  0  0  0  0
    3.1334    3.4107   25.7871 C   0  0  1  0  0  0  0  0  0  0  0  0
   -0.1450    0.5897   25.1833 C   0  0  1  0  0  0  0  0  0  0  0  0
    7.0407    7.3953   29.2688 C   0  0  2  0  0  0  0  0  0  0  0  0
    8.2305    7.8066   28.4936 N   0  0  0  0  0  0  0  0  0  0  0  0
    5.7549    7.5800   24.1111 C   0  0  0  0  0  0  0  0  0  0  0  0
    3.3838    2.0260   25.1840 C   0  0  2  0  0  0  0  0  0  0  0  0
    3.3566    2.1142   23.7589 O   0  0  0  0  0  0  0  0  0  0  0  0
   -0.1757   -0.6562   24.2463 C   0  0  2  0  0  0  0  0  0  0  0  0
    0.0494   -0.3061   22.8226 N   0  0  0  0  0  0  0  0  0  0  0  0
    7.4376    6.3463   30.3542 C   0  0  1  0  0  0  0  0  0  0  0  0
    8.3399    6.9270   31.2925 O   0  0  0  0  0  0  0  0  0  0  0  0
    6.3909    7.2896   25.4980 C   0  0  2  0  0  0  0  0  0  0  0  0
    7.8482    7.5046   25.3802 N   0  0  0  0  0  0  0  0  0  0  0  0
    2.1872    1.2318   25.7148 C   0  0  2  0  0  0  0  0  0  0  0  0
    0.9992    1.4366   24.9003 O   0  0  0  0  0  0  0  0  0  0  0  0
   -1.5010   -1.4577   24.4308 C   0  0  1  0  0  0  0  0  0  0  0  0
   -1.4463   -2.1432   25.6800 O   0  0  0  0  0  0  0  0  0  0  0  0
    6.2012    5.8163   31.1227 C   0  0  2  0  0  0  0  0  0  0  0  0
    6.6177    4.7997   32.0292 O   0  0  0  0  0  0  0  0  0  0  0  0
    6.0646    5.8474   26.0287 C   0  0  2  0  0  0  0  0  0  0  0  0
    1.9941    1.8364   27.1125 C   0  0  2  0  0  0  0  0  0  0  0  0
    2.4010    3.2145   27.0073 O   0  0  0  0  0  0  0  0  0  0  0  0
   -2.7859   -0.5752   24.4146 C   0  0  2  0  0  0  0  0  0  0  0  0
   -3.0283   -0.1505   23.0724 O   0  0  0  0  0  0  0  0  0  0  0  0
    5.1430    5.2620   30.1272 C   0  0  2  0  0  0  0  0  0  0  0  0
    4.8244    6.2930   29.1447 O   0  0  0  0  0  0  0  0  0  0  0  0
    4.5448    5.4729   25.8870 C   0  0  2  0  0  0  0  0  0  0  0  0
    4.4130    4.0405   26.0801 O   0  0  0  0  0  0  0  0  0  0  0  0
    2.8195    1.1224   28.1977 C   0  0  0  0  0  0  0  0  0  0  0  0
    2.4283    1.5477   29.4914 O   0  0  0  0  0  0  0  0  0  0  0  0
   -2.6196    0.6626   25.3497 C   0  0  1  0  0  0  0  0  0  0  0  0
   -1.3818    1.3637   25.0199 O   0  0  0  0  0  0  0  0  0  0  0  0
    3.8049    4.8376   30.7726 C   0  0  0  0  0  0  0  0  0  0  0  0
    3.0247    5.9660   31.1298 O   0  0  0  0  0  0  0  0  0  0  0  0
    3.9564    5.8358   24.4882 C   0  0  1  0  0  0  0  0  0  0  0  0
    2.5463    5.6196   24.5130 O   0  0  0  0  0  0  0  0  0  0  0  0
   -3.8060    1.6549   25.2450 C   0  0  0  0  0  0  0  0  0  0  0  0
   -5.0460    1.1139   25.8305 N   0  0  0  0  0  0  0  0  0  0  0  0
  1  2  1  1  0  0  0
  1  7  1  0  0  0  0
  1 30  1  0  0  0  0
  3  4  1  6  0  0  0
  3  9  1  0  0  0  0
  3 39  1  0  0  0  0
  5 10  1  0  0  0  0
  5 26  1  0  0  0  0
  5 32  1  1  0  0  0
  6 12  1  0  0  0  0
  6 36  1  0  0  0  0
  6 19  1  6  0  0  0
  7  8  1  6  0  0  0
  7 14  1  0  0  0  0
  9 16  1  0  0  0  0
 10 11  1  6  0  0  0
 10 18  1  0  0  0  0
 12 13  1  6  0  0  0
 12 20  1  0  0  0  0
 14 15  1  1  0  0  0
 14 22  1  0  0  0  0
 16 17  1  6  0  0  0
 16 24  1  0  0  0  0
 18 19  1  6  0  0  0
 18 25  1  0  0  0  0
 20 21  1  1  0  0  0
 20 27  1  0  0  0  0
 22 23  1  1  0  0  0
 22 29  1  0  0  0  0
 24  2  1  1  0  0  0
 24 31  1  0  0  0  0
 25 26  1  0  0  0  0
 25 33  1  1  0  0  0
 27 28  1  6  0  0  0
 27 35  1  0  0  0  0
 29 30  1  0  0  0  0
 29 37  1  1  0  0  0
 31 32  1  6  0  0  0
 31 39  1  0  0  0  0
 33 34  1  0  0  0  0
 35 36  1  0  0  0  0
 35 41  1  6  0  0  0
 37 38  1  0  0  0  0
 39 40  1  1  0  0  0
 41 42  1  0  0  0  0
M  END
>  <CHROM.1>
-135.05308617,52.73105814,-55.09448931,78.20646864,-66.40074955,-80.76664939
60.86708016,51.50200519,171.25428606,-95.18446183,-62.22648457,57.39006676
-169.29633534,-78.18978050,74.70182306,-170.27532256,143.73557031,-60.33705981
70.10379462,165.80217814,57.27445229,136.76704811,2.92239588,3.72162399,26.61039231
-0.19707462,-0.72648286,-1.31991686

>  <Name>
1fyp_lig

>  <RI>
0

>  <Rbt.Current_Directory>
/home/itssahil/PROJECTS/Mol_Feturizer/New_Systems/rnas/1fyp

>  <Rbt.Executable>
rbdock ($Id: //depot/dev/client3/rdock/2013.1/src/exe/rbdock.cxx#4 $)

>  <Rbt.Library>
libRbt.so (2013.1, Build901 2013/11/27)

>  <Rbt.Parameter_File>
/export/apps/rDock/src/rDock_2013.1_src/data/scripts/dock_solv.prm

>  <Rbt.Receptor>
prm/pocket_docking_4.prm

>  <SCORE>
-45.2996

>  <SCORE.INTER>
-38.7712

>  <SCORE.INTER.CONST>
1

>  <SCORE.INTER.POLAR>
-4.00573

>  <SCORE.INTER.ROT>
14

>  <SCORE.INTER.SOLV>
17.9804

>  <SCORE.INTER.VDW>
-31.4218

>  <SCORE.INTER.norm>
-0.923123

>  <SCORE.INTRA>
-6.54935

>  <SCORE.INTRA.DIHEDRAL>
-24.123

>  <SCORE.INTRA.DIHEDRAL.0>
48.7173

>  <SCORE.INTRA.POLAR>
0.255244

>  <SCORE.INTRA.POLAR.0>
-1.54691

>  <SCORE.INTRA.REPUL>
0.00149999

>  <SCORE.INTRA.REPUL.0>
0

>  <SCORE.INTRA.SOLV>
-1.85215

>  <SCORE.INTRA.SOLV.lig_0>
-64.052

>  <SCORE.INTRA.VDW>
5.56288

>  <SCORE.INTRA.VDW.0>
-7.0667

>  <SCORE.INTRA.norm>
-0.155937

>  <SCORE.RESTR>
0.0209606

>  <SCORE.RESTR.CAVITY>
0.0209606

>  <SCORE.RESTR.norm>
0.000499061

>  <SCORE.SYSTEM>
0

>  <SCORE.SYSTEM.CONST>
0

>  <SCORE.SYSTEM.DIHEDRAL>
0

>  <SCORE.SYSTEM.SOLV>
0

>  <SCORE.SYSTEM.norm>
0

>  <SCORE.heavy>
42

>  <SCORE.norm>
-1.07856

>  <RMSD>
2.926

$$$$
1fyp_lig
 OpenBabel11021811393D
libRbt.so/2013.1/901 2013/11/27
 42 45  0  0  0  0  0  0  0  0999 V2000
    6.9187    5.7683   26.6672 C   0  0  2  0  0  0  0  0  0  0  0  0
    5.7770    6.6017   26.3145 O   0  0  0  0  0  0  0  0  0  0  0  0
    3.5381    8.2368   23.0658 C   0  0  2  0  0  0  0  0  0  0  0  0
    2.9649    8.5945   21.7550 N   0  0  0  0  0  0  0  0  0  0  0  0
    2.2466    4.4483   25.1321 C   0  0  1  0  0  0  0  0  0  0  0  0
   -1.1485    1.5509   25.2260 C   0  0  1  0  0  0  0  0  0  0  0  0
    6.5779    4.2483   26.5429 C   0  0  2  0  0  0  0  0  0  0  0  0
    5.9757    3.9394   25.2285 N   0  0  0  0  0  0  0  0  0  0  0  0
    5.0674    8.4280   23.0262 C   0  0  0  0  0  0  0  0  0  0  0  0
    2.2331    2.9630   24.7613 C   0  0  2  0  0  0  0  0  0  0  0  0
    1.8880    2.8183   23.3831 O   0  0  0  0  0  0  0  0  0  0  0  0
   -2.1121    1.7767   26.4308 C   0  0  2  0  0  0  0  0  0  0  0  0
   -1.3966    2.1718   27.6686 N   0  0  0  0  0  0  0  0  0  0  0  0
    5.6262    3.7958   27.6943 C   0  0  1  0  0  0  0  0  0  0  0  0
    5.4523    2.3814   27.6611 O   0  0  0  0  0  0  0  0  0  0  0  0
    5.7369    8.0943   24.3874 C   0  0  2  0  0  0  0  0  0  0  0  0
    7.1983    8.2311   24.2172 N   0  0  0  0  0  0  0  0  0  0  0  0
    1.1266    2.4226   25.6712 C   0  0  2  0  0  0  0  0  0  0  0  0
   -0.1944    2.6375   25.1008 O   0  0  0  0  0  0  0  0  0  0  0  0
   -3.0074    0.5218   26.6690 C   0  0  1  0  0  0  0  0  0  0  0  0
   -3.9861    0.4598   25.6337 O   0  0  0  0  0  0  0  0  0  0  0  0
    6.1776    4.1918   29.0869 C   0  0  2  0  0  0  0  0  0  0  0  0
    5.2238    3.8361   30.0831 O   0  0  0  0  0  0  0  0  0  0  0  0
    5.3524    6.6682   24.9228 C   0  0  2  0  0  0  0  0  0  0  0  0
    1.3110    3.2681   26.9391 C   0  0  2  0  0  0  0  0  0  0  0  0
    1.7991    4.5484   26.4935 O   0  0  0  0  0  0  0  0  0  0  0  0
   -2.2239   -0.8259   26.6808 C   0  0  2  0  0  0  0  0  0  0  0  0
   -1.4836   -0.9101   27.8996 O   0  0  0  0  0  0  0  0  0  0  0  0
    6.4771    5.7170   29.1356 C   0  0  2  0  0  0  0  0  0  0  0  0
    7.3669    6.0651   28.0325 O   0  0  0  0  0  0  0  0  0  0  0  0
    3.8104    6.3772   24.8352 C   0  0  2  0  0  0  0  0  0  0  0  0
    3.6082    4.9528   25.0262 O   0  0  0  0  0  0  0  0  0  0  0  0
    2.2989    2.6448   27.9412 C   0  0  0  0  0  0  0  0  0  0  0  0
    1.9708    1.2906   28.1981 O   0  0  0  0  0  0  0  0  0  0  0  0
   -1.2600   -0.9170   25.4574 C   0  0  1  0  0  0  0  0  0  0  0  0
   -0.4293    0.2825   25.3971 O   0  0  0  0  0  0  0  0  0  0  0  0
    7.1672    6.2016   30.4302 C   0  0  0  0  0  0  0  0  0  0  0  0
    6.3887    5.8949   31.5745 O   0  0  0  0  0  0  0  0  0  0  0  0
    3.1920    6.7809   23.4607 C   0  0  1  0  0  0  0  0  0  0  0  0
    1.7741    6.6410   23.5363 O   0  0  0  0  0  0  0  0  0  0  0  0
   -0.3423   -2.1653   25.5107 C   0  0  0  0  0  0  0  0  0  0  0  0
   -0.3262   -2.9073   24.2370 N   0  0  0  0  0  0  0  0  0  0  0  0
  1  2  1  1  0  0  0
  1  7  1  0  0  0  0
  1 30  1  0  0  0  0
  3  4  1  6  0  0  0
  3  9  1  0  0  0  0
  3 39  1  0  0  0  0
  5 10  1  0  0  0  0
  5 26  1  0  0  0  0
  5 32  1  1  0  0  0
  6 12  1  0  0  0  0
  6 36  1  0  0  0  0
  6 19  1  1  0  0  0
  7  8  1  6  0  0  0
  7 14  1  0  0  0  0
  9 16  1  0  0  0  0
 10 11  1  6  0  0  0
 10 18  1  0  0  0  0
 12 13  1  1  0  0  0
 12 20  1  0  0  0  0
 14 15  1  1  0  0  0
 14 22  1  0  0  0  0
 16 17  1  6  0  0  0
 16 24  1  0  0  0  0
 18 19  1  6  0  0  0
 18 25  1  0  0  0  0
 20 21  1  6  0  0  0
 20 27  1  0  0  0  0
 22 23  1  1  0  0  0
 22 29  1  0  0  0  0
 24  2  1  1  0  0  0
 24 31  1  0  0  0  0
 25 26  1  0  0  0  0
 25 33  1  1  0  0  0
 27 28  1  1  0  0  0
 27 35  1  0  0  0  0
 29 30  1  0  0  0  0
 29 37  1  1  0  0  0
 31 32  1  6  0  0  0
 31 39  1  0  0  0  0
 33 34  1  0  0  0  0
 35 36  1  0  0  0  0
 35 41  1  1  0  0  0
 37 38  1  0  0  0  0
 39 40  1  1  0  0  0
 41 42  1  0  0  0  0
M  END
>  <CHROM.1>
-70.37468215,-108.59939406,-47.23041309,37.34724536,-175.89789101,170.18466209
-175.32334960,61.76014787,138.75413083,97.93417239,-55.66611121,77.57224970
-50.72602412,69.96023064,-58.23531136,173.47442818,157.26608138,-67.86343978
131.61812456,-68.70600064,57.60076895,-126.33602975,2.70796846,3.72214817
26.14635439,-0.40733862,0.62635136,2.25064644

>  <Name>
1fyp_lig

>  <RI>
0

>  <Rbt.Current_Directory>
/home/itssahil/PROJECTS/Mol_Feturizer/New_Systems/rnas/1fyp

>  <Rbt.Executable>
rbdock ($Id: //depot/dev/client3/rdock/2013.1/src/exe/rbdock.cxx#4 $)

>  <Rbt.Library>
libRbt.so (2013.1, Build901 2013/11/27)

>  <Rbt.Parameter_File>
/export/apps/rDock/src/rDock_2013.1_src/data/scripts/dock_solv.prm

>  <Rbt.Receptor>
prm/pocket_docking_2.prm

>  <SCORE>
-41.8074

>  <SCORE.INTER>
-46.5929

>  <SCORE.INTER.CONST>
1

>  <SCORE.INTER.POLAR>
-7.28409

>  <SCORE.INTER.ROT>
14

>  <SCORE.INTER.SOLV>
18.1377

>  <SCORE.INTER.VDW>
-25.7609

>  <SCORE.INTER.norm>
-1.10935

>  <SCORE.INTRA>
3.32679

>  <SCORE.INTRA.DIHEDRAL>
-16.5203

>  <SCORE.INTRA.DIHEDRAL.0>
48.7173

>  <SCORE.INTRA.POLAR>
1.35948

>  <SCORE.INTRA.POLAR.0>
-1.54691

>  <SCORE.INTRA.REPUL>
1.06249

>  <SCORE.INTRA.REPUL.0>
0

>  <SCORE.INTRA.SOLV>
0.0771447

>  <SCORE.INTRA.SOLV.lig_0>
-64.052

>  <SCORE.INTRA.VDW>
1.61367

>  <SCORE.INTRA.VDW.0>
-7.0667

>  <SCORE.INTRA.norm>
0.0792092

>  <SCORE.RESTR>
1.45867

>  <SCORE.RESTR.CAVITY>
1.45867

>  <SCORE.RESTR.norm>
0.0347303

>  <SCORE.SYSTEM>
0

>  <SCORE.SYSTEM.CONST>
0

>  <SCORE.SYSTEM.DIHEDRAL>
0

>  <SCORE.SYSTEM.SOLV>
0

>  <SCORE.SYSTEM.norm>
0

>  <SCORE.heavy>
42

>  <SCORE.norm>
-0.995415

>  <RMSD>
2.934

$$$$
1fyp_lig
 OpenBabel11021811393D
libRbt.so/2013.1/901 2013/11/27
 42 45  0  0  0  0  0  0  0  0999 V2000
    9.0685    7.9425   27.2960 C   0  0  2  0  0  0  0  0  0  0  0  0
    8.8933    6.8480   26.3507 O   0  0  0  0  0  0  0  0  0  0  0  0
    5.4277    8.5566   24.5312 C   0  0  2  0  0  0  0  0  0  0  0  0
    4.3357    8.9664   23.6289 N   0  0  0  0  0  0  0  0  0  0  0  0
    5.1234    4.5153   26.0469 C   0  0  1  0  0  0  0  0  0  0  0  0
    1.8492    1.6173   26.5002 C   0  0  1  0  0  0  0  0  0  0  0  0
   10.5167    7.9659   27.8827 C   0  0  2  0  0  0  0  0  0  0  0  0
   11.5313    7.9146   26.8087 N   0  0  0  0  0  0  0  0  0  0  0  0
    6.7845    8.8475   23.8594 C   0  0  0  0  0  0  0  0  0  0  0  0
    5.2605    3.0496   25.6265 C   0  0  2  0  0  0  0  0  0  0  0  0
    4.9393    2.9185   24.2412 O   0  0  0  0  0  0  0  0  0  0  0  0
    0.8439    1.1362   25.4098 C   0  0  2  0  0  0  0  0  0  0  0  0
    0.3745    2.2409   24.5381 N   0  0  0  0  0  0  0  0  0  0  0  0
   10.7295    6.7888   28.8854 C   0  0  1  0  0  0  0  0  0  0  0  0
   11.9947    6.9146   29.5298 O   0  0  0  0  0  0  0  0  0  0  0  0
    7.9844    8.4643   24.7681 C   0  0  2  0  0  0  0  0  0  0  0  0
    9.2253    8.7057   24.0029 N   0  0  0  0  0  0  0  0  0  0  0  0
    4.2084    2.3708   26.5079 C   0  0  2  0  0  0  0  0  0  0  0  0
    2.8758    2.4723   25.9331 O   0  0  0  0  0  0  0  0  0  0  0  0
   -0.3545    0.3751   26.0559 C   0  0  1  0  0  0  0  0  0  0  0  0
    0.1021   -0.9039   26.4908 O   0  0  0  0  0  0  0  0  0  0  0  0
    9.6252    6.7500   29.9713 C   0  0  2  0  0  0  0  0  0  0  0  0
    9.8226    5.6045   30.7945 O   0  0  0  0  0  0  0  0  0  0  0  0
    7.9086    6.9830   25.2860 C   0  0  2  0  0  0  0  0  0  0  0  0
    4.3003    3.1867   27.8050 C   0  0  2  0  0  0  0  0  0  0  0  0
    4.6605    4.5237   27.4069 O   0  0  0  0  0  0  0  0  0  0  0  0
   -0.9897    1.1073   27.2767 C   0  0  2  0  0  0  0  0  0  0  0  0
   -1.7366    2.2264   26.7968 O   0  0  0  0  0  0  0  0  0  0  0  0
    8.2183    6.7131   29.3100 C   0  0  2  0  0  0  0  0  0  0  0  0
    8.0937    7.8372   28.3877 O   0  0  0  0  0  0  0  0  0  0  0  0
    6.4882    6.6007   25.8398 C   0  0  2  0  0  0  0  0  0  0  0  0
    6.4283    5.1564   25.9701 O   0  0  0  0  0  0  0  0  0  0  0  0
    5.3400    2.6312   28.7945 C   0  0  0  0  0  0  0  0  0  0  0  0
    6.5266    2.2511   28.1198 O   0  0  0  0  0  0  0  0  0  0  0  0
    0.1132    1.5827   28.2727 C   0  0  1  0  0  0  0  0  0  0  0  0
    1.1290    2.3453   27.5522 O   0  0  0  0  0  0  0  0  0  0  0  0
    7.0345    6.8179   30.2974 C   0  0  0  0  0  0  0  0  0  0  0  0
    7.2035    7.9058   31.1903 O   0  0  0  0  0  0  0  0  0  0  0  0
    5.3267    7.0578   24.9036 C   0  0  1  0  0  0  0  0  0  0  0  0
    4.0844    6.8225   25.5648 O   0  0  0  0  0  0  0  0  0  0  0  0
   -0.4543    2.4556   29.4213 C   0  0  0  0  0  0  0  0  0  0  0  0
   -1.4739    1.7472   30.2160 N   0  0  0  0  0  0  0  0  0  0  0  0
  1  2  1  6  0  0  0
  1  7  1  0  0  0  0
  1 30  1  0  0  0  0
  3  4  1  6  0  0  0
  3  9  1  0  0  0  0
  3 39  1  0  0  0  0
  5 10  1  0  0  0  0
  5 26  1  0  0  0  0
  5 32  1  1  0  0  0
  6 12  1  0  0  0  0
  6 36  1  0  0  0  0
  6 19  1  6  0  0  0
  7  8  1  6  0  0  0
  7 14  1  0  0  0  0
  9 16  1  0  0  0  0
 10 11  1  6  0  0  0
 10 18  1  0  0  0  0
 12 13  1  1  0  0  0
 12 20  1  0  0  0  0
 14 15  1  1  0  0  0
 14 22  1  0  0  0  0
 16 17  1  6  0  0  0
 16 24  1  0  0  0  0
 18 19  1  6  0  0  0
 18 25  1  0  0  0  0
 20 21  1  1  0  0  0
 20 27  1  0  0  0  0
 22 23  1  6  0  0  0
 22 29  1  0  0  0  0
 24  2  1  1  0  0  0
 24 31  1  0  0  0  0
 25 26  1  0  0  0  0
 25 33  1  1  0  0  0
 27 28  1  6  0  0  0
 27 35  1  0  0  0  0
 29 30  1  0  0  0  0
 29 37  1  1  0  0  0
 31 32  1  6  0  0  0
 31 39  1  0  0  0  0
 33 34  1  0  0  0  0
 35 36  1  0  0  0  0
 35 41  1  1  0  0  0
 37 38  1  0  0  0  0
 39 40  1  1  0  0  0
 41 42  1  0  0  0  0
M  END
>  <CHROM.1>
-152.53710376,39.52506369,81.01482140,45.22084562,155.01490598,-92.78397148
-169.57603222,-15.73069289,166.19172454,-145.02573551,-174.81999393,-55.14491390
42.43538668,72.03270434,49.73822843,-160.59088738,157.76918147,90.70362447
59.04104620,-174.56028271,-168.80512758,34.23427955,5.21665925,4.89171527
27.02057973,0.22251270,-0.55575628,-1.08051741

>  <Name>
1fyp_lig

>  <RI>
0

>  <Rbt.Current_Directory>
/home/itssahil/PROJECTS/Mol_Feturizer/New_Systems/rnas/1fyp

>  <Rbt.Executable>
rbdock ($Id: //depot/dev/client3/rdock/2013.1/src/exe/rbdock.cxx#4 $)

>  <Rbt.Library>
libRbt.so (2013.1, Build901 2013/11/27)

>  <Rbt.Parameter_File>
/export/apps/rDock/src/rDock_2013.1_src/data/scripts/dock_solv.prm

>  <Rbt.Receptor>
prm/pocket_docking_5.prm

>  <SCORE>
-42.6668

>  <SCORE.INTER>
-49.9559

>  <SCORE.INTER.CONST>
1

>  <SCORE.INTER.POLAR>
-5.91465

>  <SCORE.INTER.ROT>
14

>  <SCORE.INTER.SOLV>
17.8759

>  <SCORE.INTER.VDW>
-32.4804

>  <SCORE.INTER.norm>
-1.18943

>  <SCORE.INTRA>
6.87378

>  <SCORE.INTRA.DIHEDRAL>
-18.8266

>  <SCORE.INTRA.DIHEDRAL.0>
48.7173

>  <SCORE.INTRA.POLAR>
0.765137

>  <SCORE.INTRA.POLAR.0>
-1.54691

>  <SCORE.INTRA.REPUL>
0

>  <SCORE.INTRA.REPUL.0>
0

>  <SCORE.INTRA.SOLV>
-1.39119

>  <SCORE.INTRA.SOLV.lig_0>
-64.052

>  <SCORE.INTRA.VDW>
14.3812

>  <SCORE.INTRA.VDW.0>
-7.0667

>  <SCORE.INTRA.norm>
0.163661

>  <SCORE.RESTR>
0.415242

>  <SCORE.RESTR.CAVITY>
0.415242

>  <SCORE.RESTR.norm>
0.00988671

>  <SCORE.SYSTEM>
0

>  <SCORE.SYSTEM.CONST>
0

>  <SCORE.SYSTEM.DIHEDRAL>
0

>  <SCORE.SYSTEM.SOLV>
0

>  <SCORE.SYSTEM.norm>
0

>  <SCORE.heavy>
42

>  <SCORE.norm>
-1.01588

>  <RMSD>
2.936

$$$$
1fyp_lig
 OpenBabel11021811393D
libRbt.so/2013.1/901 2013/11/27
 42 45  0  0  0  0  0  0  0  0999 V2000
    6.5896    4.6866   28.2070 C   0  0  2  0  0  0  0  0  0  0  0  0
    5.2849    5.0104   27.6456 O   0  0  0  0  0  0  0  0  0  0  0  0
    4.0301    7.5837   24.4763 C   0  0  2  0  0  0  0  0  0  0  0  0
    3.8107    8.2785   23.1942 N   0  0  0  0  0  0  0  0  0  0  0  0
    1.9430    3.6115   25.9704 C   0  0  1  0  0  0  0  0  0  0  0  0
   -1.6912    1.0568   26.0771 C   0  0  1  0  0  0  0  0  0  0  0  0
    6.4785    3.5976   29.3223 C   0  0  2  0  0  0  0  0  0  0  0  0
    5.7044    2.4281   28.8547 N   0  0  0  0  0  0  0  0  0  0  0  0
    5.5401    7.5400   24.7842 C   0  0  0  0  0  0  0  0  0  0  0  0
    1.6280    2.2607   25.3226 C   0  0  2  0  0  0  0  0  0  0  0  0
    0.9484    2.4721   24.0845 O   0  0  0  0  0  0  0  0  0  0  0  0
   -2.5099    0.8882   27.3933 C   0  0  2  0  0  0  0  0  0  0  0  0
   -1.6463    0.7980   28.5959 N   0  0  0  0  0  0  0  0  0  0  0  0
    5.8365    4.1898   30.6158 C   0  0  1  0  0  0  0  0  0  0  0  0
    5.8870    3.2338   31.6719 O   0  0  0  0  0  0  0  0  0  0  0  0
    5.8439    6.8435   26.1388 C   0  0  2  0  0  0  0  0  0  0  0  0
    7.3120    6.7836   26.2964 N   0  0  0  0  0  0  0  0  0  0  0  0
    0.7032    1.6222   26.3625 C   0  0  2  0  0  0  0  0  0  0  0  0
   -0.6703    2.0791   26.2163 O   0  0  0  0  0  0  0  0  0  0  0  0
   -3.4747   -0.3335   27.2948 C   0  0  1  0  0  0  0  0  0  0  0  0
   -4.5527    0.0088   26.4264 O   0  0  0  0  0  0  0  0  0  0  0  0
    6.5616    5.4773   31.0816 C   0  0  2  0  0  0  0  0  0  0  0  0
    5.8739    6.0175   32.2059 O   0  0  0  0  0  0  0  0  0  0  0  0
    5.1961    5.4165   26.2497 C   0  0  2  0  0  0  0  0  0  0  0  0
    1.3032    2.1293   27.6813 C   0  0  2  0  0  0  0  0  0  0  0  0
    1.8508    3.4304   27.3925 O   0  0  0  0  0  0  0  0  0  0  0  0
   -2.8042   -1.6317   26.7517 C   0  0  2  0  0  0  0  0  0  0  0  0
   -1.9561   -2.1652   27.7699 O   0  0  0  0  0  0  0  0  0  0  0  0
    6.6181    6.5143   29.9243 C   0  0  2  0  0  0  0  0  0  0  0  0
    7.2255    5.8911   28.7528 O   0  0  0  0  0  0  0  0  0  0  0  0
    3.6918    5.3908   25.7953 C   0  0  2  0  0  0  0  0  0  0  0  0
    3.2986    4.0055   25.6141 O   0  0  0  0  0  0  0  0  0  0  0  0
    2.4004    1.2055   28.2393 C   0  0  0  0  0  0  0  0  0  0  0  0
    2.9100    1.7079   29.4622 O   0  0  0  0  0  0  0  0  0  0  0  0
   -1.9762   -1.3305   25.4640 C   0  0  1  0  0  0  0  0  0  0  0  0
   -1.0623   -0.2200   25.7171 O   0  0  0  0  0  0  0  0  0  0  0  0
    7.4459    7.7827   30.2296 C   0  0  0  0  0  0  0  0  0  0  0  0
    7.6358    7.9502   31.6243 O   0  0  0  0  0  0  0  0  0  0  0  0
    3.4480    6.1498   24.4540 C   0  0  1  0  0  0  0  0  0  0  0  0
    2.0432    6.2186   24.2141 O   0  0  0  0  0  0  0  0  0  0  0  0
   -1.1606   -2.5556   24.9772 C   0  0  0  0  0  0  0  0  0  0  0  0
   -2.0039   -3.5655   24.3124 N   0  0  0  0  0  0  0  0  0  0  0  0
  1  2  1  1  0  0  0
  1  7  1  0  0  0  0
  1 30  1  0  0  0  0
  3  4  1  6  0  0  0
  3  9  1  0  0  0  0
  3 39  1  0  0  0  0
  5 10  1  0  0  0  0
  5 26  1  0  0  0  0
  5 32  1  1  0  0  0
  6 12  1  0  0  0  0
  6 36  1  0  0  0  0
  6 19  1  1  0  0  0
  7  8  1  6  0  0  0
  7 14  1  0  0  0  0
  9 16  1  0  0  0  0
 10 11  1  6  0  0  0
 10 18  1  0  0  0  0
 12 13  1  1  0  0  0
 12 20  1  0  0  0  0
 14 15  1  1  0  0  0
 14 22  1  0  0  0  0
 16 17  1  6  0  0  0
 16 24  1  0  0  0  0
 18 19  1  6  0  0  0
 18 25  1  0  0  0  0
 20 21  1  6  0  0  0
 20 27  1  0  0  0  0
 22 23  1  1  0  0  0
 22 29  1  0  0  0  0
 24  2  1  1  0  0  0
 24 31  1  0  0  0  0
 25 26  1  0  0  0  0
 25 33  1  6  0  0  0
 27 28  1  1  0  0  0
 27 35  1  0  0  0  0
 29 30  1  0  0  0  0
 29 37  1  1  0  0  0
 31 32  1  6  0  0  0
 31 39  1  0  0  0  0
 33 34  1  0  0  0  0
 35 36  1  0  0  0  0
 35 41  1  1  0  0  0
 37 38  1  0  0  0  0
 39 40  1  1  0  0  0
 41 42  1  0  0  0  0
M  END
>  <CHROM.1>
-148.84703122,-70.12181163,125.81079287,146.74736707,155.22387389,-68.55964066
59.91410152,161.71941849,125.89172715,104.79109570,-60.32851541,-64.05040095
-179.31312533,73.52745321,-18.67315168,144.12124382,163.24725061,69.92184295
75.66797637,-47.80470774,59.08592931,-132.97953216,2.59966135,3.28083996
27.24156940,-0.14821884,0.71390058,2.13459232

>  <Name>
1fyp_lig

>  <RI>
0

>  <Rbt.Current_Directory>
/home/itssahil/PROJECTS/Mol_Feturizer/New_Systems/rnas/1fyp

>  <Rbt.Executable>
rbdock ($Id: //depot/dev/client3/rdock/2013.1/src/exe/rbdock.cxx#4 $)

>  <Rbt.Library>
libRbt.so (2013.1, Build901 2013/11/27)

>  <Rbt.Parameter_File>
/export/apps/rDock/src/rDock_2013.1_src/data/scripts/dock_solv.prm

>  <Rbt.Receptor>
prm/pocket_docking_7.prm

>  <SCORE>
-39.6907

>  <SCORE.INTER>
-36.7997

>  <SCORE.INTER.CONST>
1

>  <SCORE.INTER.POLAR>
-5.73056

>  <SCORE.INTER.ROT>
14

>  <SCORE.INTER.SOLV>
15.9918

>  <SCORE.INTER.VDW>
-23.6952

>  <SCORE.INTER.norm>
-0.876184

>  <SCORE.INTRA>
-2.89096

>  <SCORE.INTRA.DIHEDRAL>
-8.5764

>  <SCORE.INTRA.DIHEDRAL.0>
48.7173

>  <SCORE.INTRA.POLAR>
-0.781715

>  <SCORE.INTRA.POLAR.0>
-1.54691

>  <SCORE.INTRA.REPUL>
0.0709232

>  <SCORE.INTRA.REPUL.0>
0

>  <SCORE.INTRA.SOLV>
0.0150722

>  <SCORE.INTRA.SOLV.lig_0>
-64.052

>  <SCORE.INTRA.VDW>
3.69292

>  <SCORE.INTRA.VDW.0>
-7.0667

>  <SCORE.INTRA.norm>
-0.0688324

>  <SCORE.RESTR>
0

>  <SCORE.RESTR.CAVITY>
0

>  <SCORE.RESTR.norm>
0

>  <SCORE.SYSTEM>
0

>  <SCORE.SYSTEM.CONST>
0

>  <SCORE.SYSTEM.DIHEDRAL>
0

>  <SCORE.SYSTEM.SOLV>
0

>  <SCORE.SYSTEM.norm>
0

>  <SCORE.heavy>
42

>  <SCORE.norm>
-0.945016

>  <RMSD>
2.939

$$$$
1fyp_lig
 OpenBabel11021811393D
libRbt.so/2013.1/901 2013/11/27
 42 45  0  0  0  0  0  0  0  0999 V2000
    7.3534    6.4140   26.4909 C   0  0  2  0  0  0  0  0  0  0  0  0
    6.1493    7.0832   26.0171 O   0  0  0  0  0  0  0  0  0  0  0  0
    4.2557    8.7326   22.5624 C   0  0  2  0  0  0  0  0  0  0  0  0
    3.8461    9.1270   21.2018 N   0  0  0  0  0  0  0  0  0  0  0  0
    3.1001    4.7402   24.7422 C   0  0  1  0  0  0  0  0  0  0  0  0
   -0.1347    2.8046   26.9160 C   0  0  1  0  0  0  0  0  0  0  0  0
    7.1114    4.8853   26.7067 C   0  0  2  0  0  0  0  0  0  0  0  0
    6.4945    4.2664   25.5141 N   0  0  0  0  0  0  0  0  0  0  0  0
    5.7487    9.0599   22.7638 C   0  0  0  0  0  0  0  0  0  0  0  0
    3.3899    3.5616   25.6752 C   0  0  2  0  0  0  0  0  0  0  0  0
    3.4066    2.3490   24.9210 O   0  0  0  0  0  0  0  0  0  0  0  0
    0.2588    2.2139   28.3043 C   0  0  2  0  0  0  0  0  0  0  0  0
    1.1477    1.0318   28.1911 N   0  0  0  0  0  0  0  0  0  0  0  0
    6.2246    4.6350   27.9665 C   0  0  1  0  0  0  0  0  0  0  0  0
    6.1445    3.2387   28.2419 O   0  0  0  0  0  0  0  0  0  0  0  0
    6.2435    8.6944   24.1900 C   0  0  2  0  0  0  0  0  0  0  0  0
    7.6939    8.9706   24.2492 N   0  0  0  0  0  0  0  0  0  0  0  0
    2.1891    3.6099   26.6239 C   0  0  2  0  0  0  0  0  0  0  0  0
    1.0246    2.9492   26.0547 O   0  0  0  0  0  0  0  0  0  0  0  0
   -1.0109    1.8899   29.1504 C   0  0  1  0  0  0  0  0  0  0  0  0
   -1.5786    3.1169   29.6042 O   0  0  0  0  0  0  0  0  0  0  0  0
    6.7872    5.3526   29.2190 C   0  0  2  0  0  0  0  0  0  0  0  0
    5.8876    5.1633   30.3069 O   0  0  0  0  0  0  0  0  0  0  0  0
    5.9260    7.2068   24.5831 C   0  0  2  0  0  0  0  0  0  0  0  0
    1.9430    5.1194   26.7548 C   0  0  2  0  0  0  0  0  0  0  0  0
    2.3325    5.6949   25.4926 O   0  0  0  0  0  0  0  0  0  0  0  0
   -2.1092    1.1021   28.3738 C   0  0  2  0  0  0  0  0  0  0  0  0
   -1.6677   -0.2459   28.2051 O   0  0  0  0  0  0  0  0  0  0  0  0
    6.9856    6.8677   28.9301 C   0  0  2  0  0  0  0  0  0  0  0  0
    7.8190    7.0229   27.7421 O   0  0  0  0  0  0  0  0  0  0  0  0
    4.4485    6.7879   24.2488 C   0  0  2  0  0  0  0  0  0  0  0  0
    4.3603    5.3415   24.3294 O   0  0  0  0  0  0  0  0  0  0  0  0
    2.7442    5.7640   27.8999 C   0  0  0  0  0  0  0  0  0  0  0  0
    2.2201    5.3829   29.1599 O   0  0  0  0  0  0  0  0  0  0  0  0
   -2.3830    1.7573   26.9845 C   0  0  1  0  0  0  0  0  0  0  0  0
   -1.1227    1.9331   26.2681 O   0  0  0  0  0  0  0  0  0  0  0  0
    7.6779    7.6588   30.0623 C   0  0  0  0  0  0  0  0  0  0  0  0
    8.3046    8.8287   29.5644 O   0  0  0  0  0  0  0  0  0  0  0  0
    3.9992    7.2284   22.8210 C   0  0  1  0  0  0  0  0  0  0  0  0
    2.6057    6.9593   22.6748 O   0  0  0  0  0  0  0  0  0  0  0  0
   -3.3499    0.9200   26.1086 C   0  0  0  0  0  0  0  0  0  0  0  0
   -4.2996    1.7603   25.3569 N   0  0  0  0  0  0  0  0  0  0  0  0
  1  2  1  1  0  0  0
  1  7  1  0  0  0  0
  1 30  1  0  0  0  0
  3  4  1  6  0  0  0
  3  9  1  0  0  0  0
  3 39  1  0  0  0  0
  5 10  1  0  0  0  0
  5 26  1  0  0  0  0
  5 32  1  1  0  0  0
  6 12  1  0  0  0  0
  6 36  1  0  0  0  0
  6 19  1  6  0  0  0
  7  8  1  6  0  0  0
  7 14  1  0  0  0  0
  9 16  1  0  0  0  0
 10 11  1  6  0  0  0
 10 18  1  0  0  0  0
 12 13  1  6  0  0  0
 12 20  1  0  0  0  0
 14 15  1  1  0  0  0
 14 22  1  0  0  0  0
 16 17  1  6  0  0  0
 16 24  1  0  0  0  0
 18 19  1  6  0  0  0
 18 25  1  0  0  0  0
 20 21  1  6  0  0  0
 20 27  1  0  0  0  0
 22 23  1  1  0  0  0
 22 29  1  0  0  0  0
 24  2  1  1  0  0  0
 24 31  1  0  0  0  0
 25 26  1  0  0  0  0
 25 33  1  1  0  0  0
 27 28  1  6  0  0  0
 27 35  1  0  0  0  0
 29 30  1  0  0  0  0
 29 37  1  1  0  0  0
 31 32  1  6  0  0  0
 31 39  1  0  0  0  0
 33 34  1  0  0  0  0
 35 36  1  0  0  0  0
 35 41  1  6  0  0  0
 37 38  1  0  0  0  0
 39 40  1  1  0  0  0
 41 42  1  0  0  0  0
M  END
>  <CHROM.1>
-91.21377099,-104.25698493,111.74929831,-175.07193745,78.05818980,93.12545602
57.27556159,68.48401237,173.66011737,-49.14606378,162.28285538,178.49449987
-71.76194200,49.25982810,156.12116779,148.92719046,-139.74509394,-177.78949523
140.62304444,53.15557196,131.85045224,-54.13954650,3.27789533,4.90781635
26.48208068,-0.40344280,0.50737776,2.05086400

>  <Name>
1fyp_lig

>  <RI>
0

>  <Rbt.Current_Directory>
/home/itssahil/PROJECTS/Mol_Feturizer/New_Systems/rnas/1fyp

>  <Rbt.Executable>
rbdock ($Id: //depot/dev/client3/rdock/2013.1/src/exe/rbdock.cxx#4 $)

>  <Rbt.Library>
libRbt.so (2013.1, Build901 2013/11/27)

>  <Rbt.Parameter_File>
/export/apps/rDock/src/rDock_2013.1_src/data/scripts/dock_solv.prm

>  <Rbt.Receptor>
prm/blind_docking_80.prm

>  <SCORE>
-60.308

>  <SCORE.INTER>
-59.1778

>  <SCORE.INTER.CONST>
1

>  <SCORE.INTER.POLAR>
-7.37428

>  <SCORE.INTER.ROT>
14

>  <SCORE.INTER.SOLV>
18.7984

>  <SCORE.INTER.VDW>
-34.0704

>  <SCORE.INTER.norm>
-1.40899

>  <SCORE.INTRA>
-1.13024

>  <SCORE.INTRA.DIHEDRAL>
-8.29003

>  <SCORE.INTRA.DIHEDRAL.0>
48.7173

>  <SCORE.INTRA.POLAR>
0.546914

>  <SCORE.INTRA.POLAR.0>
-1.54691

>  <SCORE.INTRA.REPUL>
0

>  <SCORE.INTRA.REPUL.0>
0

>  <SCORE.INTRA.SOLV>
-1.23409

>  <SCORE.INTRA.SOLV.lig_0>
-64.052

>  <SCORE.INTRA.VDW>
1.77231

>  <SCORE.INTRA.VDW.0>
-7.0667

>  <SCORE.INTRA.norm>
-0.0269104

>  <SCORE.RESTR>
0

>  <SCORE.RESTR.CAVITY>
0

>  <SCORE.RESTR.norm>
0

>  <SCORE.SYSTEM>
0

>  <SCORE.SYSTEM.CONST>
0

>  <SCORE.SYSTEM.DIHEDRAL>
0

>  <SCORE.SYSTEM.SOLV>
0

>  <SCORE.SYSTEM.norm>
0

>  <SCORE.heavy>
42

>  <SCORE.norm>
-1.4359

>  <RMSD>
2.943

$$$$
1fyp_lig
 OpenBabel11021811393D
libRbt.so/2013.1/901 2013/11/27
 42 45  0  0  0  0  0  0  0  0999 V2000
    8.9825    7.4206   26.5158 C   0  0  2  0  0  0  0  0  0  0  0  0
    7.7074    8.0292   26.1606 O   0  0  0  0  0  0  0  0  0  0  0  0
    5.2557    9.0767   22.8241 C   0  0  2  0  0  0  0  0  0  0  0  0
    4.5937    9.1961   21.5118 N   0  0  0  0  0  0  0  0  0  0  0  0
    4.1133    5.6257   25.2508 C   0  0  1  0  0  0  0  0  0  0  0  0
    0.8960    2.6184   25.8552 C   0  0  1  0  0  0  0  0  0  0  0  0
    9.0742    7.1376   28.0499 C   0  0  2  0  0  0  0  0  0  0  0  0
    7.8870    6.3993   28.5308 N   0  0  0  0  0  0  0  0  0  0  0  0
    6.7797    9.2264   22.6453 C   0  0  0  0  0  0  0  0  0  0  0  0
    4.1114    4.2669   25.9559 C   0  0  2  0  0  0  0  0  0  0  0  0
    4.3447    3.2325   24.9993 O   0  0  0  0  0  0  0  0  0  0  0  0
    1.7467    1.4083   26.3479 C   0  0  2  0  0  0  0  0  0  0  0  0
    2.8988    1.1201   25.4591 N   0  0  0  0  0  0  0  0  0  0  0  0
    9.2471    8.4658   28.8511 C   0  0  1  0  0  0  0  0  0  0  0  0
    9.4880    8.1822   30.2270 O   0  0  0  0  0  0  0  0  0  0  0  0
    7.5415    9.1381   23.9960 C   0  0  2  0  0  0  0  0  0  0  0  0
    8.9882    9.2114   23.7039 N   0  0  0  0  0  0  0  0  0  0  0  0
    2.6847    4.2021   26.5081 C   0  0  2  0  0  0  0  0  0  0  0  0
    1.7368    3.7476   25.5023 O   0  0  0  0  0  0  0  0  0  0  0  0
    0.8534    0.1451   26.5463 C   0  0  1  0  0  0  0  0  0  0  0  0
    0.0621    0.3288   27.7183 O   0  0  0  0  0  0  0  0  0  0  0  0
   10.4237    9.3162   28.3100 C   0  0  2  0  0  0  0  0  0  0  0  0
   10.4696   10.5508   29.0187 O   0  0  0  0  0  0  0  0  0  0  0  0
    7.1858    7.8444   24.8133 C   0  0  2  0  0  0  0  0  0  0  0  0
    2.4166    5.6672   26.8795 C   0  0  2  0  0  0  0  0  0  0  0  0
    3.1624    6.4581   25.9340 O   0  0  0  0  0  0  0  0  0  0  0  0
   -0.1044   -0.1508   25.3526 C   0  0  2  0  0  0  0  0  0  0  0  0
    0.6695   -0.6580   24.2642 O   0  0  0  0  0  0  0  0  0  0  0  0
   10.2527    9.5665   26.7848 C   0  0  2  0  0  0  0  0  0  0  0  0
   10.0946    8.2851   26.1045 O   0  0  0  0  0  0  0  0  0  0  0  0
    5.6395    7.5733   24.8869 C   0  0  2  0  0  0  0  0  0  0  0  0
    5.4413    6.2135   25.3540 O   0  0  0  0  0  0  0  0  0  0  0  0
    2.8478    6.0138   28.3157 C   0  0  0  0  0  0  0  0  0  0  0  0
    2.0994    7.1072   28.8177 O   0  0  0  0  0  0  0  0  0  0  0  0
   -0.8635    1.1412   24.9180 C   0  0  1  0  0  0  0  0  0  0  0  0
    0.0942    2.2201   24.6917 O   0  0  0  0  0  0  0  0  0  0  0  0
   11.4424   10.2828   26.1076 C   0  0  0  0  0  0  0  0  0  0  0  0
   12.6553    9.5809   26.3212 O   0  0  0  0  0  0  0  0  0  0  0  0
    4.9282    7.7269   23.5067 C   0  0  1  0  0  0  0  0  0  0  0  0
    3.5183    7.6319   23.7036 O   0  0  0  0  0  0  0  0  0  0  0  0
   -1.7068    0.9358   23.6335 C   0  0  0  0  0  0  0  0  0  0  0  0
   -2.8340    0.0090   23.8419 N   0  0  0  0  0  0  0  0  0  0  0  0
  1  2  1  1  0  0  0
  1  7  1  0  0  0  0
  1 30  1  0  0  0  0
  3  4  1  6  0  0  0
  3  9  1  0  0  0  0
  3 39  1  0  0  0  0
  5 10  1  0  0  0  0
  5 26  1  0  0  0  0
  5 32  1  1  0  0  0
  6 12  1  0  0  0  0
  6 36  1  0  0  0  0
  6 19  1  6  0  0  0
  7  8  1  1  0  0  0
  7 14  1  0  0  0  0
  9 16  1  0  0  0  0
 10 11  1  6  0  0  0
 10 18  1  0  0  0  0
 12 13  1  6  0  0  0
 12 20  1  0  0  0  0
 14 15  1  1  0  0  0
 14 22  1  0  0  0  0
 16 17  1  6  0  0  0
 16 24  1  0  0  0  0
 18 19  1  6  0  0  0
 18 25  1  0  0  0  0
 20 21  1  1  0  0  0
 20 27  1  0  0  0  0
 22 23  1  1  0  0  0
 22 29  1  0  0  0  0
 24  2  1  1  0  0  0
 24 31  1  0  0  0  0
 25 26  1  0  0  0  0
 25 33  1  1  0  0  0
 27 28  1  6  0  0  0
 27 35  1  0  0  0  0
 29 30  1  0  0  0  0
 29 37  1  6  0  0  0
 31 32  1  6  0  0  0
 31 39  1  0  0  0  0
 33 34  1  0  0  0  0
 35 36  1  0  0  0  0
 35 41  1  6  0  0  0
 37 38  1  0  0  0  0
 39 40  1  1  0  0  0
 41 42  1  0  0  0  0
M  END
>  <CHROM.1>
-153.55217831,-98.88321500,-31.28073166,-37.60887419,-163.73825600,160.54282485
67.44685146,-154.25164698,126.49447953,-53.28561032,-157.37210213,177.89231955
-154.34245922,63.19710028,55.89711881,-167.65166026,-173.11744893,-173.44580355
66.83985842,-177.52531082,-62.89312923,177.19662350,4.93116283,5.73757995
25.84063199,-0.25044827,0.65903072,2.13364543

>  <Name>
1fyp_lig

>  <RI>
0

>  <Rbt.Current_Directory>
/home/itssahil/PROJECTS/Mol_Feturizer/New_Systems/rnas/1fyp

>  <Rbt.Executable>
rbdock ($Id: //depot/dev/client3/rdock/2013.1/src/exe/rbdock.cxx#4 $)

>  <Rbt.Library>
libRbt.so (2013.1, Build901 2013/11/27)

>  <Rbt.Parameter_File>
/export/apps/rDock/src/rDock_2013.1_src/data/scripts/dock_solv.prm

>  <Rbt.Receptor>
prm/pocket_docking_4.prm

>  <SCORE>
-61.4165

>  <SCORE.INTER>
-53.2641

>  <SCORE.INTER.CONST>
1

>  <SCORE.INTER.POLAR>
-7.67712

>  <SCORE.INTER.ROT>
14

>  <SCORE.INTER.SOLV>
16.6103

>  <SCORE.INTER.VDW>
-28.3891

>  <SCORE.INTER.norm>
-1.26819

>  <SCORE.INTRA>
-8.15958

>  <SCORE.INTRA.DIHEDRAL>
-22.7331

>  <SCORE.INTRA.DIHEDRAL.0>
48.7173

>  <SCORE.INTRA.POLAR>
-0.409955

>  <SCORE.INTRA.POLAR.0>
-1.54691

>  <SCORE.INTRA.REPUL>
0

>  <SCORE.INTRA.REPUL.0>
0

>  <SCORE.INTRA.SOLV>
-1.2689

>  <SCORE.INTRA.SOLV.lig_0>
-64.052

>  <SCORE.INTRA.VDW>
5.23525

>  <SCORE.INTRA.VDW.0>
-7.0667

>  <SCORE.INTRA.norm>
-0.194276

>  <SCORE.RESTR>
0.0072284

>  <SCORE.RESTR.CAVITY>
0.0072284

>  <SCORE.RESTR.norm>
0.000172105

>  <SCORE.SYSTEM>
0

>  <SCORE.SYSTEM.CONST>
0

>  <SCORE.SYSTEM.DIHEDRAL>
0

>  <SCORE.SYSTEM.SOLV>
0

>  <SCORE.SYSTEM.norm>
0

>  <SCORE.heavy>
42

>  <SCORE.norm>
-1.4623

>  <RMSD>
2.947

$$$$
1fyp_lig
 OpenBabel11021811393D
libRbt.so/2013.1/901 2013/11/27
 42 45  0  0  0  0  0  0  0  0999 V2000
    7.2916    8.2248   26.3263 C   0  0  2  0  0  0  0  0  0  0  0  0
    6.8150    7.0361   25.6318 O   0  0  0  0  0  0  0  0  0  0  0  0
    2.7355    8.2817   25.8505 C   0  0  2  0  0  0  0  0  0  0  0  0
    1.2751    8.4394   25.7219 N   0  0  0  0  0  0  0  0  0  0  0  0
    3.9557    4.4443   27.1316 C   0  0  1  0  0  0  0  0  0  0  0  0
    1.4353    1.1642   27.1384 C   0  0  1  0  0  0  0  0  0  0  0  0
    8.8384    8.3920   26.1794 C   0  0  2  0  0  0  0  0  0  0  0  0
    9.2558    8.2996   24.7642 N   0  0  0  0  0  0  0  0  0  0  0  0
    3.3689    8.2076   24.4468 C   0  0  0  0  0  0  0  0  0  0  0  0
    4.6897    3.1061   27.2518 C   0  0  2  0  0  0  0  0  0  0  0  0
    5.1213    2.6808   25.9587 O   0  0  0  0  0  0  0  0  0  0  0  0
    0.8231    0.2590   26.0262 C   0  0  2  0  0  0  0  0  0  0  0  0
    0.8949    0.8793   24.6807 N   0  0  0  0  0  0  0  0  0  0  0  0
    9.5963    7.3314   27.0379 C   0  0  1  0  0  0  0  0  0  0  0  0
   10.9970    7.5948   27.0204 O   0  0  0  0  0  0  0  0  0  0  0  0
    4.9147    8.0681   24.5061 C   0  0  2  0  0  0  0  0  0  0  0  0
    5.4085    7.9248   23.1207 N   0  0  0  0  0  0  0  0  0  0  0  0
    3.5892    2.1929   27.7989 C   0  0  2  0  0  0  0  0  0  0  0  0
    2.7272    1.6920   26.7395 O   0  0  0  0  0  0  0  0  0  0  0  0
   -0.6387   -0.1502   26.3850 C   0  0  1  0  0  0  0  0  0  0  0  0
   -0.5950   -1.1162   27.4331 O   0  0  0  0  0  0  0  0  0  0  0  0
    9.1136    7.3301   28.5100 C   0  0  2  0  0  0  0  0  0  0  0  0
    9.7734    6.2827   29.2148 O   0  0  0  0  0  0  0  0  0  0  0  0
    5.3849    6.8719   25.4095 C   0  0  2  0  0  0  0  0  0  0  0  0
    2.8132    3.1419   28.7228 C   0  0  2  0  0  0  0  0  0  0  0  0
    2.9198    4.4494   28.1269 O   0  0  0  0  0  0  0  0  0  0  0  0
   -1.5352    1.0363   26.8523 C   0  0  2  0  0  0  0  0  0  0  0  0
   -1.8565    1.8384   25.7147 O   0  0  0  0  0  0  0  0  0  0  0  0
    7.5709    7.1448   28.5726 C   0  0  2  0  0  0  0  0  0  0  0  0
    6.9327    8.1657   27.7478 O   0  0  0  0  0  0  0  0  0  0  0  0
    4.6453    6.8246   26.7955 C   0  0  2  0  0  0  0  0  0  0  0  0
    4.8932    5.5265   27.3954 O   0  0  0  0  0  0  0  0  0  0  0  0
    3.3639    3.1689   30.1597 C   0  0  0  0  0  0  0  0  0  0  0  0
    4.7646    3.3829   30.1598 O   0  0  0  0  0  0  0  0  0  0  0  0
   -0.8005    1.8958   27.9274 C   0  0  1  0  0  0  0  0  0  0  0  0
    0.5208    2.2740   27.4338 O   0  0  0  0  0  0  0  0  0  0  0  0
    6.9591    7.2718   29.9856 C   0  0  0  0  0  0  0  0  0  0  0  0
    7.3256    8.4970   30.5972 O   0  0  0  0  0  0  0  0  0  0  0  0
    3.1025    7.0204   26.6690 C   0  0  1  0  0  0  0  0  0  0  0  0
    2.5451    7.1333   27.9776 O   0  0  0  0  0  0  0  0  0  0  0  0
   -1.5849    3.1781   28.3063 C   0  0  0  0  0  0  0  0  0  0  0  0
   -1.0003    3.8735   29.4672 N   0  0  0  0  0  0  0  0  0  0  0  0
  1  2  1  6  0  0  0
  1  7  1  0  0  0  0
  1 30  1  0  0  0  0
  3  4  1  6  0  0  0
  3  9  1  0  0  0  0
  3 39  1  0  0  0  0
  5 10  1  0  0  0  0
  5 26  1  0  0  0  0
  5 32  1  1  0  0  0
  6 12  1  0  0  0  0
  6 36  1  0  0  0  0
  6 19  1  6  0  0  0
  7  8  1  6  0  0  0
  7 14  1  0  0  0  0
  9 16  1  0  0  0  0
 10 11  1  6  0  0  0
 10 18  1  0  0  0  0
 12 13  1  6  0  0  0
 12 20  1  0  0  0  0
 14 15  1  1  0  0  0
 14 22  1  0  0  0  0
 16 17  1  6  0  0  0
 16 24  1  0  0  0  0
 18 19  1  6  0  0  0
 18 25  1  0  0  0  0
 20 21  1  1  0  0  0
 20 27  1  0  0  0  0
 22 23  1  1  0  0  0
 22 29  1  0  0  0  0
 24  2  1  1  0  0  0
 24 31  1  0  0  0  0
 25 26  1  0  0  0  0
 25 33  1  1  0  0  0
 27 28  1  6  0  0  0
 27 35  1  0  0  0  0
 29 30  1  0  0  0  0
 29 37  1  1  0  0  0
 31 32  1  6  0  0  0
 31 39  1  0  0  0  0
 33 34  1  0  0  0  0
 35 36  1  0  0  0  0
 35 41  1  6  0  0  0
 37 38  1  0  0  0  0
 39 40  1  1  0  0  0
 41 42  1  0  0  0  0
M  END
>  <CHROM.1>
-166.73736607,61.92443814,31.74192715,62.83480841,-171.41303765,86.22337727
46.29870920,-38.13422939,-161.85509017,-161.40451425,64.95644357,-74.67546249
50.56571059,-45.47533452,54.20036985,-91.12223570,153.07858165,-151.57063443
170.89874584,175.68641068,-62.06403646,-61.28793316,4.02437686,4.98082300
27.13474080,0.50368470,-0.45085691,-0.67477595

>  <Name>
1fyp_lig

>  <RI>
0

>  <Rbt.Current_Directory>
/home/itssahil/PROJECTS/Mol_Feturizer/New_Systems/rnas/1fyp

>  <Rbt.Executable>
rbdock ($Id: //depot/dev/client3/rdock/2013.1/src/exe/rbdock.cxx#4 $)

>  <Rbt.Library>
libRbt.so (2013.1, Build901 2013/11/27)

>  <Rbt.Parameter_File>
/export/apps/rDock/src/rDock_2013.1_src/data/scripts/dock_solv.prm

>  <Rbt.Receptor>
prm/pocket_docking_5.prm

>  <SCORE>
-53.8296

>  <SCORE.INTER>
-47.9469

>  <SCORE.INTER.CONST>
1

>  <SCORE.INTER.POLAR>
-6.87691

>  <SCORE.INTER.ROT>
14

>  <SCORE.INTER.SOLV>
18.2459

>  <SCORE.INTER.VDW>
-28.0568

>  <SCORE.INTER.norm>
-1.14159

>  <SCORE.INTRA>
-5.88278

>  <SCORE.INTRA.DIHEDRAL>
-27.2521

>  <SCORE.INTRA.DIHEDRAL.0>
48.7173

>  <SCORE.INTRA.POLAR>
0.899964

>  <SCORE.INTRA.POLAR.0>
-1.54691

>  <SCORE.INTRA.REPUL>
0.0231344

>  <SCORE.INTRA.REPUL.0>
0

>  <SCORE.INTRA.SOLV>
-1.95615

>  <SCORE.INTRA.SOLV.lig_0>
-64.052

>  <SCORE.INTRA.VDW>
5.5458

>  <SCORE.INTRA.VDW.0>
-7.0667

>  <SCORE.INTRA.norm>
-0.140066

>  <SCORE.RESTR>
0

>  <SCORE.RESTR.CAVITY>
0

>  <SCORE.RESTR.norm>
0

>  <SCORE.SYSTEM>
0

>  <SCORE.SYSTEM.CONST>
0

>  <SCORE.SYSTEM.DIHEDRAL>
0

>  <SCORE.SYSTEM.SOLV>
0

>  <SCORE.SYSTEM.norm>
0

>  <SCORE.heavy>
42

>  <SCORE.norm>
-1.28166

>  <RMSD>
2.961

$$$$
1fyp_lig
 OpenBabel11021811393D
libRbt.so/2013.1/901 2013/11/27
 42 45  0  0  0  0  0  0  0  0999 V2000
    5.6827    7.2151   27.4138 C   0  0  2  0  0  0  0  0  0  0  0  0
    6.1620    6.2756   26.4088 O   0  0  0  0  0  0  0  0  0  0  0  0
    3.5956    7.8562   23.3829 C   0  0  2  0  0  0  0  0  0  0  0  0
    2.8728    8.1747   22.1377 N   0  0  0  0  0  0  0  0  0  0  0  0
    2.3941    4.1972   25.5206 C   0  0  1  0  0  0  0  0  0  0  0  0
   -1.1762    1.5952   24.9525 C   0  0  1  0  0  0  0  0  0  0  0  0
    6.8533    7.7546   28.2974 C   0  0  2  0  0  0  0  0  0  0  0  0
    7.9646    8.2612   27.4643 N   0  0  0  0  0  0  0  0  0  0  0  0
    5.1138    7.9609   23.1358 C   0  0  0  0  0  0  0  0  0  0  0  0
    2.2756    3.0104   24.5608 C   0  0  2  0  0  0  0  0  0  0  0  0
    1.8155    3.4692   23.2891 O   0  0  0  0  0  0  0  0  0  0  0  0
   -2.1958    1.8303   26.1085 C   0  0  2  0  0  0  0  0  0  0  0  0
   -1.5340    2.0886   27.4106 N   0  0  0  0  0  0  0  0  0  0  0  0
    7.3679    6.6505   29.2732 C   0  0  1  0  0  0  0  0  0  0  0  0
    8.3222    7.2001   30.1782 O   0  0  0  0  0  0  0  0  0  0  0  0
    5.9397    7.6637   24.4171 C   0  0  2  0  0  0  0  0  0  0  0  0
    7.3710    7.7110   24.0527 N   0  0  0  0  0  0  0  0  0  0  0  0
    1.2186    2.1486   25.2567 C   0  0  2  0  0  0  0  0  0  0  0  0
   -0.1308    2.6020   24.9562 O   0  0  0  0  0  0  0  0  0  0  0  0
   -3.2039    0.6443   26.2100 C   0  0  1  0  0  0  0  0  0  0  0  0
   -4.1139    0.7277   25.1152 O   0  0  0  0  0  0  0  0  0  0  0  0
    6.2135    6.0242   30.0951 C   0  0  2  0  0  0  0  0  0  0  0  0
    6.7325    4.9652   30.8937 O   0  0  0  0  0  0  0  0  0  0  0  0
    5.5618    6.2913   25.0818 C   0  0  2  0  0  0  0  0  0  0  0  0
    1.5457    2.3731   26.7396 C   0  0  2  0  0  0  0  0  0  0  0  0
    2.0615    3.7152   26.8324 O   0  0  0  0  0  0  0  0  0  0  0  0
   -2.5352   -0.7635   26.1822 C   0  0  2  0  0  0  0  0  0  0  0  0
   -1.8863   -0.9829   27.4358 O   0  0  0  0  0  0  0  0  0  0  0  0
    5.0984    5.4989   29.1469 C   0  0  2  0  0  0  0  0  0  0  0  0
    4.6706    6.5811   28.2662 O   0  0  0  0  0  0  0  0  0  0  0  0
    4.0096    6.0810   25.2106 C   0  0  2  0  0  0  0  0  0  0  0  0
    3.7669    4.6819   25.5107 O   0  0  0  0  0  0  0  0  0  0  0  0
    2.5769    1.3709   27.2881 C   0  0  0  0  0  0  0  0  0  0  0  0
    3.8467    1.9822   27.4349 O   0  0  0  0  0  0  0  0  0  0  0  0
   -1.5031   -0.8636   25.0164 C   0  0  1  0  0  0  0  0  0  0  0  0
   -0.5755    0.2622   25.0846 O   0  0  0  0  0  0  0  0  0  0  0  0
    3.8296    4.9824   29.8613 C   0  0  0  0  0  0  0  0  0  0  0  0
    3.5338    3.6481   29.4849 O   0  0  0  0  0  0  0  0  0  0  0  0
    3.2358    6.4445   23.9053 C   0  0  1  0  0  0  0  0  0  0  0  0
    1.8351    6.3866   24.1707 O   0  0  0  0  0  0  0  0  0  0  0  0
   -0.6955   -2.1866   25.0446 C   0  0  0  0  0  0  0  0  0  0  0  0
    0.0111   -2.4422   23.7764 N   0  0  0  0  0  0  0  0  0  0  0  0
  1  2  1  6  0  0  0
  1  7  1  0  0  0  0
  1 30  1  0  0  0  0
  3  4  1  6  0  0  0
  3  9  1  0  0  0  0
  3 39  1  0  0  0  0
  5 10  1  0  0  0  0
  5 26  1  0  0  0  0
  5 32  1  1  0  0  0
  6 12  1  0  0  0  0
  6 36  1  0  0  0  0
  6 19  1  1  0  0  0
  7  8  1  6  0  0  0
  7 14  1  0  0  0  0
  9 16  1  0  0  0  0
 10 11  1  6  0  0  0
 10 18  1  0  0  0  0
 12 13  1  1  0  0  0
 12 20  1  0  0  0  0
 14 15  1  1  0  0  0
 14 22  1  0  0  0  0
 16 17  1  6  0  0  0
 16 24  1  0  0  0  0
 18 19  1  1  0  0  0
 18 25  1  0  0  0  0
 20 21  1  6  0  0  0
 20 27  1  0  0  0  0
 22 23  1  6  0  0  0
 22 29  1  0  0  0  0
 24  2  1  1  0  0  0
 24 31  1  0  0  0  0
 25 26  1  0  0  0  0
 25 33  1  6  0  0  0
 27 28  1  1  0  0  0
 27 35  1  0  0  0  0
 29 30  1  0  0  0  0
 29 37  1  1  0  0  0
 31 32  1  6  0  0  0
 31 39  1  0  0  0  0
 33 34  1  0  0  0  0
 35 36  1  0  0  0  0
 35 41  1  1  0  0  0
 37 38  1  0  0  0  0
 39 40  1  1  0  0  0
 41 42  1  0  0  0  0
M  END
>  <CHROM.1>
-142.14517172,66.25831539,46.42056177,12.41160350,-7.31396907,171.10022016
66.01639497,94.92215854,150.20574343,113.82450661,58.91614622,-66.59695309
104.44549008,-85.31137085,-124.33537496,-172.72881814,124.84765459,-138.66920896
165.02971153,-61.95184752,-26.00060989,-85.90478036,2.71803618,4.00637421
26.25529256,-0.20065075,0.72070730,2.10909885

>  <Name>
1fyp_lig

>  <RI>
0

>  <Rbt.Current_Directory>
/home/itssahil/PROJECTS/Mol_Feturizer/New_Systems/rnas/1fyp

>  <Rbt.Executable>
rbdock ($Id: //depot/dev/client3/rdock/2013.1/src/exe/rbdock.cxx#4 $)

>  <Rbt.Library>
libRbt.so (2013.1, Build901 2013/11/27)

>  <Rbt.Parameter_File>
/export/apps/rDock/src/rDock_2013.1_src/data/scripts/dock_solv.prm

>  <Rbt.Receptor>
prm/pocket_docking_2.prm

>  <SCORE>
-30.5233

>  <SCORE.INTER>
-40.2912

>  <SCORE.INTER.CONST>
1

>  <SCORE.INTER.POLAR>
-6.34428

>  <SCORE.INTER.ROT>
14

>  <SCORE.INTER.SOLV>
16.835

>  <SCORE.INTER.VDW>
-24.2582

>  <SCORE.INTER.norm>
-0.959315

>  <SCORE.INTRA>
8.54156

>  <SCORE.INTRA.DIHEDRAL>
9.8141

>  <SCORE.INTRA.DIHEDRAL.0>
48.7173

>  <SCORE.INTRA.POLAR>
-0.811971

>  <SCORE.INTRA.POLAR.0>
-1.54691

>  <SCORE.INTRA.REPUL>
0.0573617

>  <SCORE.INTRA.REPUL.0>
0

>  <SCORE.INTRA.SOLV>
1.20907

>  <SCORE.INTRA.SOLV.lig_0>
-64.052

>  <SCORE.INTRA.VDW>
5.50387

>  <SCORE.INTRA.VDW.0>
-7.0667

>  <SCORE.INTRA.norm>
0.20337

>  <SCORE.RESTR>
1.22633

>  <SCORE.RESTR.CAVITY>
1.22633

>  <SCORE.RESTR.norm>
0.0291983

>  <SCORE.SYSTEM>
0

>  <SCORE.SYSTEM.CONST>
0

>  <SCORE.SYSTEM.DIHEDRAL>
0

>  <SCORE.SYSTEM.SOLV>
0

>  <SCORE.SYSTEM.norm>
0

>  <SCORE.heavy>
42

>  <SCORE.norm>
-0.726746

>  <RMSD>
2.980

$$$$
1fyp_lig
 OpenBabel11021811393D
libRbt.so/2013.1/901 2013/11/27
 42 45  0  0  0  0  0  0  0  0999 V2000
    5.5630    6.9322   27.5194 C   0  0  2  0  0  0  0  0  0  0  0  0
    5.8121    5.8255   26.6054 O   0  0  0  0  0  0  0  0  0  0  0  0
    3.8776    7.6687   23.2736 C   0  0  2  0  0  0  0  0  0  0  0  0
    3.4409    8.1261   21.9415 N   0  0  0  0  0  0  0  0  0  0  0  0
    2.6257    3.6534   25.3496 C   0  0  1  0  0  0  0  0  0  0  0  0
   -0.4282    0.6221   26.5398 C   0  0  1  0  0  0  0  0  0  0  0  0
    5.9767    6.5706   28.9824 C   0  0  2  0  0  0  0  0  0  0  0  0
    7.3522    6.0310   29.0329 N   0  0  0  0  0  0  0  0  0  0  0  0
    5.3888    7.9281   23.4350 C   0  0  0  0  0  0  0  0  0  0  0  0
    2.6900    2.1282   25.2343 C   0  0  2  0  0  0  0  0  0  0  0  0
    2.1382    1.7207   23.9817 O   0  0  0  0  0  0  0  0  0  0  0  0
   -1.4774    0.1762   25.4760 C   0  0  2  0  0  0  0  0  0  0  0  0
   -2.1986    1.3218   24.8696 N   0  0  0  0  0  0  0  0  0  0  0  0
    4.9726    5.5532   29.6089 C   0  0  1  0  0  0  0  0  0  0  0  0
    5.2697    5.3554   30.9889 O   0  0  0  0  0  0  0  0  0  0  0  0
    5.9139    7.4938   24.8307 C   0  0  2  0  0  0  0  0  0  0  0  0
    7.3758    7.7088   24.8500 N   0  0  0  0  0  0  0  0  0  0  0  0
    1.8033    1.6877   26.4022 C   0  0  2  0  0  0  0  0  0  0  0  0
    0.3923    1.7139   26.0484 O   0  0  0  0  0  0  0  0  0  0  0  0
   -2.4707   -0.8651   26.0778 C   0  0  1  0  0  0  0  0  0  0  0  0
   -1.7891   -2.1089   26.2259 O   0  0  0  0  0  0  0  0  0  0  0  0
    3.5068    6.0397   29.4853 C   0  0  2  0  0  0  0  0  0  0  0  0
    2.6377    5.0297   29.9887 O   0  0  0  0  0  0  0  0  0  0  0  0
    5.5478    6.0076   25.1847 C   0  0  2  0  0  0  0  0  0  0  0  0
    2.1138    2.7539   27.4620 C   0  0  2  0  0  0  0  0  0  0  0  0
    2.4006    3.9638   26.7341 O   0  0  0  0  0  0  0  0  0  0  0  0
   -3.0539   -0.4601   27.4655 C   0  0  2  0  0  0  0  0  0  0  0  0
   -4.0034    0.5891   27.2705 O   0  0  0  0  0  0  0  0  0  0  0  0
    3.1684    6.3640   28.0026 C   0  0  2  0  0  0  0  0  0  0  0  0
    4.1470    7.3153   27.4857 O   0  0  0  0  0  0  0  0  0  0  0  0
    4.0441    5.6606   24.8869 C   0  0  2  0  0  0  0  0  0  0  0  0
    3.8984    4.2170   24.9224 O   0  0  0  0  0  0  0  0  0  0  0  0
    3.3067    2.3816   28.3604 C   0  0  0  0  0  0  0  0  0  0  0  0
    4.4624    2.1211   27.5831 O   0  0  0  0  0  0  0  0  0  0  0  0
   -1.9192    0.0118   28.4269 C   0  0  1  0  0  0  0  0  0  0  0  0
   -1.1144    1.0377   27.7693 O   0  0  0  0  0  0  0  0  0  0  0  0
    1.7763    6.9956   27.7782 C   0  0  0  0  0  0  0  0  0  0  0  0
    1.5972    7.3796   26.4254 O   0  0  0  0  0  0  0  0  0  0  0  0
    3.5674    6.1680   23.4906 C   0  0  1  0  0  0  0  0  0  0  0  0
    2.1598    5.9608   23.3827 O   0  0  0  0  0  0  0  0  0  0  0  0
   -2.4644    0.5766   29.7637 C   0  0  0  0  0  0  0  0  0  0  0  0
   -1.4323    1.2924   30.5353 N   0  0  0  0  0  0  0  0  0  0  0  0
  1  2  1  6  0  0  0
  1  7  1  0  0  0  0
  1 30  1  0  0  0  0
  3  4  1  6  0  0  0
  3  9  1  0  0  0  0
  3 39  1  0  0  0  0
  5 10  1  0  0  0  0
  5 26  1  0  0  0  0
  5 32  1  1  0  0  0
  6 12  1  0  0  0  0
  6 36  1  0  0  0  0
  6 19  1  6  0  0  0
  7  8  1  6  0  0  0
  7 14  1  0  0  0  0
  9 16  1  0  0  0  0
 10 11  1  6  0  0  0
 10 18  1  0  0  0  0
 12 13  1  1  0  0  0
 12 20  1  0  0  0  0
 14 15  1  1  0  0  0
 14 22  1  0  0  0  0
 16 17  1  6  0  0  0
 16 24  1  0  0  0  0
 18 19  1  6  0  0  0
 18 25  1  0  0  0  0
 20 21  1  1  0  0  0
 20 27  1  0  0  0  0
 22 23  1  6  0  0  0
 22 29  1  0  0  0  0
 24  2  1  1  0  0  0
 24 31  1  0  0  0  0
 25 26  1  0  0  0  0
 25 33  1  6  0  0  0
 27 28  1  6  0  0  0
 27 35  1  0  0  0  0
 29 30  1  0  0  0  0
 29 37  1  1  0  0  0
 31 32  1  6  0  0  0
 31 39  1  0  0  0  0
 33 34  1  0  0  0  0
 35 36  1  0  0  0  0
 35 41  1  1  0  0  0
 37 38  1  0  0  0  0
 39 40  1  1  0  0  0
 41 42  1  0  0  0  0
M  END
>  <CHROM.1>
-176.97619738,35.32856324,-53.33202141,176.70946333,79.13580150,-80.45946651
-175.28151337,-51.25765667,139.97714331,-141.33424440,-62.63786441,167.71801255
55.96472147,-174.54699059,174.27424707,149.29393412,177.05199157,-66.59433439
-167.13270201,177.89542651,70.27894282,-47.37854574,2.28244073,3.95839285
26.66570130,-0.26429764,0.73217001,1.78853835

>  <Name>
1fyp_lig

>  <RI>
0

>  <Rbt.Current_Directory>
/home/itssahil/PROJECTS/Mol_Feturizer/New_Systems/rnas/1fyp

>  <Rbt.Executable>
rbdock ($Id: //depot/dev/client3/rdock/2013.1/src/exe/rbdock.cxx#4 $)

>  <Rbt.Library>
libRbt.so (2013.1, Build901 2013/11/27)

>  <Rbt.Parameter_File>
/export/apps/rDock/src/rDock_2013.1_src/data/scripts/dock_solv.prm

>  <Rbt.Receptor>
prm/pocket_docking_5.prm

>  <SCORE>
-61.9723

>  <SCORE.INTER>
-54.5692

>  <SCORE.INTER.CONST>
1

>  <SCORE.INTER.POLAR>
-7.34883

>  <SCORE.INTER.ROT>
14

>  <SCORE.INTER.SOLV>
16.9459

>  <SCORE.INTER.VDW>
-30.4653

>  <SCORE.INTER.norm>
-1.29927

>  <SCORE.INTRA>
-7.40311

>  <SCORE.INTRA.DIHEDRAL>
-26.0298

>  <SCORE.INTRA.DIHEDRAL.0>
48.7173

>  <SCORE.INTRA.POLAR>
1.14126

>  <SCORE.INTRA.POLAR.0>
-1.54691

>  <SCORE.INTRA.REPUL>
0.181508

>  <SCORE.INTRA.REPUL.0>
0

>  <SCORE.INTRA.SOLV>
-0.233514

>  <SCORE.INTRA.SOLV.lig_0>
-64.052

>  <SCORE.INTRA.VDW>
0.940707

>  <SCORE.INTRA.VDW.0>
-7.0667

>  <SCORE.INTRA.norm>
-0.176264

>  <SCORE.RESTR>
0

>  <SCORE.RESTR.CAVITY>
0

>  <SCORE.RESTR.norm>
0

>  <SCORE.SYSTEM>
0

>  <SCORE.SYSTEM.CONST>
0

>  <SCORE.SYSTEM.DIHEDRAL>
0

>  <SCORE.SYSTEM.SOLV>
0

>  <SCORE.SYSTEM.norm>
0

>  <SCORE.heavy>
42

>  <SCORE.norm>
-1.47553

>  <RMSD>
2.985

$$$$
1fyp_lig
 OpenBabel11021811393D
libRbt.so/2013.1/901 2013/11/27
 42 45  0  0  0  0  0  0  0  0999 V2000
    6.7092    5.1786   27.0654 C   0  0  2  0  0  0  0  0  0  0  0  0
    5.4944    5.8243   26.5862 O   0  0  0  0  0  0  0  0  0  0  0  0
    3.7772    7.6941   23.1517 C   0  0  2  0  0  0  0  0  0  0  0  0
    3.4197    8.1538   21.7969 N   0  0  0  0  0  0  0  0  0  0  0  0
    2.3095    3.7257   25.1418 C   0  0  1  0  0  0  0  0  0  0  0  0
   -1.0752    1.6537   26.7566 C   0  0  1  0  0  0  0  0  0  0  0  0
    6.5545    3.6240   27.1031 C   0  0  2  0  0  0  0  0  0  0  0  0
    6.0508    3.1039   25.8141 N   0  0  0  0  0  0  0  0  0  0  0  0
    5.2845    7.9164   23.3876 C   0  0  0  0  0  0  0  0  0  0  0  0
    2.4022    2.2046   25.2873 C   0  0  2  0  0  0  0  0  0  0  0  0
    2.0452    1.5843   24.0515 O   0  0  0  0  0  0  0  0  0  0  0  0
   -0.7550    0.5050   27.7611 C   0  0  2  0  0  0  0  0  0  0  0  0
   -0.2314   -0.7105   27.0912 N   0  0  0  0  0  0  0  0  0  0  0  0
    5.6128    3.1870   28.2685 C   0  0  1  0  0  0  0  0  0  0  0  0
    5.6073    1.7668   28.3899 O   0  0  0  0  0  0  0  0  0  0  0  0
    5.7277    7.4780   24.8102 C   0  0  2  0  0  0  0  0  0  0  0  0
    7.1917    7.6561   24.9019 N   0  0  0  0  0  0  0  0  0  0  0  0
    1.3557    1.9288   26.3705 C   0  0  2  0  0  0  0  0  0  0  0  0
    0.0126    1.8531   25.8166 O   0  0  0  0  0  0  0  0  0  0  0  0
   -1.9985    0.1755   28.6432 C   0  0  1  0  0  0  0  0  0  0  0  0
   -2.1763    1.2288   29.5878 O   0  0  0  0  0  0  0  0  0  0  0  0
    6.0525    3.7955   29.6237 C   0  0  2  0  0  0  0  0  0  0  0  0
    5.1041    3.4369   30.6241 O   0  0  0  0  0  0  0  0  0  0  0  0
    5.3063    6.0038   25.1531 C   0  0  2  0  0  0  0  0  0  0  0  0
    1.4974    3.1603   27.2759 C   0  0  2  0  0  0  0  0  0  0  0  0
    1.8793    4.2465   26.4097 O   0  0  0  0  0  0  0  0  0  0  0  0
   -3.3240    0.0125   27.8391 C   0  0  2  0  0  0  0  0  0  0  0  0
   -3.2789   -1.2302   27.1361 O   0  0  0  0  0  0  0  0  0  0  0  0
    6.1689    5.3420   29.5092 C   0  0  2  0  0  0  0  0  0  0  0  0
    7.0594    5.6738   28.4015 O   0  0  0  0  0  0  0  0  0  0  0  0
    3.8111    5.6930   24.7818 C   0  0  2  0  0  0  0  0  0  0  0  0
    3.6270    4.2538   24.8174 O   0  0  0  0  0  0  0  0  0  0  0  0
    2.5470    2.9749   28.3862 C   0  0  0  0  0  0  0  0  0  0  0  0
    2.8290    4.2075   29.0255 O   0  0  0  0  0  0  0  0  0  0  0  0
   -3.5119    1.1926   26.8359 C   0  0  1  0  0  0  0  0  0  0  0  0
   -2.3080    1.3417   26.0230 O   0  0  0  0  0  0  0  0  0  0  0  0
    6.7402    6.0440   30.7613 C   0  0  0  0  0  0  0  0  0  0  0  0
    6.8169    7.4472   30.5750 O   0  0  0  0  0  0  0  0  0  0  0  0
    3.4182    6.2032   23.3606 C   0  0  1  0  0  0  0  0  0  0  0  0
    2.0130    6.0309   23.1831 O   0  0  0  0  0  0  0  0  0  0  0  0
   -4.7321    0.9938   25.9005 C   0  0  0  0  0  0  0  0  0  0  0  0
   -5.9313    0.5401   26.6279 N   0  0  0  0  0  0  0  0  0  0  0  0
  1  2  1  1  0  0  0
  1  7  1  0  0  0  0
  1 30  1  0  0  0  0
  3  4  1  6  0  0  0
  3  9  1  0  0  0  0
  3 39  1  0  0  0  0
  5 10  1  0  0  0  0
  5 26  1  0  0  0  0
  5 32  1  1  0  0  0
  6 12  1  0  0  0  0
  6 36  1  0  0  0  0
  6 19  1  6  0  0  0
  7  8  1  6  0  0  0
  7 14  1  0  0  0  0
  9 16  1  0  0  0  0
 10 11  1  6  0  0  0
 10 18  1  0  0  0  0
 12 13  1  6  0  0  0
 12 20  1  0  0  0  0
 14 15  1  1  0  0  0
 14 22  1  0  0  0  0
 16 17  1  6  0  0  0
 16 24  1  0  0  0  0
 18 19  1  6  0  0  0
 18 25  1  0  0  0  0
 20 21  1  1  0  0  0
 20 27  1  0  0  0  0
 22 23  1  1  0  0  0
 22 29  1  0  0  0  0
 24  2  1  1  0  0  0
 24 31  1  0  0  0  0
 25 26  1  0  0  0  0
 25 33  1  1  0  0  0
 27 28  1  6  0  0  0
 27 35  1  0  0  0  0
 29 30  1  0  0  0  0
 29 37  1  1  0  0  0
 31 32  1  6  0  0  0
 31 39  1  0  0  0  0
 33 34  1  0  0  0  0
 35 36  1  0  0  0  0
 35 41  1  6  0  0  0
 37 38  1  0  0  0  0
 39 40  1  1  0  0  0
 41 42  1  0  0  0  0
M  END
>  <CHROM.1>
-86.86627416,-98.28596229,-45.14521221,172.15476763,168.55414476,62.76745303
76.50357278,159.92152929,-177.35699736,-47.46150542,80.19591637,60.04973723
168.63334949,-44.88295126,179.84564229,151.20196680,-173.08613036,-51.52846518
45.32227702,-61.54620346,75.88930037,58.43365858,2.49538606,3.62483224,26.68333292
-0.31062975,0.48938794,2.09378380

>  <Name>
1fyp_lig

>  <RI>
0

>  <Rbt.Current_Directory>
/home/itssahil/PROJECTS/Mol_Feturizer/New_Systems/rnas/1fyp

>  <Rbt.Executable>
rbdock ($Id: //depot/dev/client3/rdock/2013.1/src/exe/rbdock.cxx#4 $)

>  <Rbt.Library>
libRbt.so (2013.1, Build901 2013/11/27)

>  <Rbt.Parameter_File>
/export/apps/rDock/src/rDock_2013.1_src/data/scripts/dock_solv.prm

>  <Rbt.Receptor>
prm/blind_docking_100.prm

>  <SCORE>
-63.6289

>  <SCORE.INTER>
-51.0022

>  <SCORE.INTER.CONST>
1

>  <SCORE.INTER.POLAR>
-6.32828

>  <SCORE.INTER.ROT>
14

>  <SCORE.INTER.SOLV>
21.0322

>  <SCORE.INTER.VDW>
-32.8513

>  <SCORE.INTER.norm>
-1.21434

>  <SCORE.INTRA>
-12.8977

>  <SCORE.INTRA.DIHEDRAL>
-26.9984

>  <SCORE.INTRA.DIHEDRAL.0>
48.7173

>  <SCORE.INTRA.POLAR>
-0.243196

>  <SCORE.INTRA.POLAR.0>
-1.54691

>  <SCORE.INTRA.REPUL>
0

>  <SCORE.INTRA.REPUL.0>
0

>  <SCORE.INTRA.SOLV>
0.061867

>  <SCORE.INTRA.SOLV.lig_0>
-64.052

>  <SCORE.INTRA.VDW>
1.39748

>  <SCORE.INTRA.VDW.0>
-7.0667

>  <SCORE.INTRA.norm>
-0.307087

>  <SCORE.RESTR>
0.270963

>  <SCORE.RESTR.CAVITY>
0.270963

>  <SCORE.RESTR.norm>
0.00645149

>  <SCORE.SYSTEM>
0

>  <SCORE.SYSTEM.CONST>
0

>  <SCORE.SYSTEM.DIHEDRAL>
0

>  <SCORE.SYSTEM.SOLV>
0

>  <SCORE.SYSTEM.norm>
0

>  <SCORE.heavy>
42

>  <SCORE.norm>
-1.51497

>  <RMSD>
3.003

$$$$
1fyp_lig
 OpenBabel11021811393D
libRbt.so/2013.1/901 2013/11/27
 42 45  0  0  0  0  0  0  0  0999 V2000
    8.8969    6.8285   27.6059 C   0  0  2  0  0  0  0  0  0  0  0  0
    7.6531    7.5870   27.6079 O   0  0  0  0  0  0  0  0  0  0  0  0
    3.8582    8.0351   25.7004 C   0  0  2  0  0  0  0  0  0  0  0  0
    2.6367    7.8961   24.8860 N   0  0  0  0  0  0  0  0  0  0  0  0
    4.5821    4.6983   28.1395 C   0  0  1  0  0  0  0  0  0  0  0  0
    2.2642    1.2395   27.8952 C   0  0  1  0  0  0  0  0  0  0  0  0
    9.2900    6.3699   29.0472 C   0  0  2  0  0  0  0  0  0  0  0  0
    8.1609    5.6948   29.7218 N   0  0  0  0  0  0  0  0  0  0  0  0
    5.0962    7.9638   24.7844 C   0  0  0  0  0  0  0  0  0  0  0  0
    5.1454    3.4997   28.9075 C   0  0  2  0  0  0  0  0  0  0  0  0
    6.1027    2.8195   28.0948 O   0  0  0  0  0  0  0  0  0  0  0  0
    2.0777    0.3953   26.5975 C   0  0  2  0  0  0  0  0  0  0  0  0
    2.5365    1.1090   25.3807 N   0  0  0  0  0  0  0  0  0  0  0  0
    9.7852    7.5796   29.9000 C   0  0  1  0  0  0  0  0  0  0  0  0
   10.2883    7.1244   31.1536 O   0  0  0  0  0  0  0  0  0  0  0  0
    6.4227    8.1311   25.5749 C   0  0  2  0  0  0  0  0  0  0  0  0
    7.5400    7.9668   24.6219 N   0  0  0  0  0  0  0  0  0  0  0  0
    3.8917    2.6470   29.1214 C   0  0  2  0  0  0  0  0  0  0  0  0
    3.5878    1.8320   27.9553 O   0  0  0  0  0  0  0  0  0  0  0  0
    0.5996   -0.0812   26.4523 C   0  0  1  0  0  0  0  0  0  0  0  0
    0.3610   -1.1156   27.4045 O   0  0  0  0  0  0  0  0  0  0  0  0
   10.9037    8.3733   29.1793 C   0  0  2  0  0  0  0  0  0  0  0  0
   11.2449    9.5123   29.9635 O   0  0  0  0  0  0  0  0  0  0  0  0
    6.5447    7.1310   26.7803 C   0  0  2  0  0  0  0  0  0  0  0  0
    2.8085    3.7143   29.3311 C   0  0  2  0  0  0  0  0  0  0  0  0
    3.2088    4.8463   28.5347 O   0  0  0  0  0  0  0  0  0  0  0  0
   -0.4566    1.0428   26.6781 C   0  0  2  0  0  0  0  0  0  0  0  0
   -0.4448    1.9115   25.5442 O   0  0  0  0  0  0  0  0  0  0  0  0
   10.4319    8.8058   27.7620 C   0  0  2  0  0  0  0  0  0  0  0  0
    9.9830    7.6276   27.0272 O   0  0  0  0  0  0  0  0  0  0  0  0
    5.2388    7.0617   27.6521 C   0  0  2  0  0  0  0  0  0  0  0  0
    5.3287    5.8928   28.5077 O   0  0  0  0  0  0  0  0  0  0  0  0
    2.6514    4.1328   30.8038 C   0  0  0  0  0  0  0  0  0  0  0  0
    2.5020    2.9974   31.6383 O   0  0  0  0  0  0  0  0  0  0  0  0
   -0.1400    1.8475   27.9768 C   0  0  1  0  0  0  0  0  0  0  0  0
    1.2487    2.2984   27.9482 O   0  0  0  0  0  0  0  0  0  0  0  0
   11.5180    9.4806   26.8947 C   0  0  0  0  0  0  0  0  0  0  0  0
   12.6007    8.5996   26.6478 O   0  0  0  0  0  0  0  0  0  0  0  0
    3.9403    6.9441   26.7950 C   0  0  1  0  0  0  0  0  0  0  0  0
    2.8092    7.0598   27.6570 O   0  0  0  0  0  0  0  0  0  0  0  0
   -1.0669    3.0766   28.1596 C   0  0  0  0  0  0  0  0  0  0  0  0
   -0.9543    3.6720   29.5034 N   0  0  0  0  0  0  0  0  0  0  0  0
  1  2  1  1  0  0  0
  1  7  1  0  0  0  0
  1 30  1  0  0  0  0
  3  4  1  6  0  0  0
  3  9  1  0  0  0  0
  3 39  1  0  0  0  0
  5 10  1  0  0  0  0
  5 26  1  0  0  0  0
  5 32  1  1  0  0  0
  6 12  1  0  0  0  0
  6 36  1  0  0  0  0
  6 19  1  6  0  0  0
  7  8  1  1  0  0  0
  7 14  1  0  0  0  0
  9 16  1  0  0  0  0
 10 11  1  6  0  0  0
 10 18  1  0  0  0  0
 12 13  1  6  0  0  0
 12 20  1  0  0  0  0
 14 15  1  1  0  0  0
 14 22  1  0  0  0  0
 16 17  1  6  0  0  0
 16 24  1  0  0  0  0
 18 19  1  6  0  0  0
 18 25  1  0  0  0  0
 20 21  1  1  0  0  0
 20 27  1  0  0  0  0
 22 23  1  1  0  0  0
 22 29  1  0  0  0  0
 24  2  1  1  0  0  0
 24 31  1  0  0  0  0
 25 26  1  0  0  0  0
 25 33  1  1  0  0  0
 27 28  1  6  0  0  0
 27 35  1  0  0  0  0
 29 30  1  0  0  0  0
 29 37  1  6  0  0  0
 31 32  1  1  0  0  0
 31 39  1  0  0  0  0
 33 34  1  0  0  0  0
 35 36  1  0  0  0  0
 35 41  1  6  0  0  0
 37 38  1  0  0  0  0
 39 40  1  1  0  0  0
 41 42  1  0  0  0  0
M  END
>  <CHROM.1>
-123.22701183,-107.63700195,172.85177417,-31.81199571,174.90659206,66.78395803
-53.53102713,-70.15039884,-165.11254984,-179.96532942,61.32673217,-50.85076527
-50.91502161,164.26907261,61.89605857,-101.95574187,162.83972916,-67.80496030
168.40975160,73.76615622,-77.01546450,-63.02714184,5.01883837,5.09616021
27.81478013,-0.37545795,0.49921399,2.31339382

>  <Name>
1fyp_lig

>  <RI>
0

>  <Rbt.Current_Directory>
/home/itssahil/PROJECTS/Mol_Feturizer/New_Systems/rnas/1fyp

>  <Rbt.Executable>
rbdock ($Id: //depot/dev/client3/rdock/2013.1/src/exe/rbdock.cxx#4 $)

>  <Rbt.Library>
libRbt.so (2013.1, Build901 2013/11/27)

>  <Rbt.Parameter_File>
/export/apps/rDock/src/rDock_2013.1_src/data/scripts/dock_solv.prm

>  <Rbt.Receptor>
prm/pocket_docking_4.prm

>  <SCORE>
-30.5757

>  <SCORE.INTER>
-28.2096

>  <SCORE.INTER.CONST>
1

>  <SCORE.INTER.POLAR>
-3.89371

>  <SCORE.INTER.ROT>
14

>  <SCORE.INTER.SOLV>
13.5177

>  <SCORE.INTER.VDW>
-23.2666

>  <SCORE.INTER.norm>
-0.671657

>  <SCORE.INTRA>
-2.4811

>  <SCORE.INTRA.DIHEDRAL>
-19.9052

>  <SCORE.INTRA.DIHEDRAL.0>
48.7173

>  <SCORE.INTRA.POLAR>
0.502549

>  <SCORE.INTRA.POLAR.0>
-1.54691

>  <SCORE.INTRA.REPUL>
0

>  <SCORE.INTRA.REPUL.0>
0

>  <SCORE.INTRA.SOLV>
-1.68743

>  <SCORE.INTRA.SOLV.lig_0>
-64.052

>  <SCORE.INTRA.VDW>
6.60653

>  <SCORE.INTRA.VDW.0>
-7.0667

>  <SCORE.INTRA.norm>
-0.0590737

>  <SCORE.RESTR>
0.114944

>  <SCORE.RESTR.CAVITY>
0.114944

>  <SCORE.RESTR.norm>
0.00273677

>  <SCORE.SYSTEM>
0

>  <SCORE.SYSTEM.CONST>
0

>  <SCORE.SYSTEM.DIHEDRAL>
0

>  <SCORE.SYSTEM.SOLV>
0

>  <SCORE.SYSTEM.norm>
0

>  <SCORE.heavy>
42

>  <SCORE.norm>
-0.727993

>  <RMSD>
3.035

$$$$
1fyp_lig
 OpenBabel11021811393D
libRbt.so/2013.1/901 2013/11/27
 42 45  0  0  0  0  0  0  0  0999 V2000
    6.4973    6.2611   27.3469 C   0  0  2  0  0  0  0  0  0  0  0  0
    5.2534    6.5707   26.6546 O   0  0  0  0  0  0  0  0  0  0  0  0
    3.9083    8.2116   22.9480 C   0  0  2  0  0  0  0  0  0  0  0  0
    3.7170    8.6112   21.5415 N   0  0  0  0  0  0  0  0  0  0  0  0
    2.5321    4.1684   24.9568 C   0  0  1  0  0  0  0  0  0  0  0  0
   -0.3513    0.9696   26.1116 C   0  0  1  0  0  0  0  0  0  0  0  0
    7.2356    5.0534   26.6848 C   0  0  2  0  0  0  0  0  0  0  0  0
    7.3770    5.2458   25.2258 N   0  0  0  0  0  0  0  0  0  0  0  0
    5.3387    8.5744   23.3943 C   0  0  0  0  0  0  0  0  0  0  0  0
    2.7647    2.6882   25.2708 C   0  0  2  0  0  0  0  0  0  0  0  0
    2.5852    1.9146   24.0838 O   0  0  0  0  0  0  0  0  0  0  0  0
    0.4104   -0.3533   25.7942 C   0  0  2  0  0  0  0  0  0  0  0  0
    0.9054   -0.4066   24.3969 N   0  0  0  0  0  0  0  0  0  0  0  0
    6.4916    3.7145   26.9848 C   0  0  1  0  0  0  0  0  0  0  0  0
    7.2580    2.6095   26.5124 O   0  0  0  0  0  0  0  0  0  0  0  0
    5.6025    8.2050   24.8796 C   0  0  2  0  0  0  0  0  0  0  0  0
    7.0156    8.5173   25.1784 N   0  0  0  0  0  0  0  0  0  0  0  0
    1.6582    2.4062   26.2908 C   0  0  2  0  0  0  0  0  0  0  0  0
    0.3850    2.1295   25.6434 O   0  0  0  0  0  0  0  0  0  0  0  0
   -0.4698   -1.5960   26.1319 C   0  0  1  0  0  0  0  0  0  0  0  0
   -0.5353   -1.7335   27.5497 O   0  0  0  0  0  0  0  0  0  0  0  0
    6.2360    3.5245   28.5010 C   0  0  2  0  0  0  0  0  0  0  0  0
    5.4755    2.3366   28.6992 O   0  0  0  0  0  0  0  0  0  0  0  0
    5.2651    6.7053   25.2044 C   0  0  2  0  0  0  0  0  0  0  0  0
    1.5923    3.7284   27.0679 C   0  0  2  0  0  0  0  0  0  0  0  0
    1.9388    4.7601   26.1238 O   0  0  0  0  0  0  0  0  0  0  0  0
   -1.9261   -1.5127   25.5821 C   0  0  2  0  0  0  0  0  0  0  0  0
   -1.8895   -1.7085   24.1676 O   0  0  0  0  0  0  0  0  0  0  0  0
    5.4868    4.7574   29.0813 C   0  0  2  0  0  0  0  0  0  0  0  0
    6.2370    5.9675   28.7608 O   0  0  0  0  0  0  0  0  0  0  0  0
    3.8744    6.2529   24.6289 C   0  0  2  0  0  0  0  0  0  0  0  0
    3.8131    4.8038   24.6834 O   0  0  0  0  0  0  0  0  0  0  0  0
    2.5509    3.7689   28.2714 C   0  0  0  0  0  0  0  0  0  0  0  0
    2.2470    4.8601   29.1226 O   0  0  0  0  0  0  0  0  0  0  0  0
   -2.5669   -0.1305   25.9184 C   0  0  1  0  0  0  0  0  0  0  0  0
   -1.6771    0.9419   25.4817 O   0  0  0  0  0  0  0  0  0  0  0  0
    5.3052    4.7431   30.6156 C   0  0  0  0  0  0  0  0  0  0  0  0
    4.6869    3.5437   31.0498 O   0  0  0  0  0  0  0  0  0  0  0  0
    3.6536    6.6984   23.1499 C   0  0  1  0  0  0  0  0  0  0  0  0
    2.3107    6.3957   22.7748 O   0  0  0  0  0  0  0  0  0  0  0  0
   -3.9548    0.0625   25.2551 C   0  0  0  0  0  0  0  0  0  0  0  0
   -4.5978    1.3280   25.6525 N   0  0  0  0  0  0  0  0  0  0  0  0
  1  2  1  6  0  0  0
  1  7  1  0  0  0  0
  1 30  1  0  0  0  0
  3  4  1  6  0  0  0
  3  9  1  0  0  0  0
  3 39  1  0  0  0  0
  5 10  1  0  0  0  0
  5 26  1  0  0  0  0
  5 32  1  1  0  0  0
  6 12  1  0  0  0  0
  6 36  1  0  0  0  0
  6 19  1  6  0  0  0
  7  8  1  6  0  0  0
  7 14  1  0  0  0  0
  9 16  1  0  0  0  0
 10 11  1  6  0  0  0
 10 18  1  0  0  0  0
 12 13  1  6  0  0  0
 12 20  1  0  0  0  0
 14 15  1  1  0  0  0
 14 22  1  0  0  0  0
 16 17  1  6  0  0  0
 16 24  1  0  0  0  0
 18 19  1  6  0  0  0
 18 25  1  0  0  0  0
 20 21  1  1  0  0  0
 20 27  1  0  0  0  0
 22 23  1  6  0  0  0
 22 29  1  0  0  0  0
 24  2  1  1  0  0  0
 24 31  1  0  0  0  0
 25 26  1  0  0  0  0
 25 33  1  1  0  0  0
 27 28  1  6  0  0  0
 27 35  1  0  0  0  0
 29 30  1  0  0  0  0
 29 37  1  1  0  0  0
 31 32  1  6  0  0  0
 31 39  1  0  0  0  0
 33 34  1  0  0  0  0
 35 36  1  0  0  0  0
 35 41  1  6  0  0  0
 37 38  1  0  0  0  0
 39 40  1  1  0  0  0
 41 42  1  0  0  0  0
M  END
>  <CHROM.1>
-49.12264091,-88.21641894,113.55456833,158.33325520,-38.84611882,78.38725859
-161.94457352,-49.74861486,132.62424294,-65.79896440,-168.81790194,-46.96473276
-166.82774980,69.04734547,-53.84521609,145.38646153,-167.59261111,-56.52534930
175.92670617,-173.00763611,167.21568467,-53.50592501,2.83193923,3.62460363
26.03647656,-0.44306302,0.61309825,2.29816813

>  <Name>
1fyp_lig

>  <RI>
0

>  <Rbt.Current_Directory>
/home/itssahil/PROJECTS/Mol_Feturizer/New_Systems/rnas/1fyp

>  <Rbt.Executable>
rbdock ($Id: //depot/dev/client3/rdock/2013.1/src/exe/rbdock.cxx#4 $)

>  <Rbt.Library>
libRbt.so (2013.1, Build901 2013/11/27)

>  <Rbt.Parameter_File>
/export/apps/rDock/src/rDock_2013.1_src/data/scripts/dock_solv.prm

>  <Rbt.Receptor>
prm/pocket_docking_7.prm

>  <SCORE>
-41.9531

>  <SCORE.INTER>
-36.5136

>  <SCORE.INTER.CONST>
1

>  <SCORE.INTER.POLAR>
-4.14721

>  <SCORE.INTER.ROT>
14

>  <SCORE.INTER.SOLV>
21.8965

>  <SCORE.INTER.VDW>
-30.7505

>  <SCORE.INTER.norm>
-0.869372

>  <SCORE.INTRA>
-5.43945

>  <SCORE.INTRA.DIHEDRAL>
-22.0066

>  <SCORE.INTRA.DIHEDRAL.0>
48.7173

>  <SCORE.INTRA.POLAR>
0.583713

>  <SCORE.INTRA.POLAR.0>
-1.54691

>  <SCORE.INTRA.REPUL>
0

>  <SCORE.INTRA.REPUL.0>
0

>  <SCORE.INTRA.SOLV>
0.501016

>  <SCORE.INTRA.SOLV.lig_0>
-64.052

>  <SCORE.INTRA.VDW>
3.3287

>  <SCORE.INTRA.VDW.0>
-7.0667

>  <SCORE.INTRA.norm>
-0.129511

>  <SCORE.RESTR>
0

>  <SCORE.RESTR.CAVITY>
0

>  <SCORE.RESTR.norm>
0

>  <SCORE.SYSTEM>
0

>  <SCORE.SYSTEM.CONST>
0

>  <SCORE.SYSTEM.DIHEDRAL>
0

>  <SCORE.SYSTEM.SOLV>
0

>  <SCORE.SYSTEM.norm>
0

>  <SCORE.heavy>
42

>  <SCORE.norm>
-0.998883

>  <RMSD>
3.037

$$$$
1fyp_lig
 OpenBabel11021811393D
libRbt.so/2013.1/901 2013/11/27
 42 45  0  0  0  0  0  0  0  0999 V2000
    5.8587    7.0746   27.4307 C   0  0  2  0  0  0  0  0  0  0  0  0
    6.1256    6.0105   26.4722 O   0  0  0  0  0  0  0  0  0  0  0  0
    4.1902    8.0150   23.2353 C   0  0  2  0  0  0  0  0  0  0  0  0
    3.7398    8.5221   21.9260 N   0  0  0  0  0  0  0  0  0  0  0  0
    3.1968    3.9605   25.8014 C   0  0  1  0  0  0  0  0  0  0  0  0
    0.4323    1.3498   26.6529 C   0  0  1  0  0  0  0  0  0  0  0  0
    6.2183    6.6366   28.8870 C   0  0  2  0  0  0  0  0  0  0  0  0
    7.5848    6.0767   28.9567 N   0  0  0  0  0  0  0  0  0  0  0  0
    5.7153    8.2021   23.3609 C   0  0  0  0  0  0  0  0  0  0  0  0
    2.9990    2.4719   25.5036 C   0  0  2  0  0  0  0  0  0  0  0  0
    1.8134    2.2939   24.7277 O   0  0  0  0  0  0  0  0  0  0  0  0
   -0.8834    2.1857   26.6165 C   0  0  2  0  0  0  0  0  0  0  0  0
   -1.2647    2.7097   27.9508 N   0  0  0  0  0  0  0  0  0  0  0  0
    5.1815    5.6034   29.4290 C   0  0  1  0  0  0  0  0  0  0  0  0
    5.4294    5.3347   30.8067 O   0  0  0  0  0  0  0  0  0  0  0  0
    6.2567    7.7127   24.7319 C   0  0  2  0  0  0  0  0  0  0  0  0
    7.7269    7.8609   24.7157 N   0  0  0  0  0  0  0  0  0  0  0  0
    2.8356    1.8896   26.9103 C   0  0  2  0  0  0  0  0  0  0  0  0
    1.4729    2.0332   27.3990 O   0  0  0  0  0  0  0  0  0  0  0  0
   -2.0453    1.3655   25.9760 C   0  0  1  0  0  0  0  0  0  0  0  0
   -1.8190    1.2800   24.5706 O   0  0  0  0  0  0  0  0  0  0  0  0
    3.7267    6.1151   29.2809 C   0  0  2  0  0  0  0  0  0  0  0  0
    2.8291    5.0936   29.7048 O   0  0  0  0  0  0  0  0  0  0  0  0
    5.8324    6.2368   25.0635 C   0  0  2  0  0  0  0  0  0  0  0  0
    3.7981    2.7585   27.7320 C   0  0  2  0  0  0  0  0  0  0  0  0
    3.7944    4.0554   27.1044 O   0  0  0  0  0  0  0  0  0  0  0  0
   -2.1865   -0.0823   26.5363 C   0  0  2  0  0  0  0  0  0  0  0  0
   -2.7352   -0.0082   27.8531 O   0  0  0  0  0  0  0  0  0  0  0  0
    3.4425    6.5158   27.8054 C   0  0  2  0  0  0  0  0  0  0  0  0
    4.4492    7.4779   27.3688 O   0  0  0  0  0  0  0  0  0  0  0  0
    4.3070    5.9650   24.7996 C   0  0  2  0  0  0  0  0  0  0  0  0
    4.0964    4.5291   24.8078 O   0  0  0  0  0  0  0  0  0  0  0  0
    5.2300    2.1961   27.7760 C   0  0  0  0  0  0  0  0  0  0  0  0
    6.0599    2.9919   28.6040 O   0  0  0  0  0  0  0  0  0  0  0  0
   -0.8020   -0.8010   26.5690 C   0  0  1  0  0  0  0  0  0  0  0  0
    0.1708    0.0396   27.2615 O   0  0  0  0  0  0  0  0  0  0  0  0
    2.0665    7.1763   27.5661 C   0  0  0  0  0  0  0  0  0  0  0  0
    1.0103    6.3403   28.0078 O   0  0  0  0  0  0  0  0  0  0  0  0
    3.8173    6.5253   23.4282 C   0  0  1  0  0  0  0  0  0  0  0  0
    2.3994    6.3844   23.3545 O   0  0  0  0  0  0  0  0  0  0  0  0
   -0.8625   -2.1840   27.2667 C   0  0  0  0  0  0  0  0  0  0  0  0
   -2.2447   -2.6634   27.4480 N   0  0  0  0  0  0  0  0  0  0  0  0
  1  2  1  6  0  0  0
  1  7  1  0  0  0  0
  1 30  1  0  0  0  0
  3  4  1  6  0  0  0
  3  9  1  0  0  0  0
  3 39  1  0  0  0  0
  5 10  1  0  0  0  0
  5 26  1  0  0  0  0
  5 32  1  6  0  0  0
  6 12  1  0  0  0  0
  6 36  1  0  0  0  0
  6 19  1  1  0  0  0
  7  8  1  6  0  0  0
  7 14  1  0  0  0  0
  9 16  1  0  0  0  0
 10 11  1  6  0  0  0
 10 18  1  0  0  0  0
 12 13  1  1  0  0  0
 12 20  1  0  0  0  0
 14 15  1  1  0  0  0
 14 22  1  0  0  0  0
 16 17  1  6  0  0  0
 16 24  1  0  0  0  0
 18 19  1  1  0  0  0
 18 25  1  0  0  0  0
 20 21  1  6  0  0  0
 20 27  1  0  0  0  0
 22 23  1  6  0  0  0
 22 29  1  0  0  0  0
 24  2  1  1  0  0  0
 24 31  1  0  0  0  0
 25 26  1  0  0  0  0
 25 33  1  6  0  0  0
 27 28  1  1  0  0  0
 27 35  1  0  0  0  0
 29 30  1  0  0  0  0
 29 37  1  1  0  0  0
 31 32  1  6  0  0  0
 31 39  1  0  0  0  0
 33 34  1  0  0  0  0
 35 36  1  0  0  0  0
 35 41  1  1  0  0  0
 37 38  1  0  0  0  0
 39 40  1  1  0  0  0
 41 42  1  0  0  0  0
M  END
>  <CHROM.1>
179.21075140,39.79018882,66.90265795,76.29051834,64.24080235,100.05446548
-179.11236310,-62.21446394,62.33274269,-143.85249255,179.93569830,-172.20896598
-176.80746868,57.29558347,-56.72471847,118.92737613,172.94260221,-162.15721348
14.07921233,-174.79880097,80.37548140,-53.26906643,2.80013815,4.11001526
26.62517144,-0.45470009,0.68686918,2.10697099

>  <Name>
1fyp_lig

>  <RI>
0

>  <Rbt.Current_Directory>
/home/itssahil/PROJECTS/Mol_Feturizer/New_Systems/rnas/1fyp

>  <Rbt.Executable>
rbdock ($Id: //depot/dev/client3/rdock/2013.1/src/exe/rbdock.cxx#4 $)

>  <Rbt.Library>
libRbt.so (2013.1, Build901 2013/11/27)

>  <Rbt.Parameter_File>
/export/apps/rDock/src/rDock_2013.1_src/data/scripts/dock_solv.prm

>  <Rbt.Receptor>
prm/pocket_docking_8.prm

>  <SCORE>
-59.393

>  <SCORE.INTER>
-54.6253

>  <SCORE.INTER.CONST>
1

>  <SCORE.INTER.POLAR>
-6.60362

>  <SCORE.INTER.ROT>
14

>  <SCORE.INTER.SOLV>
16.4582

>  <SCORE.INTER.VDW>
-32.8242

>  <SCORE.INTER.norm>
-1.3006

>  <SCORE.INTRA>
-4.76769

>  <SCORE.INTRA.DIHEDRAL>
-23.3536

>  <SCORE.INTRA.DIHEDRAL.0>
48.7173

>  <SCORE.INTRA.POLAR>
0.311903

>  <SCORE.INTRA.POLAR.0>
-1.54691

>  <SCORE.INTRA.REPUL>
0.301752

>  <SCORE.INTRA.REPUL.0>
0

>  <SCORE.INTRA.SOLV>
2.32297

>  <SCORE.INTRA.SOLV.lig_0>
-64.052

>  <SCORE.INTRA.VDW>
3.17838

>  <SCORE.INTRA.VDW.0>
-7.0667

>  <SCORE.INTRA.norm>
-0.113516

>  <SCORE.RESTR>
0

>  <SCORE.RESTR.CAVITY>
0

>  <SCORE.RESTR.norm>
0

>  <SCORE.SYSTEM>
0

>  <SCORE.SYSTEM.CONST>
0

>  <SCORE.SYSTEM.DIHEDRAL>
0

>  <SCORE.SYSTEM.SOLV>
0

>  <SCORE.SYSTEM.norm>
0

>  <SCORE.heavy>
42

>  <SCORE.norm>
-1.41412

>  <RMSD>
3.040

$$$$
1fyp_lig
 OpenBabel11021811393D
libRbt.so/2013.1/901 2013/11/27
 42 45  0  0  0  0  0  0  0  0999 V2000
    3.2740    4.7740   28.8426 C   0  0  2  0  0  0  0  0  0  0  0  0
    3.5882    6.0182   28.1531 O   0  0  0  0  0  0  0  0  0  0  0  0
    3.5563    7.0090   23.9988 C   0  0  2  0  0  0  0  0  0  0  0  0
    3.8541    7.1988   22.5671 N   0  0  0  0  0  0  0  0  0  0  0  0
    1.7602    3.1631   26.1559 C   0  0  1  0  0  0  0  0  0  0  0  0
   -1.3118   -0.0251   26.4967 C   0  0  1  0  0  0  0  0  0  0  0  0
    3.3994    4.9310   30.3924 C   0  0  2  0  0  0  0  0  0  0  0  0
    2.6448    6.1072   30.8750 N   0  0  0  0  0  0  0  0  0  0  0  0
    4.7150    7.5760   24.8432 C   0  0  0  0  0  0  0  0  0  0  0  0
    2.0035    1.6730   25.9025 C   0  0  2  0  0  0  0  0  0  0  0  0
    1.8078    1.3864   24.5172 O   0  0  0  0  0  0  0  0  0  0  0  0
   -2.5166   -0.1243   25.5119 C   0  0  2  0  0  0  0  0  0  0  0  0
   -3.0867    1.2020   25.1711 N   0  0  0  0  0  0  0  0  0  0  0  0
    4.8964    5.0346   30.8216 C   0  0  1  0  0  0  0  0  0  0  0  0
    5.0027    5.0171   32.2429 O   0  0  0  0  0  0  0  0  0  0  0  0
    4.4554    7.4339   26.3679 C   0  0  2  0  0  0  0  0  0  0  0  0
    5.6528    7.9300   27.0778 N   0  0  0  0  0  0  0  0  0  0  0  0
    0.9146    1.0267   26.7632 C   0  0  2  0  0  0  0  0  0  0  0  0
   -0.3678    0.9943   26.0769 O   0  0  0  0  0  0  0  0  0  0  0  0
   -3.6111   -1.0863   26.0682 C   0  0  1  0  0  0  0  0  0  0  0  0
   -3.1396   -2.4269   25.9493 O   0  0  0  0  0  0  0  0  0  0  0  0
    5.7418    3.8690   30.2499 C   0  0  2  0  0  0  0  0  0  0  0  0
    7.1081    4.0713   30.5977 O   0  0  0  0  0  0  0  0  0  0  0  0
    4.1050    5.9625   26.7925 C   0  0  2  0  0  0  0  0  0  0  0  0
    0.8563    1.9716   27.9716 C   0  0  2  0  0  0  0  0  0  0  0  0
    1.1836    3.2806   27.4665 O   0  0  0  0  0  0  0  0  0  0  0  0
   -3.9843   -0.8310   27.5600 C   0  0  2  0  0  0  0  0  0  0  0  0
   -4.7562    0.3686   27.6363 O   0  0  0  0  0  0  0  0  0  0  0  0
    5.5762    3.7881   28.7058 C   0  0  2  0  0  0  0  0  0  0  0  0
    4.1563    3.6961   28.3813 O   0  0  0  0  0  0  0  0  0  0  0  0
    3.0339    5.2944   25.8563 C   0  0  2  0  0  0  0  0  0  0  0  0
    3.0343    3.8666   26.1169 O   0  0  0  0  0  0  0  0  0  0  0  0
    1.8339    1.5776   29.0930 C   0  0  0  0  0  0  0  0  0  0  0  0
    1.2603    1.8094   30.3677 O   0  0  0  0  0  0  0  0  0  0  0  0
   -2.7008   -0.7026   28.4379 C   0  0  1  0  0  0  0  0  0  0  0  0
   -1.7990    0.2824   27.8471 O   0  0  0  0  0  0  0  0  0  0  0  0
    6.2610    2.5721   28.0428 C   0  0  0  0  0  0  0  0  0  0  0  0
    6.8344    2.9215   26.7943 O   0  0  0  0  0  0  0  0  0  0  0  0
    3.3273    5.5169   24.3400 C   0  0  1  0  0  0  0  0  0  0  0  0
    2.2221    5.0277   23.5819 O   0  0  0  0  0  0  0  0  0  0  0  0
   -3.0143   -0.2890   29.8986 C   0  0  0  0  0  0  0  0  0  0  0  0
   -2.1884    0.8445   30.3526 N   0  0  0  0  0  0  0  0  0  0  0  0
  1  2  1  6  0  0  0
  1  7  1  0  0  0  0
  1 30  1  0  0  0  0
  3  4  1  6  0  0  0
  3  9  1  0  0  0  0
  3 39  1  0  0  0  0
  5 10  1  0  0  0  0
  5 26  1  0  0  0  0
  5 32  1  1  0  0  0
  6 12  1  0  0  0  0
  6 36  1  0  0  0  0
  6 19  1  6  0  0  0
  7  8  1  6  0  0  0
  7 14  1  0  0  0  0
  9 16  1  0  0  0  0
 10 11  1  6  0  0  0
 10 18  1  0  0  0  0
 12 13  1  1  0  0  0
 12 20  1  0  0  0  0
 14 15  1  1  0  0  0
 14 22  1  0  0  0  0
 16 17  1  1  0  0  0
 16 24  1  0  0  0  0
 18 19  1  6  0  0  0
 18 25  1  0  0  0  0
 20 21  1  1  0  0  0
 20 27  1  0  0  0  0
 22 23  1  6  0  0  0
 22 29  1  0  0  0  0
 24  2  1  1  0  0  0
 24 31  1  0  0  0  0
 25 26  1  0  0  0  0
 25 33  1  1  0  0  0
 27 28  1  6  0  0  0
 27 35  1  0  0  0  0
 29 30  1  0  0  0  0
 29 37  1  1  0  0  0
 31 32  1  6  0  0  0
 31 39  1  0  0  0  0
 33 34  1  0  0  0  0
 35 36  1  0  0  0  0
 35 41  1  1  0  0  0
 37 38  1  0  0  0  0
 39 40  1  6  0  0  0
 41 42  1  0  0  0  0
M  END
>  <CHROM.1>
152.87275254,-175.42919043,-51.86110732,-42.34489584,166.29079847,165.58534788
-170.99048616,54.74715929,155.53829932,-169.13089974,179.85600852,-110.27168776
-142.78918160,174.51572714,-141.96937467,139.76773104,158.41415609,-56.95138952
-130.17742648,64.32448517,-70.22570601,74.05628880,1.80139723,3.08762267
27.41506833,-0.14940223,0.64031804,1.89449118

>  <Name>
1fyp_lig

>  <RI>
0

>  <Rbt.Current_Directory>
/home/itssahil/PROJECTS/Mol_Feturizer/New_Systems/rnas/1fyp

>  <Rbt.Executable>
rbdock ($Id: //depot/dev/client3/rdock/2013.1/src/exe/rbdock.cxx#4 $)

>  <Rbt.Library>
libRbt.so (2013.1, Build901 2013/11/27)

>  <Rbt.Parameter_File>
/export/apps/rDock/src/rDock_2013.1_src/data/scripts/dock_solv.prm

>  <Rbt.Receptor>
prm/pocket_docking_6.prm

>  <SCORE>
-56.262

>  <SCORE.INTER>
-54.9361

>  <SCORE.INTER.CONST>
1

>  <SCORE.INTER.POLAR>
-7.51767

>  <SCORE.INTER.ROT>
14

>  <SCORE.INTER.SOLV>
20.363

>  <SCORE.INTER.VDW>
-31.2862

>  <SCORE.INTER.norm>
-1.308

>  <SCORE.INTRA>
-1.32584

>  <SCORE.INTRA.DIHEDRAL>
-12.1115

>  <SCORE.INTRA.DIHEDRAL.0>
48.7173

>  <SCORE.INTRA.POLAR>
1.20507

>  <SCORE.INTRA.POLAR.0>
-1.54691

>  <SCORE.INTRA.REPUL>
0.0171428

>  <SCORE.INTRA.REPUL.0>
0

>  <SCORE.INTRA.SOLV>
-2.15732

>  <SCORE.INTRA.SOLV.lig_0>
-64.052

>  <SCORE.INTRA.VDW>
1.62561

>  <SCORE.INTRA.VDW.0>
-7.0667

>  <SCORE.INTRA.norm>
-0.0315677

>  <SCORE.RESTR>
0

>  <SCORE.RESTR.CAVITY>
0

>  <SCORE.RESTR.norm>
0

>  <SCORE.SYSTEM>
0

>  <SCORE.SYSTEM.CONST>
0

>  <SCORE.SYSTEM.DIHEDRAL>
0

>  <SCORE.SYSTEM.SOLV>
0

>  <SCORE.SYSTEM.norm>
0

>  <SCORE.heavy>
42

>  <SCORE.norm>
-1.33957

>  <RMSD>
3.055

$$$$
1fyp_lig
 OpenBabel11021811393D
libRbt.so/2013.1/901 2013/11/27
 42 45  0  0  0  0  0  0  0  0999 V2000
    6.4826    5.0125   28.6421 C   0  0  2  0  0  0  0  0  0  0  0  0
    5.1318    5.4965   28.3898 O   0  0  0  0  0  0  0  0  0  0  0  0
    3.1770    8.2416   25.7661 C   0  0  2  0  0  0  0  0  0  0  0  0
    2.7099    9.0493   24.6242 N   0  0  0  0  0  0  0  0  0  0  0  0
    1.6457    4.0127   26.4714 C   0  0  1  0  0  0  0  0  0  0  0  0
   -1.8099    1.2379   25.9392 C   0  0  1  0  0  0  0  0  0  0  0  0
    6.4914    3.8693   29.7075 C   0  0  2  0  0  0  0  0  0  0  0  0
    5.5145    2.8127   29.3684 N   0  0  0  0  0  0  0  0  0  0  0  0
    4.7095    8.3605   25.8857 C   0  0  0  0  0  0  0  0  0  0  0  0
    1.6065    2.6181   25.8412 C   0  0  2  0  0  0  0  0  0  0  0  0
    1.2968    2.7309   24.4516 O   0  0  0  0  0  0  0  0  0  0  0  0
   -2.2873    0.7424   27.3384 C   0  0  2  0  0  0  0  0  0  0  0  0
   -1.1620    0.5070   28.2757 N   0  0  0  0  0  0  0  0  0  0  0  0
    6.2035    4.4356   31.1332 C   0  0  1  0  0  0  0  0  0  0  0  0
    6.3713    3.4127   32.1116 O   0  0  0  0  0  0  0  0  0  0  0  0
    5.2696    7.5535   27.0888 C   0  0  2  0  0  0  0  0  0  0  0  0
    6.7426    7.6689   27.0633 N   0  0  0  0  0  0  0  0  0  0  0  0
    0.4620    1.9568   26.6140 C   0  0  2  0  0  0  0  0  0  0  0  0
   -0.8368    2.3079   26.0605 O   0  0  0  0  0  0  0  0  0  0  0  0
   -3.1865   -0.5248   27.2020 C   0  0  1  0  0  0  0  0  0  0  0  0
   -4.4539   -0.1277   26.6829 O   0  0  0  0  0  0  0  0  0  0  0  0
    7.1452    5.6141   31.4861 C   0  0  2  0  0  0  0  0  0  0  0  0
    6.7717    6.1441   32.7543 O   0  0  0  0  0  0  0  0  0  0  0  0
    4.8114    6.0508   27.0816 C   0  0  2  0  0  0  0  0  0  0  0  0
    0.6313    2.5577   28.0164 C   0  0  2  0  0  0  0  0  0  0  0  0
    1.1627    3.8821   27.8180 O   0  0  0  0  0  0  0  0  0  0  0  0
   -2.5990   -1.6244   26.2663 C   0  0  2  0  0  0  0  0  0  0  0  0
   -1.5102   -2.2590   26.9389 O   0  0  0  0  0  0  0  0  0  0  0  0
    7.0688    6.7138   30.3892 C   0  0  2  0  0  0  0  0  0  0  0  0
    7.3454    6.1121   29.0887 O   0  0  0  0  0  0  0  0  0  0  0  0
    3.2730    5.8818   26.8078 C   0  0  2  0  0  0  0  0  0  0  0  0
    3.0217    4.4884   26.4889 O   0  0  0  0  0  0  0  0  0  0  0  0
    1.5753    1.7378   28.9138 C   0  0  0  0  0  0  0  0  0  0  0  0
    2.9298    1.9765   28.5733 O   0  0  0  0  0  0  0  0  0  0  0  0
   -2.1125   -1.0040   24.9198 C   0  0  1  0  0  0  0  0  0  0  0  0
   -1.2208    0.1201   25.1916 O   0  0  0  0  0  0  0  0  0  0  0  0
    8.0745    7.8739   30.5626 C   0  0  0  0  0  0  0  0  0  0  0  0
    9.4075    7.4335   30.3657 O   0  0  0  0  0  0  0  0  0  0  0  0
    2.7666    6.7565   25.6191 C   0  0  1  0  0  0  0  0  0  0  0  0
    1.3439    6.6681   25.5575 O   0  0  0  0  0  0  0  0  0  0  0  0
   -1.3744   -2.0290   24.0212 C   0  0  0  0  0  0  0  0  0  0  0  0
   -0.0555   -1.5424   23.5778 N   0  0  0  0  0  0  0  0  0  0  0  0
  1  2  1  1  0  0  0
  1  7  1  0  0  0  0
  1 30  1  0  0  0  0
  3  4  1  6  0  0  0
  3  9  1  0  0  0  0
  3 39  1  0  0  0  0
  5 10  1  0  0  0  0
  5 26  1  0  0  0  0
  5 32  1  1  0  0  0
  6 12  1  0  0  0  0
  6 36  1  0  0  0  0
  6 19  1  1  0  0  0
  7  8  1  6  0  0  0
  7 14  1  0  0  0  0
  9 16  1  0  0  0  0
 10 11  1  6  0  0  0
 10 18  1  0  0  0  0
 12 13  1  1  0  0  0
 12 20  1  0  0  0  0
 14 15  1  1  0  0  0
 14 22  1  0  0  0  0
 16 17  1  6  0  0  0
 16 24  1  0  0  0  0
 18 19  1  6  0  0  0
 18 25  1  0  0  0  0
 20 21  1  6  0  0  0
 20 27  1  0  0  0  0
 22 23  1  1  0  0  0
 22 29  1  0  0  0  0
 24  2  1  1  0  0  0
 24 31  1  0  0  0  0
 25 26  1  0  0  0  0
 25 33  1  1  0  0  0
 27 28  1  1  0  0  0
 27 35  1  0  0  0  0
 29 30  1  0  0  0  0
 29 37  1  1  0  0  0
 31 32  1  6  0  0  0
 31 39  1  0  0  0  0
 33 34  1  0  0  0  0
 35 36  1  0  0  0  0
 35 41  1  6  0  0  0
 37 38  1  0  0  0  0
 39 40  1  1  0  0  0
 41 42  1  0  0  0  0
M  END
>  <CHROM.1>
-151.40131563,-83.31471733,55.63861798,-39.76346818,77.68793262,177.57489256
77.14228270,64.72018815,137.38962876,68.09858367,-55.98081696,-66.09459747
77.37701898,63.84565395,67.73352469,167.17758932,168.55768236,-63.48837120
-127.78368473,56.85755994,55.94813125,105.49645113,2.59907014,3.62695022
27.51492521,-0.28172380,0.68891951,2.46405215

>  <Name>
1fyp_lig

>  <RI>
0

>  <Rbt.Current_Directory>
/home/itssahil/PROJECTS/Mol_Feturizer/New_Systems/rnas/1fyp

>  <Rbt.Executable>
rbdock ($Id: //depot/dev/client3/rdock/2013.1/src/exe/rbdock.cxx#4 $)

>  <Rbt.Library>
libRbt.so (2013.1, Build901 2013/11/27)

>  <Rbt.Parameter_File>
/export/apps/rDock/src/rDock_2013.1_src/data/scripts/dock_solv.prm

>  <Rbt.Receptor>
prm/pocket_docking_5.prm

>  <SCORE>
-43.1779

>  <SCORE.INTER>
-35.6223

>  <SCORE.INTER.CONST>
1

>  <SCORE.INTER.POLAR>
-5.82613

>  <SCORE.INTER.ROT>
14

>  <SCORE.INTER.SOLV>
14.7906

>  <SCORE.INTER.VDW>
-22.1914

>  <SCORE.INTER.norm>
-0.848151

>  <SCORE.INTRA>
-7.55555

>  <SCORE.INTRA.DIHEDRAL>
-22.8244

>  <SCORE.INTRA.DIHEDRAL.0>
48.7173

>  <SCORE.INTRA.POLAR>
-0.237728

>  <SCORE.INTRA.POLAR.0>
-1.54691

>  <SCORE.INTRA.REPUL>
0

>  <SCORE.INTRA.REPUL.0>
0

>  <SCORE.INTRA.SOLV>
0.993674

>  <SCORE.INTRA.SOLV.lig_0>
-64.052

>  <SCORE.INTRA.VDW>
4.16808

>  <SCORE.INTRA.VDW.0>
-7.0667

>  <SCORE.INTRA.norm>
-0.179894

>  <SCORE.RESTR>
0

>  <SCORE.RESTR.CAVITY>
0

>  <SCORE.RESTR.norm>
0

>  <SCORE.SYSTEM>
0

>  <SCORE.SYSTEM.CONST>
0

>  <SCORE.SYSTEM.DIHEDRAL>
0

>  <SCORE.SYSTEM.SOLV>
0

>  <SCORE.SYSTEM.norm>
0

>  <SCORE.heavy>
42

>  <SCORE.norm>
-1.02804

>  <RMSD>
3.060

$$$$
1fyp_lig
 OpenBabel11021811393D
libRbt.so/2013.1/901 2013/11/27
 42 45  0  0  0  0  0  0  0  0999 V2000
    3.5396    4.5682   28.3588 C   0  0  2  0  0  0  0  0  0  0  0  0
    3.3274    5.9199   27.8583 O   0  0  0  0  0  0  0  0  0  0  0  0
    2.6459    7.5766   23.9812 C   0  0  2  0  0  0  0  0  0  0  0  0
    2.7454    8.0815   22.5993 N   0  0  0  0  0  0  0  0  0  0  0  0
    2.0592    3.0877   25.6601 C   0  0  1  0  0  0  0  0  0  0  0  0
   -0.3400   -0.2362   26.6254 C   0  0  1  0  0  0  0  0  0  0  0  0
    2.5449    4.2227   29.5134 C   0  0  2  0  0  0  0  0  0  0  0  0
    1.1496    4.5217   29.1268 N   0  0  0  0  0  0  0  0  0  0  0  0
    3.7138    8.2629   24.8562 C   0  0  0  0  0  0  0  0  0  0  0  0
    2.5675    1.7342   25.1567 C   0  0  2  0  0  0  0  0  0  0  0  0
    2.1411    1.5358   23.8082 O   0  0  0  0  0  0  0  0  0  0  0  0
   -1.5183   -0.9544   25.8996 C   0  0  2  0  0  0  0  0  0  0  0  0
   -2.2099   -0.0757   24.9251 N   0  0  0  0  0  0  0  0  0  0  0  0
    2.9211    4.9897   30.8196 C   0  0  1  0  0  0  0  0  0  0  0  0
    2.1067    4.5462   31.9021 O   0  0  0  0  0  0  0  0  0  0  0  0
    3.6490    7.7970   26.3364 C   0  0  2  0  0  0  0  0  0  0  0  0
    4.7579    8.4489   27.0638 N   0  0  0  0  0  0  0  0  0  0  0  0
    1.8673    0.7619   26.1100 C   0  0  2  0  0  0  0  0  0  0  0  0
    0.5059    0.4752   25.6846 O   0  0  0  0  0  0  0  0  0  0  0  0
   -2.5211   -1.5575   26.9310 C   0  0  1  0  0  0  0  0  0  0  0  0
   -1.9210   -2.7042   27.5298 O   0  0  0  0  0  0  0  0  0  0  0  0
    4.4074    4.7801   31.2033 C   0  0  2  0  0  0  0  0  0  0  0  0
    4.7098    5.5766   32.3447 O   0  0  0  0  0  0  0  0  0  0  0  0
    3.7043    6.2342   26.4869 C   0  0  2  0  0  0  0  0  0  0  0  0
    1.8666    1.5483   27.4283 C   0  0  2  0  0  0  0  0  0  0  0  0
    1.7738    2.9381   27.0601 O   0  0  0  0  0  0  0  0  0  0  0  0
   -2.9341   -0.5736   28.0673 C   0  0  2  0  0  0  0  0  0  0  0  0
   -3.8190    0.4057   27.5209 O   0  0  0  0  0  0  0  0  0  0  0  0
    5.3316    5.1586   30.0113 C   0  0  2  0  0  0  0  0  0  0  0  0
    4.9199    4.4074   28.8297 O   0  0  0  0  0  0  0  0  0  0  0  0
    2.7359    5.4898   25.4979 C   0  0  2  0  0  0  0  0  0  0  0  0
    3.1033    4.0859   25.4774 O   0  0  0  0  0  0  0  0  0  0  0  0
    3.1296    1.3084   28.2744 C   0  0  0  0  0  0  0  0  0  0  0  0
    4.2960    1.6631   27.5524 O   0  0  0  0  0  0  0  0  0  0  0  0
   -1.6790    0.1186   28.6840 C   0  0  1  0  0  0  0  0  0  0  0  0
   -0.8699    0.7054   27.6193 O   0  0  0  0  0  0  0  0  0  0  0  0
    6.8302    4.8528   30.2298 C   0  0  0  0  0  0  0  0  0  0  0  0
    7.6459    5.6411   29.3797 O   0  0  0  0  0  0  0  0  0  0  0  0
    2.8151    6.0393   24.0397 C   0  0  1  0  0  0  0  0  0  0  0  0
    1.7887    5.4257   23.2614 O   0  0  0  0  0  0  0  0  0  0  0  0
   -2.0475    1.2237   29.7067 C   0  0  0  0  0  0  0  0  0  0  0  0
   -1.1008    2.3533   29.6808 N   0  0  0  0  0  0  0  0  0  0  0  0
  1  2  1  1  0  0  0
  1  7  1  0  0  0  0
  1 30  1  0  0  0  0
  3  4  1  6  0  0  0
  3  9  1  0  0  0  0
  3 39  1  0  0  0  0
  5 10  1  0  0  0  0
  5 26  1  0  0  0  0
  5 32  1  1  0  0  0
  6 12  1  0  0  0  0
  6 36  1  0  0  0  0
  6 19  1  6  0  0  0
  7  8  1  6  0  0  0
  7 14  1  0  0  0  0
  9 16  1  0  0  0  0
 10 11  1  6  0  0  0
 10 18  1  0  0  0  0
 12 13  1  6  0  0  0
 12 20  1  0  0  0  0
 14 15  1  1  0  0  0
 14 22  1  0  0  0  0
 16 17  1  1  0  0  0
 16 24  1  0  0  0  0
 18 19  1  6  0  0  0
 18 25  1  0  0  0  0
 20 21  1  1  0  0  0
 20 27  1  0  0  0  0
 22 23  1  1  0  0  0
 22 29  1  0  0  0  0
 24  2  1  1  0  0  0
 24 31  1  0  0  0  0
 25 26  1  0  0  0  0
 25 33  1  6  0  0  0
 27 28  1  6  0  0  0
 27 35  1  0  0  0  0
 29 30  1  0  0  0  0
 29 37  1  1  0  0  0
 31 32  1  6  0  0  0
 31 39  1  0  0  0  0
 33 34  1  0  0  0  0
 35 36  1  0  0  0  0
 35 41  1  1  0  0  0
 37 38  1  0  0  0  0
 39 40  1  6  0  0  0
 41 42  1  0  0  0  0
M  END
>  <CHROM.1>
-153.86748721,-168.20141749,72.75496014,124.48952842,-174.69828444,165.95235488
66.65898723,51.70153007,-169.18911420,-157.84865618,-178.55421385,-62.60907746
58.47875131,-165.50473069,-158.08270103,130.21027692,161.66718679,90.97324850
-145.44706944,-165.17818398,70.52640172,-142.28688332,1.91298694,3.34336939
27.37151035,-0.18757354,0.80846193,1.92080556

>  <Name>
1fyp_lig

>  <RI>
0

>  <Rbt.Current_Directory>
/home/itssahil/PROJECTS/Mol_Feturizer/New_Systems/rnas/1fyp

>  <Rbt.Executable>
rbdock ($Id: //depot/dev/client3/rdock/2013.1/src/exe/rbdock.cxx#4 $)

>  <Rbt.Library>
libRbt.so (2013.1, Build901 2013/11/27)

>  <Rbt.Parameter_File>
/export/apps/rDock/src/rDock_2013.1_src/data/scripts/dock_solv.prm

>  <Rbt.Receptor>
prm/pocket_docking_6.prm

>  <SCORE>
-44.0058

>  <SCORE.INTER>
-36

>  <SCORE.INTER.CONST>
1

>  <SCORE.INTER.POLAR>
-5.99688

>  <SCORE.INTER.ROT>
14

>  <SCORE.INTER.SOLV>
18.8145

>  <SCORE.INTER.VDW>
-23.2152

>  <SCORE.INTER.norm>
-0.857143

>  <SCORE.INTRA>
-8.16506

>  <SCORE.INTRA.DIHEDRAL>
-17.2187

>  <SCORE.INTRA.DIHEDRAL.0>
48.7173

>  <SCORE.INTRA.POLAR>
-0.718088

>  <SCORE.INTRA.POLAR.0>
-1.54691

>  <SCORE.INTRA.REPUL>
0

>  <SCORE.INTRA.REPUL.0>
0

>  <SCORE.INTRA.SOLV>
0.211519

>  <SCORE.INTRA.SOLV.lig_0>
-64.052

>  <SCORE.INTRA.VDW>
2.78003

>  <SCORE.INTRA.VDW.0>
-7.0667

>  <SCORE.INTRA.norm>
-0.194406

>  <SCORE.RESTR>
0.159273

>  <SCORE.RESTR.CAVITY>
0.159273

>  <SCORE.RESTR.norm>
0.00379221

>  <SCORE.SYSTEM>
0

>  <SCORE.SYSTEM.CONST>
0

>  <SCORE.SYSTEM.DIHEDRAL>
0

>  <SCORE.SYSTEM.SOLV>
0

>  <SCORE.SYSTEM.norm>
0

>  <SCORE.heavy>
42

>  <SCORE.norm>
-1.04776

>  <RMSD>
3.073

$$$$
1fyp_lig
 OpenBabel11021811393D
libRbt.so/2013.1/901 2013/11/27
 42 45  0  0  0  0  0  0  0  0999 V2000
    5.8261    6.4973   28.6665 C   0  0  2  0  0  0  0  0  0  0  0  0
    5.9764    5.3671   27.7596 O   0  0  0  0  0  0  0  0  0  0  0  0
    3.0481    6.8151   25.0083 C   0  0  2  0  0  0  0  0  0  0  0  0
    2.0919    7.0126   23.9033 N   0  0  0  0  0  0  0  0  0  0  0  0
    2.6796    3.1393   27.1400 C   0  0  1  0  0  0  0  0  0  0  0  0
    0.6942   -0.3175   25.6810 C   0  0  1  0  0  0  0  0  0  0  0  0
    7.0237    7.4935   28.5430 C   0  0  2  0  0  0  0  0  0  0  0  0
    7.2678    7.8664   27.1334 N   0  0  0  0  0  0  0  0  0  0  0  0
    4.4321    6.4569   24.4310 C   0  0  0  0  0  0  0  0  0  0  0  0
    2.6371    1.9261   28.0727 C   0  0  2  0  0  0  0  0  0  0  0  0
    3.8409    1.1713   27.9289 O   0  0  0  0  0  0  0  0  0  0  0  0
    0.6148    0.1492   24.1953 C   0  0  2  0  0  0  0  0  0  0  0  0
    0.7013    1.6233   24.0540 N   0  0  0  0  0  0  0  0  0  0  0  0
    8.3168    6.8899   29.1751 C   0  0  1  0  0  0  0  0  0  0  0  0
    9.3548    7.8664   29.1982 O   0  0  0  0  0  0  0  0  0  0  0  0
    5.4996    6.2607   25.5421 C   0  0  2  0  0  0  0  0  0  0  0  0
    6.7585    5.8442   24.8901 N   0  0  0  0  0  0  0  0  0  0  0  0
    1.4298    1.1559   27.5308 C   0  0  2  0  0  0  0  0  0  0  0  0
    1.7841    0.3352   26.3830 O   0  0  0  0  0  0  0  0  0  0  0  0
   -0.6655   -0.4129   23.5040 C   0  0  1  0  0  0  0  0  0  0  0  0
   -0.4795   -1.8073   23.2702 O   0  0  0  0  0  0  0  0  0  0  0  0
    8.0735    6.3952   30.6230 C   0  0  2  0  0  0  0  0  0  0  0  0
    9.2600    5.7738   31.1076 O   0  0  0  0  0  0  0  0  0  0  0  0
    5.0539    5.2299   26.6408 C   0  0  2  0  0  0  0  0  0  0  0  0
    0.4856    2.2913   27.1116 C   0  0  2  0  0  0  0  0  0  0  0  0
    1.3344    3.3789   26.6963 O   0  0  0  0  0  0  0  0  0  0  0  0
   -1.9711   -0.2276   24.3353 C   0  0  2  0  0  0  0  0  0  0  0  0
   -2.3448    1.1505   24.2929 O   0  0  0  0  0  0  0  0  0  0  0  0
    6.8797    5.3994   30.6604 C   0  0  2  0  0  0  0  0  0  0  0  0
    5.7120    6.0297   30.0527 O   0  0  0  0  0  0  0  0  0  0  0  0
    3.5850    5.4705   27.1453 C   0  0  2  0  0  0  0  0  0  0  0  0
    3.1628    4.2942   27.8832 O   0  0  0  0  0  0  0  0  0  0  0  0
   -0.4461    2.7510   28.2470 C   0  0  0  0  0  0  0  0  0  0  0  0
   -1.0814    1.6423   28.8592 O   0  0  0  0  0  0  0  0  0  0  0  0
   -1.7565   -0.6824   25.8123 C   0  0  1  0  0  0  0  0  0  0  0  0
   -0.5736   -0.0251   26.3611 O   0  0  0  0  0  0  0  0  0  0  0  0
    6.4533    4.9506   32.0760 C   0  0  0  0  0  0  0  0  0  0  0  0
    5.9588    3.6222   32.0678 O   0  0  0  0  0  0  0  0  0  0  0  0
    2.5733    5.7096   25.9818 C   0  0  1  0  0  0  0  0  0  0  0  0
    1.3142    6.0850   26.5380 O   0  0  0  0  0  0  0  0  0  0  0  0
   -2.9751   -0.3685   26.7177 C   0  0  0  0  0  0  0  0  0  0  0  0
   -4.1671   -1.1539   26.3500 N   0  0  0  0  0  0  0  0  0  0  0  0
  1  2  1  6  0  0  0
  1  7  1  0  0  0  0
  1 30  1  0  0  0  0
  3  4  1  6  0  0  0
  3  9  1  0  0  0  0
  3 39  1  0  0  0  0
  5 10  1  0  0  0  0
  5 26  1  0  0  0  0
  5 32  1  1  0  0  0
  6 12  1  0  0  0  0
  6 36  1  0  0  0  0
  6 19  1  1  0  0  0
  7  8  1  6  0  0  0
  7 14  1  0  0  0  0
  9 16  1  0  0  0  0
 10 11  1  6  0  0  0
 10 18  1  0  0  0  0
 12 13  1  1  0  0  0
 12 20  1  0  0  0  0
 14 15  1  1  0  0  0
 14 22  1  0  0  0  0
 16 17  1  6  0  0  0
 16 24  1  0  0  0  0
 18 19  1  6  0  0  0
 18 25  1  0  0  0  0
 20 21  1  1  0  0  0
 20 27  1  0  0  0  0
 22 23  1  6  0  0  0
 22 29  1  0  0  0  0
 24  2  1  1  0  0  0
 24 31  1  0  0  0  0
 25 26  1  0  0  0  0
 25 33  1  1  0  0  0
 27 28  1  1  0  0  0
 27 35  1  0  0  0  0
 29 30  1  0  0  0  0
 29 37  1  1  0  0  0
 31 32  1  6  0  0  0
 31 39  1  0  0  0  0
 33 34  1  0  0  0  0
 35 36  1  0  0  0  0
 35 41  1  1  0  0  0
 37 38  1  0  0  0  0
 39 40  1  1  0  0  0
 41 42  1  0  0  0  0
M  END
>  <CHROM.1>
-112.15324535,76.98186513,102.14290731,161.44764829,176.50518494,31.84083338
60.81012464,87.35357871,-172.78459717,119.23130285,175.02709665,-175.41342684
-49.29675410,175.30763152,-147.76537668,-81.42350639,165.65257091,-36.08821939
66.54140080,-173.24574854,-53.88186549,-153.60439652,2.93187533,3.53724133
27.10662767,0.02585823,-0.71586405,-1.01687566

>  <Name>
1fyp_lig

>  <RI>
0

>  <Rbt.Current_Directory>
/home/itssahil/PROJECTS/Mol_Feturizer/New_Systems/rnas/1fyp

>  <Rbt.Executable>
rbdock ($Id: //depot/dev/client3/rdock/2013.1/src/exe/rbdock.cxx#4 $)

>  <Rbt.Library>
libRbt.so (2013.1, Build901 2013/11/27)

>  <Rbt.Parameter_File>
/export/apps/rDock/src/rDock_2013.1_src/data/scripts/dock_solv.prm

>  <Rbt.Receptor>
prm/pocket_docking_3.prm

>  <SCORE>
-39.4731

>  <SCORE.INTER>
-39.3391

>  <SCORE.INTER.CONST>
1

>  <SCORE.INTER.POLAR>
-5.52882

>  <SCORE.INTER.ROT>
14

>  <SCORE.INTER.SOLV>
13.643

>  <SCORE.INTER.VDW>
-25.2777

>  <SCORE.INTER.norm>
-0.936646

>  <SCORE.INTRA>
-0.943401

>  <SCORE.INTRA.DIHEDRAL>
-17.0634

>  <SCORE.INTRA.DIHEDRAL.0>
48.7173

>  <SCORE.INTRA.POLAR>
0.561063

>  <SCORE.INTRA.POLAR.0>
-1.54691

>  <SCORE.INTRA.REPUL>
0

>  <SCORE.INTRA.REPUL.0>
0

>  <SCORE.INTRA.SOLV>
-0.500701

>  <SCORE.INTRA.SOLV.lig_0>
-64.052

>  <SCORE.INTRA.VDW>
5.93103

>  <SCORE.INTRA.VDW.0>
-7.0667

>  <SCORE.INTRA.norm>
-0.0224619

>  <SCORE.RESTR>
0.809445

>  <SCORE.RESTR.CAVITY>
0.809445

>  <SCORE.RESTR.norm>
0.0192725

>  <SCORE.SYSTEM>
0

>  <SCORE.SYSTEM.CONST>
0

>  <SCORE.SYSTEM.DIHEDRAL>
0

>  <SCORE.SYSTEM.SOLV>
0

>  <SCORE.SYSTEM.norm>
0

>  <SCORE.heavy>
42

>  <SCORE.norm>
-0.939835

>  <RMSD>
3.076

$$$$
1fyp_lig
 OpenBabel11021811393D
libRbt.so/2013.1/901 2013/11/27
 42 45  0  0  0  0  0  0  0  0999 V2000
    5.5942    6.9158   27.4861 C   0  0  2  0  0  0  0  0  0  0  0  0
    5.8923    5.8320   26.5593 O   0  0  0  0  0  0  0  0  0  0  0  0
    3.9360    7.7087   23.2591 C   0  0  2  0  0  0  0  0  0  0  0  0
    3.4809    8.1683   21.9339 N   0  0  0  0  0  0  0  0  0  0  0  0
    2.6586    3.7548   25.5340 C   0  0  1  0  0  0  0  0  0  0  0  0
   -0.5214    0.8470   26.7010 C   0  0  1  0  0  0  0  0  0  0  0  0
    5.8747    6.4975   28.9654 C   0  0  2  0  0  0  0  0  0  0  0  0
    7.2276    5.9197   29.1119 N   0  0  0  0  0  0  0  0  0  0  0  0
    5.4587    7.9184   23.3796 C   0  0  0  0  0  0  0  0  0  0  0  0
    2.4454    2.3143   25.0614 C   0  0  2  0  0  0  0  0  0  0  0  0
    1.5761    2.3076   23.9284 O   0  0  0  0  0  0  0  0  0  0  0  0
   -0.0606   -0.4965   26.0576 C   0  0  2  0  0  0  0  0  0  0  0  0
    0.2249   -0.3674   24.6078 N   0  0  0  0  0  0  0  0  0  0  0  0
    4.7971    5.4882   29.4718 C   0  0  1  0  0  0  0  0  0  0  0  0
    4.9725    5.2394   30.8643 O   0  0  0  0  0  0  0  0  0  0  0  0
    6.0045    7.4795   24.7659 C   0  0  2  0  0  0  0  0  0  0  0  0
    7.4728    7.6451   24.7460 N   0  0  0  0  0  0  0  0  0  0  0  0
    1.7730    1.6800   26.2820 C   0  0  2  0  0  0  0  0  0  0  0  0
    0.3428    1.9452   26.3090 O   0  0  0  0  0  0  0  0  0  0  0  0
   -1.0974   -1.6288   26.3330 C   0  0  1  0  0  0  0  0  0  0  0  0
   -0.9961   -2.0132   27.7025 O   0  0  0  0  0  0  0  0  0  0  0  0
    3.3592    6.0177   29.2432 C   0  0  2  0  0  0  0  0  0  0  0  0
    2.4266    5.0163   29.6384 O   0  0  0  0  0  0  0  0  0  0  0  0
    5.5979    6.0098   25.1440 C   0  0  2  0  0  0  0  0  0  0  0  0
    2.4764    2.3945   27.4445 C   0  0  2  0  0  0  0  0  0  0  0  0
    2.7929    3.7153   26.9638 O   0  0  0  0  0  0  0  0  0  0  0  0
   -2.5751   -1.2217   26.0487 C   0  0  2  0  0  0  0  0  0  0  0  0
   -2.7642   -1.1569   24.6343 O   0  0  0  0  0  0  0  0  0  0  0  0
    3.1544    6.3974   27.7491 C   0  0  2  0  0  0  0  0  0  0  0  0
    4.1957    7.3378   27.3476 O   0  0  0  0  0  0  0  0  0  0  0  0
    4.0763    5.7111   24.8879 C   0  0  2  0  0  0  0  0  0  0  0  0
    3.8832    4.2736   24.9416 O   0  0  0  0  0  0  0  0  0  0  0  0
    3.7581    1.6780   27.9056 C   0  0  0  0  0  0  0  0  0  0  0  0
    4.5315    2.5172   28.7454 O   0  0  0  0  0  0  0  0  0  0  0  0
   -2.9049    0.1572   26.7001 C   0  0  1  0  0  0  0  0  0  0  0  0
   -1.9027    1.1410   26.2998 O   0  0  0  0  0  0  0  0  0  0  0  0
    1.8018    7.0730   27.4310 C   0  0  0  0  0  0  0  0  0  0  0  0
    0.7359    6.1399   27.4807 O   0  0  0  0  0  0  0  0  0  0  0  0
    3.5812    6.2214   23.4990 C   0  0  1  0  0  0  0  0  0  0  0  0
    2.1652    6.0609   23.4289 O   0  0  0  0  0  0  0  0  0  0  0  0
   -4.3112    0.6811   26.3116 C   0  0  0  0  0  0  0  0  0  0  0  0
   -5.3680   -0.3212   26.5384 N   0  0  0  0  0  0  0  0  0  0  0  0
  1  2  1  6  0  0  0
  1  7  1  0  0  0  0
  1 30  1  0  0  0  0
  3  4  1  6  0  0  0
  3  9  1  0  0  0  0
  3 39  1  0  0  0  0
  5 10  1  0  0  0  0
  5 26  1  0  0  0  0
  5 32  1  6  0  0  0
  6 12  1  0  0  0  0
  6 36  1  0  0  0  0
  6 19  1  6  0  0  0
  7  8  1  6  0  0  0
  7 14  1  0  0  0  0
  9 16  1  0  0  0  0
 10 11  1  6  0  0  0
 10 18  1  0  0  0  0
 12 13  1  6  0  0  0
 12 20  1  0  0  0  0
 14 15  1  1  0  0  0
 14 22  1  0  0  0  0
 16 17  1  6  0  0  0
 16 24  1  0  0  0  0
 18 19  1  6  0  0  0
 18 25  1  0  0  0  0
 20 21  1  1  0  0  0
 20 27  1  0  0  0  0
 22 23  1  6  0  0  0
 22 29  1  0  0  0  0
 24  2  1  1  0  0  0
 24 31  1  0  0  0  0
 25 26  1  0  0  0  0
 25 33  1  6  0  0  0
 27 28  1  6  0  0  0
 27 35  1  0  0  0  0
 29 30  1  0  0  0  0
 29 37  1  1  0  0  0
 31 32  1  6  0  0  0
 31 39  1  0  0  0  0
 33 34  1  0  0  0  0
 35 36  1  0  0  0  0
 35 41  1  6  0  0  0
 37 38  1  0  0  0  0
 39 40  1  1  0  0  0
 41 42  1  0  0  0  0
M  END
>  <CHROM.1>
175.57926460,40.63550602,-53.31899785,-51.14834797,56.05126538,36.41766124
59.76364259,-77.89245623,138.72690345,-41.68995969,-62.39433041,-70.87477017
166.23403085,-48.80280699,-72.95553648,143.06075797,160.61993515,-69.50616337
51.35317408,-173.69736212,74.60358263,-26.69805192,2.26259248,3.77014237
26.36814024,-0.27238874,0.73584048,1.98155313

>  <Name>
1fyp_lig

>  <RI>
0

>  <Rbt.Current_Directory>
/home/itssahil/PROJECTS/Mol_Feturizer/New_Systems/rnas/1fyp

>  <Rbt.Executable>
rbdock ($Id: //depot/dev/client3/rdock/2013.1/src/exe/rbdock.cxx#4 $)

>  <Rbt.Library>
libRbt.so (2013.1, Build901 2013/11/27)

>  <Rbt.Parameter_File>
/export/apps/rDock/src/rDock_2013.1_src/data/scripts/dock_solv.prm

>  <Rbt.Receptor>
prm/blind_docking_100.prm

>  <SCORE>
-71.208

>  <SCORE.INTER>
-57.9438

>  <SCORE.INTER.CONST>
1

>  <SCORE.INTER.POLAR>
-7.64723

>  <SCORE.INTER.ROT>
14

>  <SCORE.INTER.SOLV>
16.444

>  <SCORE.INTER.VDW>
-31.5531

>  <SCORE.INTER.norm>
-1.37961

>  <SCORE.INTRA>
-13.2642

>  <SCORE.INTRA.DIHEDRAL>
-25.2904

>  <SCORE.INTRA.DIHEDRAL.0>
48.7173

>  <SCORE.INTRA.POLAR>
-1.02981

>  <SCORE.INTRA.POLAR.0>
-1.54691

>  <SCORE.INTRA.REPUL>
0.0208241

>  <SCORE.INTRA.REPUL.0>
0

>  <SCORE.INTRA.SOLV>
1.47033

>  <SCORE.INTRA.SOLV.lig_0>
-64.052

>  <SCORE.INTRA.VDW>
2.04305

>  <SCORE.INTRA.VDW.0>
-7.0667

>  <SCORE.INTRA.norm>
-0.315815

>  <SCORE.RESTR>
0

>  <SCORE.RESTR.CAVITY>
0

>  <SCORE.RESTR.norm>
0

>  <SCORE.SYSTEM>
0

>  <SCORE.SYSTEM.CONST>
0

>  <SCORE.SYSTEM.DIHEDRAL>
0

>  <SCORE.SYSTEM.SOLV>
0

>  <SCORE.SYSTEM.norm>
0

>  <SCORE.heavy>
42

>  <SCORE.norm>
-1.69543

>  <RMSD>
3.088

$$$$
1fyp_lig
 OpenBabel11021811393D
libRbt.so/2013.1/901 2013/11/27
 42 45  0  0  0  0  0  0  0  0999 V2000
    5.5449    6.8905   27.6552 C   0  0  2  0  0  0  0  0  0  0  0  0
    5.8365    5.7728   26.7675 O   0  0  0  0  0  0  0  0  0  0  0  0
    3.6879    7.4775   23.4936 C   0  0  2  0  0  0  0  0  0  0  0  0
    3.1426    7.8541   22.1763 N   0  0  0  0  0  0  0  0  0  0  0  0
    2.3822    3.7691   26.0493 C   0  0  1  0  0  0  0  0  0  0  0  0
   -0.9950    1.6040   25.8245 C   0  0  1  0  0  0  0  0  0  0  0  0
    6.7661    7.2289   28.5697 C   0  0  2  0  0  0  0  0  0  0  0  0
    8.0040    7.3824   27.7761 N   0  0  0  0  0  0  0  0  0  0  0  0
    5.2225    7.6255   23.4748 C   0  0  0  0  0  0  0  0  0  0  0  0
    2.0109    2.3821   25.5183 C   0  0  2  0  0  0  0  0  0  0  0  0
    1.1189    2.5180   24.4113 O   0  0  0  0  0  0  0  0  0  0  0  0
   -2.4476    1.5043   26.3823 C   0  0  2  0  0  0  0  0  0  0  0  0
   -2.4982    0.9143   27.7424 N   0  0  0  0  0  0  0  0  0  0  0  0
    6.9586    6.1360   29.6673 C   0  0  1  0  0  0  0  0  0  0  0  0
    7.9712    6.5361   30.5872 O   0  0  0  0  0  0  0  0  0  0  0  0
    5.8641    7.2700   24.8438 C   0  0  2  0  0  0  0  0  0  0  0  0
    7.3310    7.3658   24.6933 N   0  0  0  0  0  0  0  0  0  0  0  0
    1.3058    1.7617   26.7276 C   0  0  2  0  0  0  0  0  0  0  0  0
   -0.0886    2.1693   26.8071 O   0  0  0  0  0  0  0  0  0  0  0  0
   -3.3708    0.7287   25.3928 C   0  0  1  0  0  0  0  0  0  0  0  0
   -3.6400    1.5677   24.2716 O   0  0  0  0  0  0  0  0  0  0  0  0
    5.6511    5.8755   30.4566 C   0  0  2  0  0  0  0  0  0  0  0  0
    5.8669    4.8081   31.3746 O   0  0  0  0  0  0  0  0  0  0  0  0
    5.4324    5.8543   25.3705 C   0  0  2  0  0  0  0  0  0  0  0  0
    2.1061    2.3445   27.9007 C   0  0  2  0  0  0  0  0  0  0  0  0
    2.5454    3.6478   27.4715 O   0  0  0  0  0  0  0  0  0  0  0  0
   -2.7614   -0.6066   24.8677 C   0  0  2  0  0  0  0  0  0  0  0  0
   -2.7965   -1.5681   25.9236 O   0  0  0  0  0  0  0  0  0  0  0  0
    4.4902    5.5319   29.4806 C   0  0  2  0  0  0  0  0  0  0  0  0
    4.3722    6.5927   28.4854 O   0  0  0  0  0  0  0  0  0  0  0  0
    3.8841    5.6072   25.2617 C   0  0  2  0  0  0  0  0  0  0  0  0
    3.6393    4.1886   25.4464 O   0  0  0  0  0  0  0  0  0  0  0  0
    3.3179    1.4802   28.2924 C   0  0  0  0  0  0  0  0  0  0  0  0
    3.2497    1.1035   29.6566 O   0  0  0  0  0  0  0  0  0  0  0  0
   -1.2941   -0.3927   24.3822 C   0  0  1  0  0  0  0  0  0  0  0  0
   -0.5228    0.2712   25.4295 O   0  0  0  0  0  0  0  0  0  0  0  0
    3.1027    5.3936   30.1461 C   0  0  0  0  0  0  0  0  0  0  0  0
    2.1731    6.3101   29.5937 O   0  0  0  0  0  0  0  0  0  0  0  0
    3.2957    6.0311   23.8802 C   0  0  1  0  0  0  0  0  0  0  0  0
    1.8735    5.9312   23.9367 O   0  0  0  0  0  0  0  0  0  0  0  0
   -0.5908   -1.7206   24.0011 C   0  0  0  0  0  0  0  0  0  0  0  0
   -0.4577   -2.6369   25.1481 N   0  0  0  0  0  0  0  0  0  0  0  0
  1  2  1  1  0  0  0
  1  7  1  0  0  0  0
  1 30  1  0  0  0  0
  3  4  1  6  0  0  0
  3  9  1  0  0  0  0
  3 39  1  0  0  0  0
  5 10  1  0  0  0  0
  5 26  1  0  0  0  0
  5 32  1  6  0  0  0
  6 12  1  0  0  0  0
  6 36  1  0  0  0  0
  6 19  1  1  0  0  0
  7  8  1  6  0  0  0
  7 14  1  0  0  0  0
  9 16  1  0  0  0  0
 10 11  1  6  0  0  0
 10 18  1  0  0  0  0
 12 13  1  1  0  0  0
 12 20  1  0  0  0  0
 14 15  1  1  0  0  0
 14 22  1  0  0  0  0
 16 17  1  6  0  0  0
 16 24  1  0  0  0  0
 18 19  1  1  0  0  0
 18 25  1  0  0  0  0
 20 21  1  6  0  0  0
 20 27  1  0  0  0  0
 22 23  1  1  0  0  0
 22 29  1  0  0  0  0
 24  2  1  1  0  0  0
 24 31  1  0  0  0  0
 25 26  1  0  0  0  0
 25 33  1  6  0  0  0
 27 28  1  1  0  0  0
 27 35  1  0  0  0  0
 29 30  1  0  0  0  0
 29 37  1  1  0  0  0
 31 32  1  6  0  0  0
 31 39  1  0  0  0  0
 33 34  1  0  0  0  0
 35 36  1  0  0  0  0
 35 41  1  1  0  0  0
 37 38  1  0  0  0  0
 39 40  1  1  0  0  0
 41 42  1  0  0  0  0
M  END
>  <CHROM.1>
-136.29917613,46.38864534,49.27309702,-171.23484932,-54.41898471,142.42219207
61.15325133,151.59793182,71.91308307,151.46521484,-150.39602675,48.08314460
-123.15796364,69.86377014,121.25396774,149.43738518,151.04325213,-171.07166309
-62.79230495,-74.49500591,-74.09211424,58.31415846,2.52668037,3.80204000
26.58847640,0.08521086,-0.73106573,-1.12211327

>  <Name>
1fyp_lig

>  <RI>
0

>  <Rbt.Current_Directory>
/home/itssahil/PROJECTS/Mol_Feturizer/New_Systems/rnas/1fyp

>  <Rbt.Executable>
rbdock ($Id: //depot/dev/client3/rdock/2013.1/src/exe/rbdock.cxx#4 $)

>  <Rbt.Library>
libRbt.so (2013.1, Build901 2013/11/27)

>  <Rbt.Parameter_File>
/export/apps/rDock/src/rDock_2013.1_src/data/scripts/dock_solv.prm

>  <Rbt.Receptor>
prm/pocket_docking_5.prm

>  <SCORE>
-37.7903

>  <SCORE.INTER>
-37.0652

>  <SCORE.INTER.CONST>
1

>  <SCORE.INTER.POLAR>
-4.82561

>  <SCORE.INTER.ROT>
14

>  <SCORE.INTER.SOLV>
17.0281

>  <SCORE.INTER.VDW>
-27.2342

>  <SCORE.INTER.norm>
-0.882505

>  <SCORE.INTRA>
-0.725109

>  <SCORE.INTRA.DIHEDRAL>
-9.3366

>  <SCORE.INTRA.DIHEDRAL.0>
48.7173

>  <SCORE.INTRA.POLAR>
-0.123814

>  <SCORE.INTRA.POLAR.0>
-1.54691

>  <SCORE.INTRA.REPUL>
0

>  <SCORE.INTRA.REPUL.0>
0

>  <SCORE.INTRA.SOLV>
0.0643505

>  <SCORE.INTRA.SOLV.lig_0>
-64.052

>  <SCORE.INTRA.VDW>
4.33198

>  <SCORE.INTRA.VDW.0>
-7.0667

>  <SCORE.INTRA.norm>
-0.0172645

>  <SCORE.RESTR>
0

>  <SCORE.RESTR.CAVITY>
0

>  <SCORE.RESTR.norm>
0

>  <SCORE.SYSTEM>
0

>  <SCORE.SYSTEM.CONST>
0

>  <SCORE.SYSTEM.DIHEDRAL>
0

>  <SCORE.SYSTEM.SOLV>
0

>  <SCORE.SYSTEM.norm>
0

>  <SCORE.heavy>
42

>  <SCORE.norm>
-0.899769

>  <RMSD>
3.104

$$$$
1fyp_lig
 OpenBabel11021811393D
libRbt.so/2013.1/901 2013/11/27
 42 45  0  0  0  0  0  0  0  0999 V2000
    5.8346    6.4137   28.1668 C   0  0  2  0  0  0  0  0  0  0  0  0
    6.0373    5.3568   27.1848 O   0  0  0  0  0  0  0  0  0  0  0  0
    4.2625    7.5921   24.0076 C   0  0  2  0  0  0  0  0  0  0  0  0
    3.8386    8.1553   22.7124 N   0  0  0  0  0  0  0  0  0  0  0  0
    2.4215    3.7860   25.8870 C   0  0  1  0  0  0  0  0  0  0  0  0
   -1.0980    1.3041   25.5605 C   0  0  1  0  0  0  0  0  0  0  0  0
    6.2158    5.9386   29.6059 C   0  0  2  0  0  0  0  0  0  0  0  0
    7.5623    5.3287   29.6303 N   0  0  0  0  0  0  0  0  0  0  0  0
    5.8020    7.5967   24.0898 C   0  0  0  0  0  0  0  0  0  0  0  0
    2.1438    2.3611   25.4011 C   0  0  2  0  0  0  0  0  0  0  0  0
    1.5525    2.4067   24.1020 O   0  0  0  0  0  0  0  0  0  0  0  0
   -2.5853    1.7686   25.6195 C   0  0  2  0  0  0  0  0  0  0  0  0
   -2.9698    2.2859   26.9555 N   0  0  0  0  0  0  0  0  0  0  0  0
    5.1565    4.9345   30.1589 C   0  0  1  0  0  0  0  0  0  0  0  0
    5.4301    4.6339   31.5251 O   0  0  0  0  0  0  0  0  0  0  0  0
    6.3201    7.0400   25.4440 C   0  0  2  0  0  0  0  0  0  0  0  0
    7.7964    7.0133   25.3860 N   0  0  0  0  0  0  0  0  0  0  0  0
    1.1456    1.8613   26.4491 C   0  0  2  0  0  0  0  0  0  0  0  0
   -0.2117    2.2910   26.1498 O   0  0  0  0  0  0  0  0  0  0  0  0
   -3.5425    0.6277   25.1558 C   0  0  1  0  0  0  0  0  0  0  0  0
   -3.4287    0.4870   23.7413 O   0  0  0  0  0  0  0  0  0  0  0  0
    3.7179    5.5007   30.0577 C   0  0  2  0  0  0  0  0  0  0  0  0
    2.7949    4.5053   30.4892 O   0  0  0  0  0  0  0  0  0  0  0  0
    5.7334    5.6231   25.7855 C   0  0  2  0  0  0  0  0  0  0  0  0
    1.6563    2.5385   27.7286 C   0  0  2  0  0  0  0  0  0  0  0  0
    2.2303    3.7922   27.3108 O   0  0  0  0  0  0  0  0  0  0  0  0
   -3.2462   -0.7564   25.8090 C   0  0  2  0  0  0  0  0  0  0  0  0
   -3.6746   -0.7167   27.1712 O   0  0  0  0  0  0  0  0  0  0  0  0
    3.4102    5.9361   28.5969 C   0  0  2  0  0  0  0  0  0  0  0  0
    4.4396    6.8685   28.1489 O   0  0  0  0  0  0  0  0  0  0  0  0
    4.1798    5.5351   25.5649 C   0  0  2  0  0  0  0  0  0  0  0  0
    3.8008    4.1341   25.5769 O   0  0  0  0  0  0  0  0  0  0  0  0
    2.7068    1.6989   28.4771 C   0  0  0  0  0  0  0  0  0  0  0  0
    3.9714    1.7917   27.8448 O   0  0  0  0  0  0  0  0  0  0  0  0
   -1.7241   -1.0906   25.7324 C   0  0  1  0  0  0  0  0  0  0  0  0
   -0.9493    0.0258   26.2669 O   0  0  0  0  0  0  0  0  0  0  0  0
    2.0534    6.6498   28.4049 C   0  0  0  0  0  0  0  0  0  0  0  0
    2.2015    7.8449   27.6571 O   0  0  0  0  0  0  0  0  0  0  0  0
    3.7214    6.1561   24.2088 C   0  0  1  0  0  0  0  0  0  0  0  0
    2.2953    6.1844   24.1755 O   0  0  0  0  0  0  0  0  0  0  0  0
   -1.3552   -2.3802   26.5096 C   0  0  0  0  0  0  0  0  0  0  0  0
   -1.6350   -2.2677   27.9525 N   0  0  0  0  0  0  0  0  0  0  0  0
  1  2  1  6  0  0  0
  1  7  1  0  0  0  0
  1 30  1  0  0  0  0
  3  4  1  6  0  0  0
  3  9  1  0  0  0  0
  3 39  1  0  0  0  0
  5 10  1  0  0  0  0
  5 26  1  0  0  0  0
  5 32  1  1  0  0  0
  6 12  1  0  0  0  0
  6 36  1  0  0  0  0
  6 19  1  1  0  0  0
  7  8  1  6  0  0  0
  7 14  1  0  0  0  0
  9 16  1  0  0  0  0
 10 11  1  6  0  0  0
 10 18  1  0  0  0  0
 12 13  1  1  0  0  0
 12 20  1  0  0  0  0
 14 15  1  1  0  0  0
 14 22  1  0  0  0  0
 16 17  1  6  0  0  0
 16 24  1  0  0  0  0
 18 19  1  6  0  0  0
 18 25  1  0  0  0  0
 20 21  1  6  0  0  0
 20 27  1  0  0  0  0
 22 23  1  6  0  0  0
 22 29  1  0  0  0  0
 24  2  1  1  0  0  0
 24 31  1  0  0  0  0
 25 26  1  0  0  0  0
 25 33  1  6  0  0  0
 27 28  1  1  0  0  0
 27 35  1  0  0  0  0
 29 30  1  0  0  0  0
 29 37  1  1  0  0  0
 31 32  1  6  0  0  0
 31 39  1  0  0  0  0
 33 34  1  0  0  0  0
 35 36  1  0  0  0  0
 35 41  1  1  0  0  0
 37 38  1  0  0  0  0
 39 40  1  1  0  0  0
 41 42  1  0  0  0  0
M  END
>  <CHROM.1>
-179.95254860,44.10996774,63.73448187,-56.20861826,-177.97581835,46.71646123
178.50426729,-37.28815346,102.14621694,165.83468930,-66.09663279,173.04170631
77.51408942,-47.57599076,131.32921565,157.56711289,161.51326610,-83.82163952
-62.24546026,-58.28974644,70.56050378,-95.88284655,2.22054961,3.72375634
26.73625077,-0.21379276,0.68561338,2.06023061

>  <Name>
1fyp_lig

>  <RI>
0

>  <Rbt.Current_Directory>
/home/itssahil/PROJECTS/Mol_Feturizer/New_Systems/rnas/1fyp

>  <Rbt.Executable>
rbdock ($Id: //depot/dev/client3/rdock/2013.1/src/exe/rbdock.cxx#4 $)

>  <Rbt.Library>
libRbt.so (2013.1, Build901 2013/11/27)

>  <Rbt.Parameter_File>
/export/apps/rDock/src/rDock_2013.1_src/data/scripts/dock_solv.prm

>  <Rbt.Receptor>
prm/pocket_docking_3.prm

>  <SCORE>
-49.6687

>  <SCORE.INTER>
-43.7646

>  <SCORE.INTER.CONST>
1

>  <SCORE.INTER.POLAR>
-5.9344

>  <SCORE.INTER.ROT>
14

>  <SCORE.INTER.SOLV>
16.8851

>  <SCORE.INTER.VDW>
-27.9568

>  <SCORE.INTER.norm>
-1.04202

>  <SCORE.INTRA>
-7.20364

>  <SCORE.INTRA.DIHEDRAL>
-24.18

>  <SCORE.INTRA.DIHEDRAL.0>
48.7173

>  <SCORE.INTRA.POLAR>
0.892042

>  <SCORE.INTRA.POLAR.0>
-1.54691

>  <SCORE.INTRA.REPUL>
0.0830079

>  <SCORE.INTRA.REPUL.0>
0

>  <SCORE.INTRA.SOLV>
0.368692

>  <SCORE.INTRA.SOLV.lig_0>
-64.052

>  <SCORE.INTRA.VDW>
1.25404

>  <SCORE.INTRA.VDW.0>
-7.0667

>  <SCORE.INTRA.norm>
-0.171515

>  <SCORE.RESTR>
1.29956

>  <SCORE.RESTR.CAVITY>
1.29956

>  <SCORE.RESTR.norm>
0.0309418

>  <SCORE.SYSTEM>
0

>  <SCORE.SYSTEM.CONST>
0

>  <SCORE.SYSTEM.DIHEDRAL>
0

>  <SCORE.SYSTEM.SOLV>
0

>  <SCORE.SYSTEM.norm>
0

>  <SCORE.heavy>
42

>  <SCORE.norm>
-1.18259

>  <RMSD>
3.181

$$$$
1fyp_lig
 OpenBabel11021811393D
libRbt.so/2013.1/901 2013/11/27
 42 45  0  0  0  0  0  0  0  0999 V2000
    7.5591    8.6771   25.7597 C   0  0  2  0  0  0  0  0  0  0  0  0
    7.2844    7.7653   24.6572 O   0  0  0  0  0  0  0  0  0  0  0  0
    3.2956    9.1947   24.1216 C   0  0  2  0  0  0  0  0  0  0  0  0
    1.9054    9.4421   23.6965 N   0  0  0  0  0  0  0  0  0  0  0  0
    3.8584    5.2871   25.5117 C   0  0  1  0  0  0  0  0  0  0  0  0
    0.9488    2.0536   25.5516 C   0  0  1  0  0  0  0  0  0  0  0  0
    9.0796    9.0269   25.8480 C   0  0  2  0  0  0  0  0  0  0  0  0
    9.6046    9.4711   24.5392 N   0  0  0  0  0  0  0  0  0  0  0  0
    4.2233    9.2356   22.8910 C   0  0  0  0  0  0  0  0  0  0  0  0
    4.3113    3.8418   25.7349 C   0  0  2  0  0  0  0  0  0  0  0  0
    4.7083    3.2683   24.4887 O   0  0  0  0  0  0  0  0  0  0  0  0
    1.3081    0.8195   26.4342 C   0  0  2  0  0  0  0  0  0  0  0  0
    2.4415    0.0353   25.8858 N   0  0  0  0  0  0  0  0  0  0  0  0
    9.9007    7.8089   26.3756 C   0  0  1  0  0  0  0  0  0  0  0  0
   11.2555    8.1900   26.6014 O   0  0  0  0  0  0  0  0  0  0  0  0
    5.7125    9.0091   23.2697 C   0  0  2  0  0  0  0  0  0  0  0  0
    6.4982    8.9867   22.0184 N   0  0  0  0  0  0  0  0  0  0  0  0
    3.0308    3.1901   26.2641 C   0  0  2  0  0  0  0  0  0  0  0  0
    2.1352    2.8048   25.1843 O   0  0  0  0  0  0  0  0  0  0  0  0
    0.0556   -0.0805   26.6671 C   0  0  1  0  0  0  0  0  0  0  0  0
   -0.8134    0.5803   27.5845 O   0  0  0  0  0  0  0  0  0  0  0  0
    9.3188    7.2514   27.6988 C   0  0  2  0  0  0  0  0  0  0  0  0
   10.0520    6.0902   28.0765 O   0  0  0  0  0  0  0  0  0  0  0  0
    5.9357    7.7012   24.1110 C   0  0  2  0  0  0  0  0  0  0  0  0
    2.4148    4.3218   27.0984 C   0  0  2  0  0  0  0  0  0  0  0  0
    2.8004    5.5482   26.4479 O   0  0  0  0  0  0  0  0  0  0  0  0
   -0.7515   -0.3956   25.3713 C   0  0  2  0  0  0  0  0  0  0  0  0
   -0.0094   -1.3340   24.5908 O   0  0  0  0  0  0  0  0  0  0  0  0
    7.8105    6.9144   27.5261 C   0  0  2  0  0  0  0  0  0  0  0  0
    7.1105    8.0948   27.0297 O   0  0  0  0  0  0  0  0  0  0  0  0
    4.9050    7.5474   25.2874 C   0  0  2  0  0  0  0  0  0  0  0  0
    4.9763    6.1820   25.7745 O   0  0  0  0  0  0  0  0  0  0  0  0
    2.8963    4.3243   28.5602 C   0  0  0  0  0  0  0  0  0  0  0  0
    2.9115    3.0099   29.0891 O   0  0  0  0  0  0  0  0  0  0  0  0
   -1.0088    0.9052   24.5490 C   0  0  1  0  0  0  0  0  0  0  0  0
    0.2529    1.6094   24.3376 O   0  0  0  0  0  0  0  0  0  0  0  0
    7.0891    6.4854   28.8232 C   0  0  0  0  0  0  0  0  0  0  0  0
    5.6923    6.3582   28.6176 O   0  0  0  0  0  0  0  0  0  0  0  0
    3.4352    7.8366   24.8507 C   0  0  1  0  0  0  0  0  0  0  0  0
    2.6039    7.8403   26.0102 O   0  0  0  0  0  0  0  0  0  0  0  0
   -1.6669    0.6231   23.1740 C   0  0  0  0  0  0  0  0  0  0  0  0
   -3.0959    0.2817   23.2930 N   0  0  0  0  0  0  0  0  0  0  0  0
  1  2  1  6  0  0  0
  1  7  1  0  0  0  0
  1 30  1  0  0  0  0
  3  4  1  6  0  0  0
  3  9  1  0  0  0  0
  3 39  1  0  0  0  0
  5 10  1  0  0  0  0
  5 26  1  0  0  0  0
  5 32  1  1  0  0  0
  6 12  1  0  0  0  0
  6 36  1  0  0  0  0
  6 19  1  6  0  0  0
  7  8  1  6  0  0  0
  7 14  1  0  0  0  0
  9 16  1  0  0  0  0
 10 11  1  6  0  0  0
 10 18  1  0  0  0  0
 12 13  1  6  0  0  0
 12 20  1  0  0  0  0
 14 15  1  1  0  0  0
 14 22  1  0  0  0  0
 16 17  1  6  0  0  0
 16 24  1  0  0  0  0
 18 19  1  6  0  0  0
 18 25  1  0  0  0  0
 20 21  1  1  0  0  0
 20 27  1  0  0  0  0
 22 23  1  6  0  0  0
 22 29  1  0  0  0  0
 24  2  1  1  0  0  0
 24 31  1  0  0  0  0
 25 26  1  0  0  0  0
 25 33  1  1  0  0  0
 27 28  1  6  0  0  0
 27 35  1  0  0  0  0
 29 30  1  0  0  0  0
 29 37  1  1  0  0  0
 31 32  1  6  0  0  0
 31 39  1  0  0  0  0
 33 34  1  0  0  0  0
 35 36  1  0  0  0  0
 35 41  1  6  0  0  0
 37 38  1  0  0  0  0
 39 40  1  1  0  0  0
 41 42  1  0  0  0  0
M  END
>  <CHROM.1>
-157.99435623,73.81604309,26.75543133,-56.52489549,-173.89736653,-30.22951120
-166.43012755,-168.68551191,173.89680151,-51.46824210,-75.52985932,-178.74797431
-43.35750668,73.21139490,172.69484734,-109.57961499,163.43566689,-55.88342036
74.82641262,-83.77639337,80.20978581,-57.17694814,4.09340875,5.10210762,25.71305456
0.55019133,-0.53109508,-0.62441486

>  <Name>
1fyp_lig

>  <RI>
0

>  <Rbt.Current_Directory>
/home/itssahil/PROJECTS/Mol_Feturizer/New_Systems/rnas/1fyp

>  <Rbt.Executable>
rbdock ($Id: //depot/dev/client3/rdock/2013.1/src/exe/rbdock.cxx#4 $)

>  <Rbt.Library>
libRbt.so (2013.1, Build901 2013/11/27)

>  <Rbt.Parameter_File>
/export/apps/rDock/src/rDock_2013.1_src/data/scripts/dock_solv.prm

>  <Rbt.Receptor>
prm/blind_docking_60.prm

>  <SCORE>
-45.2315

>  <SCORE.INTER>
-44.281

>  <SCORE.INTER.CONST>
1

>  <SCORE.INTER.POLAR>
-6.13398

>  <SCORE.INTER.ROT>
14

>  <SCORE.INTER.SOLV>
20.064

>  <SCORE.INTER.VDW>
-28.6954

>  <SCORE.INTER.norm>
-1.05431

>  <SCORE.INTRA>
-1.13393

>  <SCORE.INTRA.DIHEDRAL>
-24.64

>  <SCORE.INTRA.DIHEDRAL.0>
48.7173

>  <SCORE.INTRA.POLAR>
1.54691

>  <SCORE.INTRA.POLAR.0>
-1.54691

>  <SCORE.INTRA.REPUL>
0.0291266

>  <SCORE.INTRA.REPUL.0>
0

>  <SCORE.INTRA.SOLV>
-0.883444

>  <SCORE.INTRA.SOLV.lig_0>
-64.052

>  <SCORE.INTRA.VDW>
6.22263

>  <SCORE.INTRA.VDW.0>
-7.0667

>  <SCORE.INTRA.norm>
-0.0269983

>  <SCORE.RESTR>
0.183451

>  <SCORE.RESTR.CAVITY>
0.183451

>  <SCORE.RESTR.norm>
0.00436787

>  <SCORE.SYSTEM>
0

>  <SCORE.SYSTEM.CONST>
0

>  <SCORE.SYSTEM.DIHEDRAL>
0

>  <SCORE.SYSTEM.SOLV>
0

>  <SCORE.SYSTEM.norm>
0

>  <SCORE.heavy>
42

>  <SCORE.norm>
-1.07694

>  <RMSD>
3.182

$$$$
1fyp_lig
 OpenBabel11021811393D
libRbt.so/2013.1/901 2013/11/27
 42 45  0  0  0  0  0  0  0  0999 V2000
    5.5615    6.7263   27.7664 C   0  0  2  0  0  0  0  0  0  0  0  0
    5.8395    5.6733   26.7989 O   0  0  0  0  0  0  0  0  0  0  0  0
    4.2762    7.8493   23.4730 C   0  0  2  0  0  0  0  0  0  0  0  0
    3.9673    8.4167   22.1474 N   0  0  0  0  0  0  0  0  0  0  0  0
    2.6853    3.7942   25.4054 C   0  0  1  0  0  0  0  0  0  0  0  0
   -0.4104    0.7904   26.5271 C   0  0  1  0  0  0  0  0  0  0  0  0
    5.9026    6.2710   29.2219 C   0  0  2  0  0  0  0  0  0  0  0  0
    7.2677    5.7092   29.3020 N   0  0  0  0  0  0  0  0  0  0  0  0
    5.7863    7.9885   23.7512 C   0  0  0  0  0  0  0  0  0  0  0  0
    2.6415    2.2792   25.1894 C   0  0  2  0  0  0  0  0  0  0  0  0
    1.9490    1.9903   23.9743 O   0  0  0  0  0  0  0  0  0  0  0  0
    0.3106   -0.5431   26.1624 C   0  0  2  0  0  0  0  0  0  0  0  0
    0.9002   -0.5204   24.8015 N   0  0  0  0  0  0  0  0  0  0  0  0
    4.8584    5.2324   29.7388 C   0  0  1  0  0  0  0  0  0  0  0  0
    5.0889    4.9474   31.1163 O   0  0  0  0  0  0  0  0  0  0  0  0
    6.1802    7.4339   25.1475 C   0  0  2  0  0  0  0  0  0  0  0  0
    7.6483    7.5410   25.2779 N   0  0  0  0  0  0  0  0  0  0  0  0
    1.8430    1.8114   26.4092 C   0  0  2  0  0  0  0  0  0  0  0  0
    0.4095    1.9422   26.1984 O   0  0  0  0  0  0  0  0  0  0  0  0
   -0.6471   -1.7606   26.3455 C   0  0  1  0  0  0  0  0  0  0  0  0
   -0.8189   -1.9966   27.7413 O   0  0  0  0  0  0  0  0  0  0  0  0
    3.4059    5.7470   29.5786 C   0  0  2  0  0  0  0  0  0  0  0  0
    2.5024    4.7214   29.9793 O   0  0  0  0  0  0  0  0  0  0  0  0
    5.6896    5.9594   25.3787 C   0  0  2  0  0  0  0  0  0  0  0  0
    2.3193    2.7833   27.4977 C   0  0  2  0  0  0  0  0  0  0  0  0
    2.6122    4.0217   26.8220 O   0  0  0  0  0  0  0  0  0  0  0  0
   -2.0556   -1.5640   25.7072 C   0  0  2  0  0  0  0  0  0  0  0  0
   -1.9281   -1.6586   24.2875 O   0  0  0  0  0  0  0  0  0  0  0  0
    3.1404    6.1652   28.1045 C   0  0  2  0  0  0  0  0  0  0  0  0
    4.1532    7.1315   27.6917 O   0  0  0  0  0  0  0  0  0  0  0  0
    4.1908    5.7408   24.9595 C   0  0  2  0  0  0  0  0  0  0  0  0
    3.9450    4.3120   24.8910 O   0  0  0  0  0  0  0  0  0  0  0  0
    3.5658    2.2831   28.2492 C   0  0  0  0  0  0  0  0  0  0  0  0
    4.7147    2.3501   27.4227 O   0  0  0  0  0  0  0  0  0  0  0  0
   -2.6548   -0.1788   26.1032 C   0  0  1  0  0  0  0  0  0  0  0  0
   -1.6882    0.8757   25.8094 O   0  0  0  0  0  0  0  0  0  0  0  0
    1.7679    6.8296   27.8559 C   0  0  0  0  0  0  0  0  0  0  0  0
    0.7048    5.9307   28.1226 O   0  0  0  0  0  0  0  0  0  0  0  0
    3.8500    6.3647   23.5705 C   0  0  1  0  0  0  0  0  0  0  0  0
    2.4428    6.2667   23.3560 O   0  0  0  0  0  0  0  0  0  0  0  0
   -3.9820    0.1318   25.3648 C   0  0  0  0  0  0  0  0  0  0  0  0
   -4.6637    1.3206   25.9080 N   0  0  0  0  0  0  0  0  0  0  0  0
  1  2  1  6  0  0  0
  1  7  1  0  0  0  0
  1 30  1  0  0  0  0
  3  4  1  6  0  0  0
  3  9  1  0  0  0  0
  3 39  1  0  0  0  0
  5 10  1  0  0  0  0
  5 26  1  0  0  0  0
  5 32  1  1  0  0  0
  6 12  1  0  0  0  0
  6 36  1  0  0  0  0
  6 19  1  6  0  0  0
  7  8  1  6  0  0  0
  7 14  1  0  0  0  0
  9 16  1  0  0  0  0
 10 11  1  6  0  0  0
 10 18  1  0  0  0  0
 12 13  1  6  0  0  0
 12 20  1  0  0  0  0
 14 15  1  1  0  0  0
 14 22  1  0  0  0  0
 16 17  1  6  0  0  0
 16 24  1  0  0  0  0
 18 19  1  6  0  0  0
 18 25  1  0  0  0  0
 20 21  1  1  0  0  0
 20 27  1  0  0  0  0
 22 23  1  6  0  0  0
 22 29  1  0  0  0  0
 24  2  1  1  0  0  0
 24 31  1  0  0  0  0
 25 26  1  0  0  0  0
 25 33  1  6  0  0  0
 27 28  1  6  0  0  0
 27 35  1  0  0  0  0
 29 30  1  0  0  0  0
 29 37  1  1  0  0  0
 31 32  1  6  0  0  0
 31 39  1  0  0  0  0
 33 34  1  0  0  0  0
 35 36  1  0  0  0  0
 35 41  1  6  0  0  0
 37 38  1  0  0  0  0
 39 40  1  1  0  0  0
 41 42  1  0  0  0  0
M  END
>  <CHROM.1>
-174.79001335,37.22718688,84.08162489,-47.54409636,-176.41438196,-169.62663749
177.88474359,-23.52418132,131.57829434,-36.96392107,-53.22554633,177.99853712
71.56931713,-81.35770591,-63.79643395,139.19465358,178.44395035,174.14052347
170.00285337,-174.66533896,124.16090412,-172.03804397,2.43706724,3.72227151
26.40819460,-0.20318675,0.77827773,1.95144702

>  <Name>
1fyp_lig

>  <RI>
0

>  <Rbt.Current_Directory>
/home/itssahil/PROJECTS/Mol_Feturizer/New_Systems/rnas/1fyp

>  <Rbt.Executable>
rbdock ($Id: //depot/dev/client3/rdock/2013.1/src/exe/rbdock.cxx#4 $)

>  <Rbt.Library>
libRbt.so (2013.1, Build901 2013/11/27)

>  <Rbt.Parameter_File>
/export/apps/rDock/src/rDock_2013.1_src/data/scripts/dock_solv.prm

>  <Rbt.Receptor>
prm/blind_docking_80.prm

>  <SCORE>
-63.5999

>  <SCORE.INTER>
-57.9621

>  <SCORE.INTER.CONST>
1

>  <SCORE.INTER.POLAR>
-7.57669

>  <SCORE.INTER.ROT>
14

>  <SCORE.INTER.SOLV>
17.4482

>  <SCORE.INTER.VDW>
-32.1352

>  <SCORE.INTER.norm>
-1.38005

>  <SCORE.INTRA>
-5.63781

>  <SCORE.INTRA.DIHEDRAL>
-18.3197

>  <SCORE.INTRA.DIHEDRAL.0>
48.7173

>  <SCORE.INTRA.POLAR>
0.172953

>  <SCORE.INTRA.POLAR.0>
-1.54691

>  <SCORE.INTRA.REPUL>
0.0279503

>  <SCORE.INTRA.REPUL.0>
0

>  <SCORE.INTRA.SOLV>
1.53284

>  <SCORE.INTRA.SOLV.lig_0>
-64.052

>  <SCORE.INTRA.VDW>
2.02784

>  <SCORE.INTRA.VDW.0>
-7.0667

>  <SCORE.INTRA.norm>
-0.134234

>  <SCORE.RESTR>
0

>  <SCORE.RESTR.CAVITY>
0

>  <SCORE.RESTR.norm>
0

>  <SCORE.SYSTEM>
0

>  <SCORE.SYSTEM.CONST>
0

>  <SCORE.SYSTEM.DIHEDRAL>
0

>  <SCORE.SYSTEM.SOLV>
0

>  <SCORE.SYSTEM.norm>
0

>  <SCORE.heavy>
42

>  <SCORE.norm>
-1.51428

>  <RMSD>
3.212

$$$$
1fyp_lig
 OpenBabel11021811393D
libRbt.so/2013.1/901 2013/11/27
 42 45  0  0  0  0  0  0  0  0999 V2000
    5.3274    6.4854   27.7715 C   0  0  2  0  0  0  0  0  0  0  0  0
    5.5577    5.4185   26.8066 O   0  0  0  0  0  0  0  0  0  0  0  0
    3.9171    7.5601   23.4956 C   0  0  2  0  0  0  0  0  0  0  0  0
    3.5818    8.1185   22.1727 N   0  0  0  0  0  0  0  0  0  0  0  0
    2.3121    3.5166   25.1545 C   0  0  1  0  0  0  0  0  0  0  0  0
   -0.9811    0.5976   25.8995 C   0  0  1  0  0  0  0  0  0  0  0  0
    5.7168    6.0424   29.2186 C   0  0  2  0  0  0  0  0  0  0  0  0
    7.0775    5.4655   29.2549 N   0  0  0  0  0  0  0  0  0  0  0  0
    5.4284    7.7229   23.7530 C   0  0  0  0  0  0  0  0  0  0  0  0
    2.3438    1.9861   25.1390 C   0  0  2  0  0  0  0  0  0  0  0  0
    2.0069    1.5151   23.8335 O   0  0  0  0  0  0  0  0  0  0  0  0
   -2.2202    0.5727   24.9533 C   0  0  2  0  0  0  0  0  0  0  0  0
   -2.8288    1.9133   24.7732 N   0  0  0  0  0  0  0  0  0  0  0  0
    4.6808    5.0219   29.7855 C   0  0  1  0  0  0  0  0  0  0  0  0
    4.9587    4.7495   31.1568 O   0  0  0  0  0  0  0  0  0  0  0  0
    5.8495    7.1787   25.1455 C   0  0  2  0  0  0  0  0  0  0  0  0
    7.3174    7.3084   25.2558 N   0  0  0  0  0  0  0  0  0  0  0  0
    1.2512    1.6395   26.1542 C   0  0  2  0  0  0  0  0  0  0  0  0
   -0.0739    1.6769   25.5549 O   0  0  0  0  0  0  0  0  0  0  0  0
   -3.2738   -0.4672   25.4448 C   0  0  1  0  0  0  0  0  0  0  0  0
   -2.7808   -1.7768   25.1700 O   0  0  0  0  0  0  0  0  0  0  0  0
    3.2292    5.5516   29.6728 C   0  0  2  0  0  0  0  0  0  0  0  0
    2.3296    4.5411   30.1183 O   0  0  0  0  0  0  0  0  0  0  0  0
    5.3844    5.6978   25.3877 C   0  0  2  0  0  0  0  0  0  0  0  0
    1.4070    2.7615   27.1902 C   0  0  2  0  0  0  0  0  0  0  0  0
    1.8581    3.9171   26.4573 O   0  0  0  0  0  0  0  0  0  0  0  0
   -3.5951   -0.3766   26.9675 C   0  0  2  0  0  0  0  0  0  0  0  0
   -4.3869    0.7901   27.1960 O   0  0  0  0  0  0  0  0  0  0  0  0
    2.9143    5.9564   28.2048 C   0  0  2  0  0  0  0  0  0  0  0  0
    3.9219    6.9062   27.7439 O   0  0  0  0  0  0  0  0  0  0  0  0
    3.8835    5.4552   24.9894 C   0  0  2  0  0  0  0  0  0  0  0  0
    3.6585    4.0227   24.9285 O   0  0  0  0  0  0  0  0  0  0  0  0
    2.4102    2.4175   28.3054 C   0  0  0  0  0  0  0  0  0  0  0  0
    1.7802    1.6885   29.3443 O   0  0  0  0  0  0  0  0  0  0  0  0
   -2.2820   -0.3097   27.8077 C   0  0  1  0  0  0  0  0  0  0  0  0
   -1.4228    0.7521   27.2911 O   0  0  0  0  0  0  0  0  0  0  0  0
    1.5411    6.6340   27.9991 C   0  0  0  0  0  0  0  0  0  0  0  0
    1.2031    6.7058   26.6243 O   0  0  0  0  0  0  0  0  0  0  0  0
    3.5146    6.0695   23.6034 C   0  0  1  0  0  0  0  0  0  0  0  0
    2.1064    5.9497   23.4081 O   0  0  0  0  0  0  0  0  0  0  0  0
   -2.5480   -0.0570   29.3138 C   0  0  0  0  0  0  0  0  0  0  0  0
   -3.3321   -1.1389   29.9365 N   0  0  0  0  0  0  0  0  0  0  0  0
  1  2  1  6  0  0  0
  1  7  1  0  0  0  0
  1 30  1  0  0  0  0
  3  4  1  6  0  0  0
  3  9  1  0  0  0  0
  3 39  1  0  0  0  0
  5 10  1  0  0  0  0
  5 26  1  0  0  0  0
  5 32  1  1  0  0  0
  6 12  1  0  0  0  0
  6 36  1  0  0  0  0
  6 19  1  6  0  0  0
  7  8  1  6  0  0  0
  7 14  1  0  0  0  0
  9 16  1  0  0  0  0
 10 11  1  6  0  0  0
 10 18  1  0  0  0  0
 12 13  1  1  0  0  0
 12 20  1  0  0  0  0
 14 15  1  1  0  0  0
 14 22  1  0  0  0  0
 16 17  1  6  0  0  0
 16 24  1  0  0  0  0
 18 19  1  6  0  0  0
 18 25  1  0  0  0  0
 20 21  1  1  0  0  0
 20 27  1  0  0  0  0
 22 23  1  6  0  0  0
 22 29  1  0  0  0  0
 24  2  1  1  0  0  0
 24 31  1  0  0  0  0
 25 26  1  0  0  0  0
 25 33  1  1  0  0  0
 27 28  1  6  0  0  0
 27 35  1  0  0  0  0
 29 30  1  0  0  0  0
 29 37  1  1  0  0  0
 31 32  1  6  0  0  0
 31 39  1  0  0  0  0
 33 34  1  0  0  0  0
 35 36  1  0  0  0  0
 35 41  1  1  0  0  0
 37 38  1  0  0  0  0
 39 40  1  1  0  0  0
 41 42  1  0  0  0  0
M  END
>  <CHROM.1>
-173.58732443,34.84746820,73.92749349,68.40826244,64.86494146,65.64799188
-68.42012184,94.16764931,136.81879322,-166.78627068,58.93201582,170.02115569
-85.59617234,-46.88166691,-167.18490672,153.79742823,-176.01752279,58.92270649
62.09587158,64.36446376,75.53848324,154.41333364,1.85022945,3.70032261,26.64162956
-0.22293483,0.68589126,1.83105461

>  <Name>
1fyp_lig

>  <RI>
0

>  <Rbt.Current_Directory>
/home/itssahil/PROJECTS/Mol_Feturizer/New_Systems/rnas/1fyp

>  <Rbt.Executable>
rbdock ($Id: //depot/dev/client3/rdock/2013.1/src/exe/rbdock.cxx#4 $)

>  <Rbt.Library>
libRbt.so (2013.1, Build901 2013/11/27)

>  <Rbt.Parameter_File>
/export/apps/rDock/src/rDock_2013.1_src/data/scripts/dock_solv.prm

>  <Rbt.Receptor>
prm/pocket_docking_7.prm

>  <SCORE>
-55.12

>  <SCORE.INTER>
-41.5397

>  <SCORE.INTER.CONST>
1

>  <SCORE.INTER.POLAR>
-4.84969

>  <SCORE.INTER.ROT>
14

>  <SCORE.INTER.SOLV>
17.9209

>  <SCORE.INTER.VDW>
-30.4345

>  <SCORE.INTER.norm>
-0.98904

>  <SCORE.INTRA>
-13.5803

>  <SCORE.INTRA.DIHEDRAL>
-27.6723

>  <SCORE.INTRA.DIHEDRAL.0>
48.7173

>  <SCORE.INTRA.POLAR>
0.0201008

>  <SCORE.INTRA.POLAR.0>
-1.54691

>  <SCORE.INTRA.REPUL>
0

>  <SCORE.INTRA.REPUL.0>
0

>  <SCORE.INTRA.SOLV>
-0.695628

>  <SCORE.INTRA.SOLV.lig_0>
-64.052

>  <SCORE.INTRA.VDW>
0.535278

>  <SCORE.INTRA.VDW.0>
-7.0667

>  <SCORE.INTRA.norm>
-0.323341

>  <SCORE.RESTR>
0

>  <SCORE.RESTR.CAVITY>
0

>  <SCORE.RESTR.norm>
0

>  <SCORE.SYSTEM>
0

>  <SCORE.SYSTEM.CONST>
0

>  <SCORE.SYSTEM.DIHEDRAL>
0

>  <SCORE.SYSTEM.SOLV>
0

>  <SCORE.SYSTEM.norm>
0

>  <SCORE.heavy>
42

>  <SCORE.norm>
-1.31238

>  <RMSD>
3.220

$$$$
1fyp_lig
 OpenBabel11021811393D
libRbt.so/2013.1/901 2013/11/27
 42 45  0  0  0  0  0  0  0  0999 V2000
    5.6834    8.1579   25.8513 C   0  0  2  0  0  0  0  0  0  0  0  0
    4.9303    7.1010   25.1893 O   0  0  0  0  0  0  0  0  0  0  0  0
    1.8491    7.0918   28.1469 C   0  0  2  0  0  0  0  0  0  0  0  0
    0.6011    6.9407   28.9177 N   0  0  0  0  0  0  0  0  0  0  0  0
    3.2440    3.6004   26.1049 C   0  0  1  0  0  0  0  0  0  0  0  0
    0.8294    0.1371   25.1598 C   0  0  1  0  0  0  0  0  0  0  0  0
    6.9507    8.5585   25.0295 C   0  0  2  0  0  0  0  0  0  0  0  0
    6.6084    8.8401   23.6191 N   0  0  0  0  0  0  0  0  0  0  0  0
    1.5522    7.8387   26.8312 C   0  0  0  0  0  0  0  0  0  0  0  0
    3.9307    2.2804   25.7445 C   0  0  2  0  0  0  0  0  0  0  0  0
    4.2457    2.2711   24.3516 O   0  0  0  0  0  0  0  0  0  0  0  0
    0.0666   -0.1179   23.8240 C   0  0  2  0  0  0  0  0  0  0  0  0
   -0.3152    1.1389   23.1350 N   0  0  0  0  0  0  0  0  0  0  0  0
    8.0409    7.4444   25.1101 C   0  0  1  0  0  0  0  0  0  0  0  0
    9.2455    7.8897   24.4918 O   0  0  0  0  0  0  0  0  0  0  0  0
    2.8315    8.0580   25.9782 C   0  0  2  0  0  0  0  0  0  0  0  0
    2.4252    8.7044   24.7130 N   0  0  0  0  0  0  0  0  0  0  0  0
    2.8392    1.2587   26.0746 C   0  0  2  0  0  0  0  0  0  0  0  0
    1.8799    1.1240   24.9891 O   0  0  0  0  0  0  0  0  0  0  0  0
   -1.1729   -1.0354   24.0584 C   0  0  1  0  0  0  0  0  0  0  0  0
   -0.7149   -2.3661   24.2891 O   0  0  0  0  0  0  0  0  0  0  0  0
    8.3554    7.0509   26.5752 C   0  0  2  0  0  0  0  0  0  0  0  0
    9.2838    5.9707   26.5775 O   0  0  0  0  0  0  0  0  0  0  0  0
    3.6240    6.7274   25.7142 C   0  0  2  0  0  0  0  0  0  0  0  0
    2.1740    1.8854   27.3080 C   0  0  2  0  0  0  0  0  0  0  0  0
    2.2875    3.3115   27.1371 O   0  0  0  0  0  0  0  0  0  0  0  0
   -2.0610   -0.6089   25.2664 C   0  0  2  0  0  0  0  0  0  0  0  0
   -2.7854    0.5679   24.9044 O   0  0  0  0  0  0  0  0  0  0  0  0
    7.0497    6.6521   27.3197 C   0  0  2  0  0  0  0  0  0  0  0  0
    6.0804    7.7365   27.1995 O   0  0  0  0  0  0  0  0  0  0  0  0
    3.8133    5.8606   27.0114 C   0  0  2  0  0  0  0  0  0  0  0  0
    4.2414    4.5335   26.6091 O   0  0  0  0  0  0  0  0  0  0  0  0
    2.8328    1.4570   28.6313 C   0  0  0  0  0  0  0  0  0  0  0  0
    2.7294    0.0561   28.8167 O   0  0  0  0  0  0  0  0  0  0  0  0
   -1.1855   -0.3358   26.5286 C   0  0  1  0  0  0  0  0  0  0  0  0
   -0.1123    0.5946   26.1891 O   0  0  0  0  0  0  0  0  0  0  0  0
    7.2221    6.3785   28.8305 C   0  0  0  0  0  0  0  0  0  0  0  0
    6.7683    5.0802   29.1737 O   0  0  0  0  0  0  0  0  0  0  0  0
    2.5029    5.7214   27.8470 C   0  0  1  0  0  0  0  0  0  0  0  0
    2.8107    5.0702   29.0787 O   0  0  0  0  0  0  0  0  0  0  0  0
   -2.0039    0.2457   27.7097 C   0  0  0  0  0  0  0  0  0  0  0  0
   -2.3356   -0.7742   28.7211 N   0  0  0  0  0  0  0  0  0  0  0  0
  1  2  1  6  0  0  0
  1  7  1  0  0  0  0
  1 30  1  0  0  0  0
  3  4  1  6  0  0  0
  3  9  1  0  0  0  0
  3 39  1  0  0  0  0
  5 10  1  0  0  0  0
  5 26  1  0  0  0  0
  5 32  1  1  0  0  0
  6 12  1  0  0  0  0
  6 36  1  0  0  0  0
  6 19  1  6  0  0  0
  7  8  1  6  0  0  0
  7 14  1  0  0  0  0
  9 16  1  0  0  0  0
 10 11  1  6  0  0  0
 10 18  1  0  0  0  0
 12 13  1  1  0  0  0
 12 20  1  0  0  0  0
 14 15  1  1  0  0  0
 14 22  1  0  0  0  0
 16 17  1  6  0  0  0
 16 24  1  0  0  0  0
 18 19  1  6  0  0  0
 18 25  1  0  0  0  0
 20 21  1  1  0  0  0
 20 27  1  0  0  0  0
 22 23  1  6  0  0  0
 22 29  1  0  0  0  0
 24  2  1  1  0  0  0
 24 31  1  0  0  0  0
 25 26  1  0  0  0  0
 25 33  1  1  0  0  0
 27 28  1  6  0  0  0
 27 35  1  0  0  0  0
 29 30  1  0  0  0  0
 29 37  1  1  0  0  0
 31 32  1  6  0  0  0
 31 39  1  0  0  0  0
 33 34  1  0  0  0  0
 35 36  1  0  0  0  0
 35 41  1  1  0  0  0
 37 38  1  0  0  0  0
 39 40  1  1  0  0  0
 41 42  1  0  0  0  0
M  END
>  <CHROM.1>
-171.64719076,46.58706228,79.36243684,-166.65022592,-82.76394716,173.50896361
65.23224410,-154.40731891,177.26519740,-167.88978992,72.90180967,174.34079422
-61.77026254,-81.40370594,-123.53419595,-78.64602796,179.83024947,-57.26432004
100.83159696,63.73751285,63.68148270,66.89819789,3.02793827,3.97400993,26.30897709
0.76747733,0.27935307,0.32509049

>  <Name>
1fyp_lig

>  <RI>
0

>  <Rbt.Current_Directory>
/home/itssahil/PROJECTS/Mol_Feturizer/New_Systems/rnas/1fyp

>  <Rbt.Executable>
rbdock ($Id: //depot/dev/client3/rdock/2013.1/src/exe/rbdock.cxx#4 $)

>  <Rbt.Library>
libRbt.so (2013.1, Build901 2013/11/27)

>  <Rbt.Parameter_File>
/export/apps/rDock/src/rDock_2013.1_src/data/scripts/dock_solv.prm

>  <Rbt.Receptor>
prm/pocket_docking_7.prm

>  <SCORE>
-52.9371

>  <SCORE.INTER>
-49.0329

>  <SCORE.INTER.CONST>
1

>  <SCORE.INTER.POLAR>
-6.60181

>  <SCORE.INTER.ROT>
14

>  <SCORE.INTER.SOLV>
23.1997

>  <SCORE.INTER.VDW>
-31.3491

>  <SCORE.INTER.norm>
-1.16745

>  <SCORE.INTRA>
-3.90416

>  <SCORE.INTRA.DIHEDRAL>
-28.1258

>  <SCORE.INTRA.DIHEDRAL.0>
48.7173

>  <SCORE.INTRA.POLAR>
1.13851

>  <SCORE.INTRA.POLAR.0>
-1.54691

>  <SCORE.INTRA.REPUL>
0.164832

>  <SCORE.INTRA.REPUL.0>
0

>  <SCORE.INTRA.SOLV>
-2.26569

>  <SCORE.INTRA.SOLV.lig_0>
-64.052

>  <SCORE.INTRA.VDW>
6.5965

>  <SCORE.INTRA.VDW.0>
-7.0667

>  <SCORE.INTRA.norm>
-0.0929562

>  <SCORE.RESTR>
0

>  <SCORE.RESTR.CAVITY>
0

>  <SCORE.RESTR.norm>
0

>  <SCORE.SYSTEM>
0

>  <SCORE.SYSTEM.CONST>
0

>  <SCORE.SYSTEM.DIHEDRAL>
0

>  <SCORE.SYSTEM.SOLV>
0

>  <SCORE.SYSTEM.norm>
0

>  <SCORE.heavy>
42

>  <SCORE.norm>
-1.26041

>  <RMSD>
3.288

$$$$
1fyp_lig
 OpenBabel11021811393D
libRbt.so/2013.1/901 2013/11/27
 42 45  0  0  0  0  0  0  0  0999 V2000
    3.1493    4.7377   29.0805 C   0  0  2  0  0  0  0  0  0  0  0  0
    3.3144    5.9579   28.3017 O   0  0  0  0  0  0  0  0  0  0  0  0
    3.3554    6.7234   24.1002 C   0  0  2  0  0  0  0  0  0  0  0  0
    3.6888    6.8608   22.6703 N   0  0  0  0  0  0  0  0  0  0  0  0
    1.8451    2.8089   26.1546 C   0  0  1  0  0  0  0  0  0  0  0  0
   -1.1621   -0.4338   26.5592 C   0  0  1  0  0  0  0  0  0  0  0  0
    3.3918    4.9932   30.6030 C   0  0  2  0  0  0  0  0  0  0  0  0
    2.5973    6.1422   31.0871 N   0  0  0  0  0  0  0  0  0  0  0  0
    4.4354    7.4241   24.9483 C   0  0  0  0  0  0  0  0  0  0  0  0
    2.0901    1.4566   26.8291 C   0  0  2  0  0  0  0  0  0  0  0  0
    2.6094    0.5329   25.8717 O   0  0  0  0  0  0  0  0  0  0  0  0
   -2.1563   -0.6452   25.3768 C   0  0  2  0  0  0  0  0  0  0  0  0
   -2.5422    0.6276   24.7200 N   0  0  0  0  0  0  0  0  0  0  0  0
    4.9080    5.2223   30.8939 C   0  0  1  0  0  0  0  0  0  0  0  0
    5.1335    5.2951   32.2994 O   0  0  0  0  0  0  0  0  0  0  0  0
    4.1329    7.3422   26.4696 C   0  0  2  0  0  0  0  0  0  0  0  0
    5.2619    7.9683   27.1887 N   0  0  0  0  0  0  0  0  0  0  0  0
    0.6769    1.0652   27.2697 C   0  0  2  0  0  0  0  0  0  0  0  0
   -0.0767    0.4543   26.1855 O   0  0  0  0  0  0  0  0  0  0  0  0
   -3.4109   -1.4466   25.8422 C   0  0  1  0  0  0  0  0  0  0  0  0
   -3.0330   -2.8078   26.0370 O   0  0  0  0  0  0  0  0  0  0  0  0
    5.7846    4.0847   30.3126 C   0  0  2  0  0  0  0  0  0  0  0  0
    7.1570    4.3985   30.5287 O   0  0  0  0  0  0  0  0  0  0  0  0
    3.8826    5.8719   26.9634 C   0  0  2  0  0  0  0  0  0  0  0  0
    0.0707    2.4233   27.6500 C   0  0  2  0  0  0  0  0  0  0  0  0
    0.6904    3.3907   26.7806 O   0  0  0  0  0  0  0  0  0  0  0  0
   -4.0458   -0.9225   27.1659 C   0  0  2  0  0  0  0  0  0  0  0  0
   -4.7202    0.3064   26.8908 O   0  0  0  0  0  0  0  0  0  0  0  0
    5.4970    3.9026   28.7952 C   0  0  2  0  0  0  0  0  0  0  0  0
    4.0654    3.6965   28.6012 O   0  0  0  0  0  0  0  0  0  0  0  0
    2.9009    5.0727   26.0319 C   0  0  2  0  0  0  0  0  0  0  0  0
    3.0027    3.6651   26.3708 O   0  0  0  0  0  0  0  0  0  0  0  0
    0.3147    2.8016   29.1217 C   0  0  0  0  0  0  0  0  0  0  0  0
   -0.0813    1.7508   29.9857 O   0  0  0  0  0  0  0  0  0  0  0  0
   -2.9516   -0.7042   28.2566 C   0  0  1  0  0  0  0  0  0  0  0  0
   -1.8769    0.1226   27.7146 O   0  0  0  0  0  0  0  0  0  0  0  0
    6.2100    2.6988   28.1398 C   0  0  0  0  0  0  0  0  0  0  0  0
    5.6554    1.4704   28.5790 O   0  0  0  0  0  0  0  0  0  0  0  0
    3.2306    5.2377   24.5158 C   0  0  1  0  0  0  0  0  0  0  0  0
    2.1946    4.6232   23.7511 O   0  0  0  0  0  0  0  0  0  0  0  0
   -3.5096   -0.0323   29.5374 C   0  0  0  0  0  0  0  0  0  0  0  0
   -2.4551    0.2595   30.5253 N   0  0  0  0  0  0  0  0  0  0  0  0
  1  2  1  6  0  0  0
  1  7  1  0  0  0  0
  1 30  1  0  0  0  0
  3  4  1  6  0  0  0
  3  9  1  0  0  0  0
  3 39  1  0  0  0  0
  5 10  1  0  0  0  0
  5 26  1  0  0  0  0
  5 32  1  1  0  0  0
  6 12  1  0  0  0  0
  6 36  1  0  0  0  0
  6 19  1  6  0  0  0
  7  8  1  6  0  0  0
  7 14  1  0  0  0  0
  9 16  1  0  0  0  0
 10 11  1  6  0  0  0
 10 18  1  0  0  0  0
 12 13  1  1  0  0  0
 12 20  1  0  0  0  0
 14 15  1  1  0  0  0
 14 22  1  0  0  0  0
 16 17  1  1  0  0  0
 16 24  1  0  0  0  0
 18 19  1  6  0  0  0
 18 25  1  0  0  0  0
 20 21  1  1  0  0  0
 20 27  1  0  0  0  0
 22 23  1  6  0  0  0
 22 29  1  0  0  0  0
 24  2  1  1  0  0  0
 24 31  1  0  0  0  0
 25 26  1  0  0  0  0
 25 33  1  1  0  0  0
 27 28  1  6  0  0  0
 27 35  1  0  0  0  0
 29 30  1  0  0  0  0
 29 37  1  1  0  0  0
 31 32  1  1  0  0  0
 31 39  1  0  0  0  0
 33 34  1  0  0  0  0
 35 36  1  0  0  0  0
 35 41  1  1  0  0  0
 37 38  1  0  0  0  0
 39 40  1  6  0  0  0
 41 42  1  0  0  0  0
M  END
>  <CHROM.1>
145.02056632,-171.69647934,51.42680823,87.69687090,-61.16522617,51.09350456
64.07006906,168.87710498,155.38295316,161.47891969,178.91536826,-62.05253214
-51.56890517,178.34237426,70.59051700,151.73805585,-169.00658360,-171.42492137
-175.88831502,-131.60184304,-56.23221506,87.26087077,1.64898857,2.94178429
27.51336229,-0.09000666,0.68157093,1.88387450

>  <Name>
1fyp_lig

>  <RI>
0

>  <Rbt.Current_Directory>
/home/itssahil/PROJECTS/Mol_Feturizer/New_Systems/rnas/1fyp

>  <Rbt.Executable>
rbdock ($Id: //depot/dev/client3/rdock/2013.1/src/exe/rbdock.cxx#4 $)

>  <Rbt.Library>
libRbt.so (2013.1, Build901 2013/11/27)

>  <Rbt.Parameter_File>
/export/apps/rDock/src/rDock_2013.1_src/data/scripts/dock_solv.prm

>  <Rbt.Receptor>
prm/pocket_docking_8.prm

>  <SCORE>
-52.3214

>  <SCORE.INTER>
-45.9209

>  <SCORE.INTER.CONST>
1

>  <SCORE.INTER.POLAR>
-6.11853

>  <SCORE.INTER.ROT>
14

>  <SCORE.INTER.SOLV>
20.3236

>  <SCORE.INTER.VDW>
-29.9267

>  <SCORE.INTER.norm>
-1.09335

>  <SCORE.INTRA>
-6.40059

>  <SCORE.INTRA.DIHEDRAL>
-24.7839

>  <SCORE.INTRA.DIHEDRAL.0>
48.7173

>  <SCORE.INTRA.POLAR>
0.786154

>  <SCORE.INTRA.POLAR.0>
-1.54691

>  <SCORE.INTRA.REPUL>
0.355956

>  <SCORE.INTRA.REPUL.0>
0

>  <SCORE.INTRA.SOLV>
-0.987652

>  <SCORE.INTRA.SOLV.lig_0>
-64.052

>  <SCORE.INTRA.VDW>
2.03246

>  <SCORE.INTRA.VDW.0>
-7.0667

>  <SCORE.INTRA.norm>
-0.152395

>  <SCORE.RESTR>
0

>  <SCORE.RESTR.CAVITY>
0

>  <SCORE.RESTR.norm>
0

>  <SCORE.SYSTEM>
0

>  <SCORE.SYSTEM.CONST>
0

>  <SCORE.SYSTEM.DIHEDRAL>
0

>  <SCORE.SYSTEM.SOLV>
0

>  <SCORE.SYSTEM.norm>
0

>  <SCORE.heavy>
42

>  <SCORE.norm>
-1.24575

>  <RMSD>
3.297

$$$$
1fyp_lig
 OpenBabel11021811393D
libRbt.so/2013.1/901 2013/11/27
 42 45  0  0  0  0  0  0  0  0999 V2000
    5.7275    7.0613   27.5075 C   0  0  2  0  0  0  0  0  0  0  0  0
    6.1022    6.0558   26.5221 O   0  0  0  0  0  0  0  0  0  0  0  0
    3.9736    7.9714   23.3535 C   0  0  2  0  0  0  0  0  0  0  0  0
    3.4596    8.4595   22.0604 N   0  0  0  0  0  0  0  0  0  0  0  0
    2.7651    3.9061   24.8246 C   0  0  1  0  0  0  0  0  0  0  0  0
   -0.6972    1.1618   25.1112 C   0  0  1  0  0  0  0  0  0  0  0  0
    6.3908    6.7790   28.8940 C   0  0  2  0  0  0  0  0  0  0  0  0
    7.8475    6.5660   28.7582 N   0  0  0  0  0  0  0  0  0  0  0  0
    5.4907    8.2339   23.4344 C   0  0  0  0  0  0  0  0  0  0  0  0
    2.8754    2.3792   24.8379 C   0  0  2  0  0  0  0  0  0  0  0  0
    2.8768    1.8892   23.4964 O   0  0  0  0  0  0  0  0  0  0  0  0
   -0.2877   -0.3065   25.4392 C   0  0  2  0  0  0  0  0  0  0  0  0
    0.5692   -0.9089   24.3889 N   0  0  0  0  0  0  0  0  0  0  0  0
    5.7262    5.5492   29.5884 C   0  0  1  0  0  0  0  0  0  0  0  0
    6.2298    5.4013   30.9136 O   0  0  0  0  0  0  0  0  0  0  0  0
    6.0965    7.7678   24.7865 C   0  0  2  0  0  0  0  0  0  0  0  0
    7.5563    7.9891   24.7273 N   0  0  0  0  0  0  0  0  0  0  0  0
    1.5945    1.9786   25.5748 C   0  0  2  0  0  0  0  0  0  0  0  0
    0.4459    1.9468   24.6825 O   0  0  0  0  0  0  0  0  0  0  0  0
   -1.5459   -1.1852   25.7179 C   0  0  1  0  0  0  0  0  0  0  0  0
   -2.0731   -0.8304   26.9946 O   0  0  0  0  0  0  0  0  0  0  0  0
    4.1851    5.6912   29.6599 C   0  0  2  0  0  0  0  0  0  0  0  0
    3.6339    4.5016   30.2166 O   0  0  0  0  0  0  0  0  0  0  0  0
    5.7561    6.2716   25.1239 C   0  0  2  0  0  0  0  0  0  0  0  0
    1.4479    3.1089   26.6031 C   0  0  2  0  0  0  0  0  0  0  0  0
    1.9999    4.2849   25.9799 O   0  0  0  0  0  0  0  0  0  0  0  0
   -2.6802   -1.0262   24.6605 C   0  0  2  0  0  0  0  0  0  0  0  0
   -2.2757   -1.6831   23.4583 O   0  0  0  0  0  0  0  0  0  0  0  0
    3.6004    5.9546   28.2433 C   0  0  2  0  0  0  0  0  0  0  0  0
    4.2688    7.1124   27.6578 O   0  0  0  0  0  0  0  0  0  0  0  0
    4.2389    5.9250   24.9042 C   0  0  2  0  0  0  0  0  0  0  0  0
    4.1002    4.4803   24.9121 O   0  0  0  0  0  0  0  0  0  0  0  0
    2.1785    2.8189   27.9262 C   0  0  0  0  0  0  0  0  0  0  0  0
    3.5833    2.8803   27.7515 O   0  0  0  0  0  0  0  0  0  0  0  0
   -2.9686    0.4813   24.3800 C   0  0  1  0  0  0  0  0  0  0  0  0
   -1.7204    1.1679   24.0584 O   0  0  0  0  0  0  0  0  0  0  0  0
    2.0855    6.2563   28.2125 C   0  0  0  0  0  0  0  0  0  0  0  0
    1.7342    7.2285   29.1825 O   0  0  0  0  0  0  0  0  0  0  0  0
    3.6812    6.4644   23.5506 C   0  0  1  0  0  0  0  0  0  0  0  0
    2.2704    6.2533   23.5185 O   0  0  0  0  0  0  0  0  0  0  0  0
   -3.9749    0.6919   23.2198 C   0  0  0  0  0  0  0  0  0  0  0  0
   -3.5293    0.0580   21.9658 N   0  0  0  0  0  0  0  0  0  0  0  0
  1  2  1  6  0  0  0
  1  7  1  0  0  0  0
  1 30  1  0  0  0  0
  3  4  1  6  0  0  0
  3  9  1  0  0  0  0
  3 39  1  0  0  0  0
  5 10  1  0  0  0  0
  5 26  1  0  0  0  0
  5 32  1  1  0  0  0
  6 12  1  0  0  0  0
  6 36  1  0  0  0  0
  6 19  1  6  0  0  0
  7  8  1  6  0  0  0
  7 14  1  0  0  0  0
  9 16  1  0  0  0  0
 10 11  1  6  0  0  0
 10 18  1  0  0  0  0
 12 13  1  6  0  0  0
 12 20  1  0  0  0  0
 14 15  1  1  0  0  0
 14 22  1  0  0  0  0
 16 17  1  6  0  0  0
 16 24  1  0  0  0  0
 18 19  1  6  0  0  0
 18 25  1  0  0  0  0
 20 21  1  1  0  0  0
 20 27  1  0  0  0  0
 22 23  1  6  0  0  0
 22 29  1  0  0  0  0
 24  2  1  1  0  0  0
 24 31  1  0  0  0  0
 25 26  1  0  0  0  0
 25 33  1  1  0  0  0
 27 28  1  6  0  0  0
 27 35  1  0  0  0  0
 29 30  1  0  0  0  0
 29 37  1  1  0  0  0
 31 32  1  6  0  0  0
 31 39  1  0  0  0  0
 33 34  1  0  0  0  0
 35 36  1  0  0  0  0
 35 41  1  6  0  0  0
 37 38  1  0  0  0  0
 39 40  1  1  0  0  0
 41 42  1  0  0  0  0
M  END
>  <CHROM.1>
-170.20097165,44.05326245,-176.81023080,168.67402306,-71.44851174,-53.22044326
-165.50552503,67.65759283,159.30090166,-54.62828394,176.30831282,-60.17214972
70.63508517,67.08199515,47.93193666,175.53787342,179.47542646,-68.54178918
-56.88430013,-91.61069151,79.98835694,-57.42747731,2.43551495,3.94822218
25.88378804,0.00485805,0.79339212,1.93478603

>  <Name>
1fyp_lig

>  <RI>
0

>  <Rbt.Current_Directory>
/home/itssahil/PROJECTS/Mol_Feturizer/New_Systems/rnas/1fyp

>  <Rbt.Executable>
rbdock ($Id: //depot/dev/client3/rdock/2013.1/src/exe/rbdock.cxx#4 $)

>  <Rbt.Library>
libRbt.so (2013.1, Build901 2013/11/27)

>  <Rbt.Parameter_File>
/export/apps/rDock/src/rDock_2013.1_src/data/scripts/dock_solv.prm

>  <Rbt.Receptor>
prm/blind_docking_60.prm

>  <SCORE>
-56.7976

>  <SCORE.INTER>
-43.1426

>  <SCORE.INTER.CONST>
1

>  <SCORE.INTER.POLAR>
-5.80714

>  <SCORE.INTER.ROT>
14

>  <SCORE.INTER.SOLV>
18.238

>  <SCORE.INTER.VDW>
-28.4173

>  <SCORE.INTER.norm>
-1.0272

>  <SCORE.INTRA>
-14.0867

>  <SCORE.INTRA.DIHEDRAL>
-35.0323

>  <SCORE.INTRA.DIHEDRAL.0>
48.7173

>  <SCORE.INTRA.POLAR>
0.337872

>  <SCORE.INTRA.POLAR.0>
-1.54691

>  <SCORE.INTRA.REPUL>
0.0270992

>  <SCORE.INTRA.REPUL.0>
0

>  <SCORE.INTRA.SOLV>
1.65672

>  <SCORE.INTRA.SOLV.lig_0>
-64.052

>  <SCORE.INTRA.VDW>
1.31685

>  <SCORE.INTRA.VDW.0>
-7.0667

>  <SCORE.INTRA.norm>
-0.335397

>  <SCORE.RESTR>
0.431731

>  <SCORE.RESTR.CAVITY>
0.431731

>  <SCORE.RESTR.norm>
0.0102793

>  <SCORE.SYSTEM>
0

>  <SCORE.SYSTEM.CONST>
0

>  <SCORE.SYSTEM.DIHEDRAL>
0

>  <SCORE.SYSTEM.SOLV>
0

>  <SCORE.SYSTEM.norm>
0

>  <SCORE.heavy>
42

>  <SCORE.norm>
-1.35232

>  <RMSD>
3.321

$$$$
1fyp_lig
 OpenBabel11021811393D
libRbt.so/2013.1/901 2013/11/27
 42 45  0  0  0  0  0  0  0  0999 V2000
    5.7188    5.7697   28.1376 C   0  0  2  0  0  0  0  0  0  0  0  0
    5.7889    4.7733   27.0772 O   0  0  0  0  0  0  0  0  0  0  0  0
    4.4136    7.3482   23.9596 C   0  0  2  0  0  0  0  0  0  0  0  0
    4.1641    8.0602   22.6926 N   0  0  0  0  0  0  0  0  0  0  0  0
    2.6314    3.1800   25.5520 C   0  0  1  0  0  0  0  0  0  0  0  0
   -0.5082    0.2677   26.8101 C   0  0  1  0  0  0  0  0  0  0  0  0
    5.6058    5.1006   29.5453 C   0  0  2  0  0  0  0  0  0  0  0  0
    6.6521    4.0738   29.7365 N   0  0  0  0  0  0  0  0  0  0  0  0
    5.9218    7.3805   24.2778 C   0  0  0  0  0  0  0  0  0  0  0  0
    2.5086    1.7019   25.1729 C   0  0  2  0  0  0  0  0  0  0  0  0
    1.7228    1.5771   23.9869 O   0  0  0  0  0  0  0  0  0  0  0  0
   -0.2251   -1.0839   26.0861 C   0  0  2  0  0  0  0  0  0  0  0  0
   -0.1665   -0.9407   24.6109 N   0  0  0  0  0  0  0  0  0  0  0  0
    4.1903    4.4763   29.7523 C   0  0  1  0  0  0  0  0  0  0  0  0
    4.0489    4.0120   31.0925 O   0  0  0  0  0  0  0  0  0  0  0  0
    6.2551    6.6698   25.6180 C   0  0  2  0  0  0  0  0  0  0  0  0
    7.7232    6.6871   25.7852 N   0  0  0  0  0  0  0  0  0  0  0  0
    1.7763    1.1262   26.3881 C   0  0  2  0  0  0  0  0  0  0  0  0
    0.3385    1.3296   26.2982 O   0  0  0  0  0  0  0  0  0  0  0  0
   -1.2622   -2.1692   26.5099 C   0  0  1  0  0  0  0  0  0  0  0  0
   -0.9652   -2.5848   27.8413 O   0  0  0  0  0  0  0  0  0  0  0  0
    3.0621    5.4980   29.4633 C   0  0  2  0  0  0  0  0  0  0  0  0
    1.8019    4.8441   29.5784 O   0  0  0  0  0  0  0  0  0  0  0  0
    5.6865    5.2070   25.6905 C   0  0  2  0  0  0  0  0  0  0  0  0
    2.3670    1.9510   27.5402 C   0  0  2  0  0  0  0  0  0  0  0  0
    2.6653    3.2473   26.9866 O   0  0  0  0  0  0  0  0  0  0  0  0
   -2.7432   -1.6844   26.4692 C   0  0  2  0  0  0  0  0  0  0  0  0
   -3.1504   -1.5828   25.1037 O   0  0  0  0  0  0  0  0  0  0  0  0
    3.2352    6.1067   28.0428 C   0  0  2  0  0  0  0  0  0  0  0  0
    4.5775    6.6667   27.9228 O   0  0  0  0  0  0  0  0  0  0  0  0
    4.1887    5.1092   25.2243 C   0  0  2  0  0  0  0  0  0  0  0  0
    3.8739    3.7091   25.0077 O   0  0  0  0  0  0  0  0  0  0  0  0
    3.6396    1.3258   28.1388 C   0  0  0  0  0  0  0  0  0  0  0  0
    3.3579    0.0638   28.7182 O   0  0  0  0  0  0  0  0  0  0  0  0
   -2.8940   -0.3040   27.1807 C   0  0  1  0  0  0  0  0  0  0  0  0
   -1.9185    0.6370   26.6373 O   0  0  0  0  0  0  0  0  0  0  0  0
    2.2488    7.2454   27.7004 C   0  0  0  0  0  0  0  0  0  0  0  0
    0.9052    6.8409   27.9021 O   0  0  0  0  0  0  0  0  0  0  0  0
    3.9118    5.8854   23.8994 C   0  0  1  0  0  0  0  0  0  0  0  0
    2.5069    5.8824   23.6505 O   0  0  0  0  0  0  0  0  0  0  0  0
   -4.3152    0.2958   27.0270 C   0  0  0  0  0  0  0  0  0  0  0  0
   -4.4321    1.1721   25.8473 N   0  0  0  0  0  0  0  0  0  0  0  0
  1  2  1  6  0  0  0
  1  7  1  0  0  0  0
  1 30  1  0  0  0  0
  3  4  1  6  0  0  0
  3  9  1  0  0  0  0
  3 39  1  0  0  0  0
  5 10  1  0  0  0  0
  5 26  1  0  0  0  0
  5 32  1  6  0  0  0
  6 12  1  0  0  0  0
  6 36  1  0  0  0  0
  6 19  1  6  0  0  0
  7  8  1  6  0  0  0
  7 14  1  0  0  0  0
  9 16  1  0  0  0  0
 10 11  1  6  0  0  0
 10 18  1  0  0  0  0
 12 13  1  6  0  0  0
 12 20  1  0  0  0  0
 14 15  1  1  0  0  0
 14 22  1  0  0  0  0
 16 17  1  6  0  0  0
 16 24  1  0  0  0  0
 18 19  1  6  0  0  0
 18 25  1  0  0  0  0
 20 21  1  1  0  0  0
 20 27  1  0  0  0  0
 22 23  1  6  0  0  0
 22 29  1  0  0  0  0
 24  2  1  1  0  0  0
 24 31  1  0  0  0  0
 25 26  1  0  0  0  0
 25 33  1  6  0  0  0
 27 28  1  6  0  0  0
 27 35  1  0  0  0  0
 29 30  1  0  0  0  0
 29 37  1  1  0  0  0
 31 32  1  6  0  0  0
 31 39  1  0  0  0  0
 33 34  1  0  0  0  0
 35 36  1  0  0  0  0
 35 41  1  6  0  0  0
 37 38  1  0  0  0  0
 39 40  1  1  0  0  0
 41 42  1  0  0  0  0
M  END
>  <CHROM.1>
170.46682414,29.09792633,59.36410368,24.23547814,-57.42450064,17.15156155
58.13840082,-56.37474917,143.54760784,-58.26417364,46.46486017,84.54513760
-63.18360327,60.95407955,-53.77445697,133.66383617,178.86795431,-70.63956078
-91.42740264,-169.50539202,92.96216774,105.20374670,2.22938510,3.19760915
26.68461012,-0.31016155,0.72746526,2.04837872

>  <Name>
1fyp_lig

>  <RI>
0

>  <Rbt.Current_Directory>
/home/itssahil/PROJECTS/Mol_Feturizer/New_Systems/rnas/1fyp

>  <Rbt.Executable>
rbdock ($Id: //depot/dev/client3/rdock/2013.1/src/exe/rbdock.cxx#4 $)

>  <Rbt.Library>
libRbt.so (2013.1, Build901 2013/11/27)

>  <Rbt.Parameter_File>
/export/apps/rDock/src/rDock_2013.1_src/data/scripts/dock_solv.prm

>  <Rbt.Receptor>
prm/pocket_docking_6.prm

>  <SCORE>
-57.2586

>  <SCORE.INTER>
-54.7889

>  <SCORE.INTER.CONST>
1

>  <SCORE.INTER.POLAR>
-7.08527

>  <SCORE.INTER.ROT>
14

>  <SCORE.INTER.SOLV>
18.8536

>  <SCORE.INTER.VDW>
-32.1262

>  <SCORE.INTER.norm>
-1.3045

>  <SCORE.INTRA>
-2.46969

>  <SCORE.INTRA.DIHEDRAL>
-15.4702

>  <SCORE.INTRA.DIHEDRAL.0>
48.7173

>  <SCORE.INTRA.POLAR>
1.08331

>  <SCORE.INTRA.POLAR.0>
-1.54691

>  <SCORE.INTRA.REPUL>
0

>  <SCORE.INTRA.REPUL.0>
0

>  <SCORE.INTRA.SOLV>
-0.124044

>  <SCORE.INTRA.SOLV.lig_0>
-64.052

>  <SCORE.INTRA.VDW>
1.64416

>  <SCORE.INTRA.VDW.0>
-7.0667

>  <SCORE.INTRA.norm>
-0.0588022

>  <SCORE.RESTR>
0

>  <SCORE.RESTR.CAVITY>
0

>  <SCORE.RESTR.norm>
0

>  <SCORE.SYSTEM>
0

>  <SCORE.SYSTEM.CONST>
0

>  <SCORE.SYSTEM.DIHEDRAL>
0

>  <SCORE.SYSTEM.SOLV>
0

>  <SCORE.SYSTEM.norm>
0

>  <SCORE.heavy>
42

>  <SCORE.norm>
-1.3633

>  <RMSD>
3.358

$$$$
1fyp_lig
 OpenBabel11021811393D
libRbt.so/2013.1/901 2013/11/27
 42 45  0  0  0  0  0  0  0  0999 V2000
    5.2095    6.3367   27.6516 C   0  0  2  0  0  0  0  0  0  0  0  0
    5.3916    5.2897   26.6551 O   0  0  0  0  0  0  0  0  0  0  0  0
    3.3200    7.4196   23.5871 C   0  0  2  0  0  0  0  0  0  0  0  0
    2.8052    7.9687   22.3191 N   0  0  0  0  0  0  0  0  0  0  0  0
    1.8929    3.4233   25.4324 C   0  0  1  0  0  0  0  0  0  0  0  0
   -1.2093    0.8937   24.7322 C   0  0  1  0  0  0  0  0  0  0  0  0
    6.4104    6.3916   28.6502 C   0  0  2  0  0  0  0  0  0  0  0  0
    7.7021    6.4452   27.9330 N   0  0  0  0  0  0  0  0  0  0  0  0
    4.8546    7.5628   23.6225 C   0  0  0  0  0  0  0  0  0  0  0  0
    1.7496    1.9697   24.9738 C   0  0  2  0  0  0  0  0  0  0  0  0
    1.1308    1.9341   23.6872 O   0  0  0  0  0  0  0  0  0  0  0  0
   -2.7081    1.2879   24.5613 C   0  0  2  0  0  0  0  0  0  0  0  0
   -3.4276    1.3735   25.8557 N   0  0  0  0  0  0  0  0  0  0  0  0
    6.3812    5.1712   29.6227 C   0  0  1  0  0  0  0  0  0  0  0  0
    7.3844    5.3169   30.6247 O   0  0  0  0  0  0  0  0  0  0  0  0
    5.4645    7.0275   24.9469 C   0  0  2  0  0  0  0  0  0  0  0  0
    6.9345    7.1366   24.8435 N   0  0  0  0  0  0  0  0  0  0  0  0
    0.8277    1.3906   26.0504 C   0  0  2  0  0  0  0  0  0  0  0  0
   -0.5716    1.6775   25.7742 O   0  0  0  0  0  0  0  0  0  0  0  0
   -3.4287    0.3181   23.5748 C   0  0  1  0  0  0  0  0  0  0  0  0
   -2.9888    0.6095   22.2500 O   0  0  0  0  0  0  0  0  0  0  0  0
    5.0058    5.0231   30.3204 C   0  0  2  0  0  0  0  0  0  0  0  0
    5.0139    3.8434   31.1186 O   0  0  0  0  0  0  0  0  0  0  0  0
    5.0197    5.5563   25.2723 C   0  0  2  0  0  0  0  0  0  0  0  0
    1.2935    2.1369   27.3084 C   0  0  2  0  0  0  0  0  0  0  0  0
    1.7306    3.4344   26.8597 O   0  0  0  0  0  0  0  0  0  0  0  0
   -3.1607   -1.1914   23.8568 C   0  0  2  0  0  0  0  0  0  0  0  0
   -3.8849   -1.5702   25.0284 O   0  0  0  0  0  0  0  0  0  0  0  0
    3.8675    4.9606   29.2628 C   0  0  2  0  0  0  0  0  0  0  0  0
    3.9597    6.1277   28.3914 O   0  0  0  0  0  0  0  0  0  0  0  0
    3.4741    5.3317   25.0970 C   0  0  2  0  0  0  0  0  0  0  0  0
    3.2239    3.9021   25.0874 O   0  0  0  0  0  0  0  0  0  0  0  0
    2.4376    1.4192   28.0463 C   0  0  0  0  0  0  0  0  0  0  0  0
    3.6735    1.6260   27.3848 O   0  0  0  0  0  0  0  0  0  0  0  0
   -1.6360   -1.4554   24.0568 C   0  0  1  0  0  0  0  0  0  0  0  0
   -1.1060   -0.5340   25.0581 O   0  0  0  0  0  0  0  0  0  0  0  0
    2.4376    4.9577   29.8482 C   0  0  0  0  0  0  0  0  0  0  0  0
    2.2729    3.9200   30.7998 O   0  0  0  0  0  0  0  0  0  0  0  0
    2.9177    5.9364   23.7706 C   0  0  1  0  0  0  0  0  0  0  0  0
    1.4946    5.8353   23.7813 O   0  0  0  0  0  0  0  0  0  0  0  0
   -1.3339   -2.9104   24.4983 C   0  0  0  0  0  0  0  0  0  0  0  0
   -0.0525   -3.0260   25.2179 N   0  0  0  0  0  0  0  0  0  0  0  0
  1  2  1  6  0  0  0
  1  7  1  0  0  0  0
  1 30  1  0  0  0  0
  3  4  1  6  0  0  0
  3  9  1  0  0  0  0
  3 39  1  0  0  0  0
  5 10  1  0  0  0  0
  5 26  1  0  0  0  0
  5 32  1  1  0  0  0
  6 12  1  0  0  0  0
  6 36  1  0  0  0  0
  6 19  1  1  0  0  0
  7  8  1  6  0  0  0
  7 14  1  0  0  0  0
  9 16  1  0  0  0  0
 10 11  1  6  0  0  0
 10 18  1  0  0  0  0
 12 13  1  1  0  0  0
 12 20  1  0  0  0  0
 14 15  1  1  0  0  0
 14 22  1  0  0  0  0
 16 17  1  6  0  0  0
 16 24  1  0  0  0  0
 18 19  1  6  0  0  0
 18 25  1  0  0  0  0
 20 21  1  6  0  0  0
 20 27  1  0  0  0  0
 22 23  1  6  0  0  0
 22 29  1  0  0  0  0
 24  2  1  1  0  0  0
 24 31  1  0  0  0  0
 25 26  1  0  0  0  0
 25 33  1  6  0  0  0
 27 28  1  1  0  0  0
 27 35  1  0  0  0  0
 29 30  1  0  0  0  0
 29 37  1  1  0  0  0
 31 32  1  6  0  0  0
 31 39  1  0  0  0  0
 33 34  1  0  0  0  0
 35 36  1  0  0  0  0
 35 41  1  1  0  0  0
 37 38  1  0  0  0  0
 39 40  1  1  0  0  0
 41 42  1  0  0  0  0
M  END
>  <CHROM.1>
-139.50225637,39.99495264,168.50664382,43.15096844,69.43357121,63.83368289
-164.86165111,-7.90162284,75.74943243,178.98122027,62.92627777,-57.67788700
77.46085337,-48.72981365,-54.20793205,157.49863014,163.87558459,-100.44034420
-155.83451846,167.32073410,160.87178072,54.72764836,2.13563463,3.32118080
26.15051362,0.07216375,-0.75510397,-1.00722064

>  <Name>
1fyp_lig

>  <RI>
0

>  <Rbt.Current_Directory>
/home/itssahil/PROJECTS/Mol_Feturizer/New_Systems/rnas/1fyp

>  <Rbt.Executable>
rbdock ($Id: //depot/dev/client3/rdock/2013.1/src/exe/rbdock.cxx#4 $)

>  <Rbt.Library>
libRbt.so (2013.1, Build901 2013/11/27)

>  <Rbt.Parameter_File>
/export/apps/rDock/src/rDock_2013.1_src/data/scripts/dock_solv.prm

>  <Rbt.Receptor>
prm/blind_docking_40.prm

>  <SCORE>
-24.0866

>  <SCORE.INTER>
-20.1368

>  <SCORE.INTER.CONST>
1

>  <SCORE.INTER.POLAR>
-4.50877

>  <SCORE.INTER.ROT>
14

>  <SCORE.INTER.SOLV>
17.4029

>  <SCORE.INTER.VDW>
-17.1296

>  <SCORE.INTER.norm>
-0.479447

>  <SCORE.INTRA>
-3.97453

>  <SCORE.INTRA.DIHEDRAL>
-20.2113

>  <SCORE.INTRA.DIHEDRAL.0>
48.7173

>  <SCORE.INTRA.POLAR>
0.707676

>  <SCORE.INTRA.POLAR.0>
-1.54691

>  <SCORE.INTRA.REPUL>
0.146968

>  <SCORE.INTRA.REPUL.0>
0

>  <SCORE.INTRA.SOLV>
-0.142586

>  <SCORE.INTRA.SOLV.lig_0>
-64.052

>  <SCORE.INTRA.VDW>
3.06149

>  <SCORE.INTRA.VDW.0>
-7.0667

>  <SCORE.INTRA.norm>
-0.0946318

>  <SCORE.RESTR>
0.0247396

>  <SCORE.RESTR.CAVITY>
0.0247396

>  <SCORE.RESTR.norm>
0.000589038

>  <SCORE.SYSTEM>
0

>  <SCORE.SYSTEM.CONST>
0

>  <SCORE.SYSTEM.DIHEDRAL>
0

>  <SCORE.SYSTEM.SOLV>
0

>  <SCORE.SYSTEM.norm>
0

>  <SCORE.heavy>
42

>  <SCORE.norm>
-0.57349

>  <RMSD>
3.379

$$$$
1fyp_lig
 OpenBabel11021811393D
libRbt.so/2013.1/901 2013/11/27
 42 45  0  0  0  0  0  0  0  0999 V2000
    7.3887    8.3973   26.0947 C   0  0  2  0  0  0  0  0  0  0  0  0
    6.8954    7.2569   25.3341 O   0  0  0  0  0  0  0  0  0  0  0  0
    2.8176    8.4821   25.6672 C   0  0  2  0  0  0  0  0  0  0  0  0
    1.3506    8.6174   25.6028 N   0  0  0  0  0  0  0  0  0  0  0  0
    4.4528    4.6496   26.8331 C   0  0  1  0  0  0  0  0  0  0  0  0
    2.7632    1.7851   26.2097 C   0  0  1  0  0  0  0  0  0  0  0  0
    8.9344    8.5649   25.9373 C   0  0  2  0  0  0  0  0  0  0  0  0
    9.3322    8.5588   24.5134 N   0  0  0  0  0  0  0  0  0  0  0  0
    3.3794    8.3045   24.2425 C   0  0  0  0  0  0  0  0  0  0  0  0
    5.2550    4.0964   25.6523 C   0  0  2  0  0  0  0  0  0  0  0  0
    4.6734    4.5459   24.4279 O   0  0  0  0  0  0  0  0  0  0  0  0
    1.8141    0.6914   25.6317 C   0  0  2  0  0  0  0  0  0  0  0  0
    1.3890    0.9810   24.2404 N   0  0  0  0  0  0  0  0  0  0  0  0
    9.6971    7.4488   26.7174 C   0  0  1  0  0  0  0  0  0  0  0  0
   11.0991    7.7051   26.6971 O   0  0  0  0  0  0  0  0  0  0  0  0
    4.9277    8.1827   24.2322 C   0  0  2  0  0  0  0  0  0  0  0  0
    5.3519    7.9364   22.8383 N   0  0  0  0  0  0  0  0  0  0  0  0
    5.0760    2.5864   25.8316 C   0  0  2  0  0  0  0  0  0  0  0  0
    3.8170    2.1217   25.2700 O   0  0  0  0  0  0  0  0  0  0  0  0
    0.5848    0.4720   26.5665 C   0  0  1  0  0  0  0  0  0  0  0  0
    1.0192   -0.2289   27.7299 O   0  0  0  0  0  0  0  0  0  0  0  0
    9.2342    7.3581   28.1932 C   0  0  2  0  0  0  0  0  0  0  0  0
    9.8968    6.2653   28.8221 O   0  0  0  0  0  0  0  0  0  0  0  0
    5.4580    7.0641   25.1996 C   0  0  2  0  0  0  0  0  0  0  0  0
    5.0713    2.4420   27.3598 C   0  0  2  0  0  0  0  0  0  0  0  0
    4.4872    3.6562   27.8702 O   0  0  0  0  0  0  0  0  0  0  0  0
   -0.1110    1.7902   27.0227 C   0  0  2  0  0  0  0  0  0  0  0  0
   -0.8331    2.3297   25.9144 O   0  0  0  0  0  0  0  0  0  0  0  0
    7.6913    7.1776   28.2653 C   0  0  2  0  0  0  0  0  0  0  0  0
    7.0486    8.2515   27.5146 O   0  0  0  0  0  0  0  0  0  0  0  0
    4.7907    7.1185   26.6215 C   0  0  2  0  0  0  0  0  0  0  0  0
    5.0847    5.8730   27.3061 O   0  0  0  0  0  0  0  0  0  0  0  0
    6.4782    2.2425   27.9510 C   0  0  0  0  0  0  0  0  0  0  0  0
    6.4881    2.5288   29.3387 O   0  0  0  0  0  0  0  0  0  0  0  0
    0.9403    2.8230   27.5350 C   0  0  1  0  0  0  0  0  0  0  0  0
    1.9909    2.9906   26.5347 O   0  0  0  0  0  0  0  0  0  0  0  0
    7.0993    7.2195   29.6918 C   0  0  0  0  0  0  0  0  0  0  0  0
    7.2766    8.4944   30.2856 O   0  0  0  0  0  0  0  0  0  0  0  0
    3.2412    7.2913   26.5605 C   0  0  1  0  0  0  0  0  0  0  0  0
    2.7500    7.5008   27.8836 O   0  0  0  0  0  0  0  0  0  0  0  0
    0.3156    4.2066   27.8489 C   0  0  0  0  0  0  0  0  0  0  0  0
    1.2876    5.1412   28.4447 N   0  0  0  0  0  0  0  0  0  0  0  0
  1  2  1  6  0  0  0
  1  7  1  0  0  0  0
  1 30  1  0  0  0  0
  3  4  1  6  0  0  0
  3  9  1  0  0  0  0
  3 39  1  0  0  0  0
  5 10  1  0  0  0  0
  5 26  1  0  0  0  0
  5 32  1  1  0  0  0
  6 12  1  0  0  0  0
  6 36  1  0  0  0  0
  6 19  1  6  0  0  0
  7  8  1  6  0  0  0
  7 14  1  0  0  0  0
  9 16  1  0  0  0  0
 10 11  1  6  0  0  0
 10 18  1  0  0  0  0
 12 13  1  6  0  0  0
 12 20  1  0  0  0  0
 14 15  1  1  0  0  0
 14 22  1  0  0  0  0
 16 17  1  6  0  0  0
 16 24  1  0  0  0  0
 18 19  1  1  0  0  0
 18 25  1  0  0  0  0
 20 21  1  1  0  0  0
 20 27  1  0  0  0  0
 22 23  1  6  0  0  0
 22 29  1  0  0  0  0
 24  2  1  1  0  0  0
 24 31  1  0  0  0  0
 25 26  1  0  0  0  0
 25 33  1  1  0  0  0
 27 28  1  6  0  0  0
 27 35  1  0  0  0  0
 29 30  1  0  0  0  0
 29 37  1  1  0  0  0
 31 32  1  6  0  0  0
 31 39  1  0  0  0  0
 33 34  1  0  0  0  0
 35 36  1  0  0  0  0
 35 41  1  6  0  0  0
 37 38  1  0  0  0  0
 39 40  1  1  0  0  0
 41 42  1  0  0  0  0
M  END
>  <CHROM.1>
-170.91517115,71.47196993,30.91877825,58.83262916,133.20588935,69.13612500
-63.67816005,-30.30540008,-105.51068624,-151.39080603,-173.31716064,166.06504530
161.74093102,-47.87108302,64.68499124,-69.79244078,82.76742800,168.03499516
174.91299029,176.93213554,175.13252143,-97.99834787,4.71728087,5.25901574
26.64909140,0.62551654,-0.34343441,-0.37618698

>  <Name>
1fyp_lig

>  <RI>
0

>  <Rbt.Current_Directory>
/home/itssahil/PROJECTS/Mol_Feturizer/New_Systems/rnas/1fyp

>  <Rbt.Executable>
rbdock ($Id: //depot/dev/client3/rdock/2013.1/src/exe/rbdock.cxx#4 $)

>  <Rbt.Library>
libRbt.so (2013.1, Build901 2013/11/27)

>  <Rbt.Parameter_File>
/export/apps/rDock/src/rDock_2013.1_src/data/scripts/dock_solv.prm

>  <Rbt.Receptor>
prm/blind_docking_80.prm

>  <SCORE>
-52.5652

>  <SCORE.INTER>
-49.4318

>  <SCORE.INTER.CONST>
1

>  <SCORE.INTER.POLAR>
-6.60707

>  <SCORE.INTER.ROT>
14

>  <SCORE.INTER.SOLV>
23.0277

>  <SCORE.INTER.VDW>
-31.5402

>  <SCORE.INTER.norm>
-1.17695

>  <SCORE.INTRA>
-3.56553

>  <SCORE.INTRA.DIHEDRAL>
-21.009

>  <SCORE.INTRA.DIHEDRAL.0>
48.7173

>  <SCORE.INTRA.POLAR>
0.647647

>  <SCORE.INTRA.POLAR.0>
-1.54691

>  <SCORE.INTRA.REPUL>
0.00544929

>  <SCORE.INTRA.REPUL.0>
0

>  <SCORE.INTRA.SOLV>
-0.0286035

>  <SCORE.INTRA.SOLV.lig_0>
-64.052

>  <SCORE.INTRA.VDW>
4.72404

>  <SCORE.INTRA.VDW.0>
-7.0667

>  <SCORE.INTRA.norm>
-0.0848935

>  <SCORE.RESTR>
0.432133

>  <SCORE.RESTR.CAVITY>
0.432133

>  <SCORE.RESTR.norm>
0.0102889

>  <SCORE.SYSTEM>
0

>  <SCORE.SYSTEM.CONST>
0

>  <SCORE.SYSTEM.DIHEDRAL>
0

>  <SCORE.SYSTEM.SOLV>
0

>  <SCORE.SYSTEM.norm>
0

>  <SCORE.heavy>
42

>  <SCORE.norm>
-1.25155

>  <RMSD>
3.390

$$$$
1fyp_lig
 OpenBabel11021811393D
libRbt.so/2013.1/901 2013/11/27
 42 45  0  0  0  0  0  0  0  0999 V2000
    3.3197    4.9818   28.4781 C   0  0  2  0  0  0  0  0  0  0  0  0
    3.9336    6.1366   27.8364 O   0  0  0  0  0  0  0  0  0  0  0  0
    3.5785    7.1603   23.7052 C   0  0  2  0  0  0  0  0  0  0  0  0
    3.7498    7.3365   22.2512 N   0  0  0  0  0  0  0  0  0  0  0  0
    1.6905    3.4349   25.9012 C   0  0  1  0  0  0  0  0  0  0  0  0
   -1.3103    0.2624   25.2092 C   0  0  1  0  0  0  0  0  0  0  0  0
    3.1409    5.2082   30.0140 C   0  0  2  0  0  0  0  0  0  0  0  0
    2.4671    6.4945   30.2916 N   0  0  0  0  0  0  0  0  0  0  0  0
    4.8570    7.6230   24.4321 C   0  0  0  0  0  0  0  0  0  0  0  0
    1.7897    2.0149   25.3378 C   0  0  2  0  0  0  0  0  0  0  0  0
    1.4441    2.0261   23.9521 O   0  0  0  0  0  0  0  0  0  0  0  0
   -0.3285   -0.9239   24.9641 C   0  0  2  0  0  0  0  0  0  0  0  0
    0.8469   -0.5335   24.1477 N   0  0  0  0  0  0  0  0  0  0  0  0
    4.5166    5.1478   30.7488 C   0  0  1  0  0  0  0  0  0  0  0  0
    4.3227    5.1965   32.1601 O   0  0  0  0  0  0  0  0  0  0  0  0
    4.7366    7.4905   25.9749 C   0  0  2  0  0  0  0  0  0  0  0  0
    6.0344    7.8805   26.5641 N   0  0  0  0  0  0  0  0  0  0  0  0
    0.7372    1.2741   26.1673 C   0  0  2  0  0  0  0  0  0  0  0  0
   -0.6017    1.4576   25.6287 O   0  0  0  0  0  0  0  0  0  0  0  0
   -1.0745   -2.1423   24.3381 C   0  0  1  0  0  0  0  0  0  0  0  0
   -1.8791   -2.7487   25.3474 O   0  0  0  0  0  0  0  0  0  0  0  0
    5.2983    3.8556   30.4033 C   0  0  2  0  0  0  0  0  0  0  0  0
    6.5774    3.9048   31.0280 O   0  0  0  0  0  0  0  0  0  0  0  0
    4.3088    6.0495   26.4318 C   0  0  2  0  0  0  0  0  0  0  0  0
    0.8668    1.9573   27.5358 C   0  0  2  0  0  0  0  0  0  0  0  0
    1.2492    3.3195   27.2635 O   0  0  0  0  0  0  0  0  0  0  0  0
   -1.9955   -1.7752   23.1353 C   0  0  2  0  0  0  0  0  0  0  0  0
   -1.1718   -1.4805   22.0060 O   0  0  0  0  0  0  0  0  0  0  0  0
    5.4470    3.7100   28.8622 C   0  0  2  0  0  0  0  0  0  0  0  0
    4.1260    3.7781   28.2457 O   0  0  0  0  0  0  0  0  0  0  0  0
    3.0998    5.4795   25.6049 C   0  0  2  0  0  0  0  0  0  0  0  0
    3.0075    4.0545   25.8642 O   0  0  0  0  0  0  0  0  0  0  0  0
    1.9097    1.2873   28.4480 C   0  0  0  0  0  0  0  0  0  0  0  0
    3.1593    1.1756   27.7894 O   0  0  0  0  0  0  0  0  0  0  0  0
   -2.8953   -0.5482   23.4808 C   0  0  1  0  0  0  0  0  0  0  0  0
   -2.0647    0.5435   23.9815 O   0  0  0  0  0  0  0  0  0  0  0  0
    6.0853    2.3829   28.3947 C   0  0  0  0  0  0  0  0  0  0  0  0
    6.6060    2.4966   27.0811 O   0  0  0  0  0  0  0  0  0  0  0  0
    3.2613    5.6893   24.0673 C   0  0  1  0  0  0  0  0  0  0  0  0
    2.0506    5.2990   23.4209 O   0  0  0  0  0  0  0  0  0  0  0  0
   -3.7127   -0.0445   22.2638 C   0  0  0  0  0  0  0  0  0  0  0  0
   -4.8618   -0.9156   21.9577 N   0  0  0  0  0  0  0  0  0  0  0  0
  1  2  1  1  0  0  0
  1  7  1  0  0  0  0
  1 30  1  0  0  0  0
  3  4  1  6  0  0  0
  3  9  1  0  0  0  0
  3 39  1  0  0  0  0
  5 10  1  0  0  0  0
  5 26  1  0  0  0  0
  5 32  1  1  0  0  0
  6 12  1  0  0  0  0
  6 36  1  0  0  0  0
  6 19  1  6  0  0  0
  7  8  1  6  0  0  0
  7 14  1  0  0  0  0
  9 16  1  0  0  0  0
 10 11  1  6  0  0  0
 10 18  1  0  0  0  0
 12 13  1  6  0  0  0
 12 20  1  0  0  0  0
 14 15  1  1  0  0  0
 14 22  1  0  0  0  0
 16 17  1  1  0  0  0
 16 24  1  0  0  0  0
 18 19  1  6  0  0  0
 18 25  1  0  0  0  0
 20 21  1  1  0  0  0
 20 27  1  0  0  0  0
 22 23  1  1  0  0  0
 22 29  1  0  0  0  0
 24  2  1  1  0  0  0
 24 31  1  0  0  0  0
 25 26  1  0  0  0  0
 25 33  1  1  0  0  0
 27 28  1  6  0  0  0
 27 35  1  0  0  0  0
 29 30  1  0  0  0  0
 29 37  1  1  0  0  0
 31 32  1  6  0  0  0
 31 39  1  0  0  0  0
 33 34  1  0  0  0  0
 35 36  1  0  0  0  0
 35 41  1  6  0  0  0
 37 38  1  0  0  0  0
 39 40  1  6  0  0  0
 41 42  1  0  0  0  0
M  END
>  <CHROM.1>
173.46488453,171.73665667,153.84301726,-23.35568060,59.19064460,167.90982601
-77.96607362,-170.44521511,119.63743360,-19.62348700,63.92755080,-63.06481199
53.21955063,98.07766527,-159.76038030,145.54426377,145.58382308,62.38090966
75.84236727,69.93890903,-74.60159879,-171.24308456,2.06223718,2.96297334
26.20066683,0.00213476,0.86084194,2.21421725

>  <Name>
1fyp_lig

>  <RI>
0

>  <Rbt.Current_Directory>
/home/itssahil/PROJECTS/Mol_Feturizer/New_Systems/rnas/1fyp

>  <Rbt.Executable>
rbdock ($Id: //depot/dev/client3/rdock/2013.1/src/exe/rbdock.cxx#4 $)

>  <Rbt.Library>
libRbt.so (2013.1, Build901 2013/11/27)

>  <Rbt.Parameter_File>
/export/apps/rDock/src/rDock_2013.1_src/data/scripts/dock_solv.prm

>  <Rbt.Receptor>
prm/pocket_docking_5.prm

>  <SCORE>
-47.6277

>  <SCORE.INTER>
-45.1248

>  <SCORE.INTER.CONST>
1

>  <SCORE.INTER.POLAR>
-5.1343

>  <SCORE.INTER.ROT>
14

>  <SCORE.INTER.SOLV>
23.0057

>  <SCORE.INTER.VDW>
-33.5708

>  <SCORE.INTER.norm>
-1.0744

>  <SCORE.INTRA>
-2.50288

>  <SCORE.INTRA.DIHEDRAL>
-12.696

>  <SCORE.INTRA.DIHEDRAL.0>
48.7173

>  <SCORE.INTRA.POLAR>
0.190698

>  <SCORE.INTRA.POLAR.0>
-1.54691

>  <SCORE.INTRA.REPUL>
0.0149947

>  <SCORE.INTRA.REPUL.0>
0

>  <SCORE.INTRA.SOLV>
0.488963

>  <SCORE.INTRA.SOLV.lig_0>
-64.052

>  <SCORE.INTRA.VDW>
2.87727

>  <SCORE.INTRA.VDW.0>
-7.0667

>  <SCORE.INTRA.norm>
-0.0595925

>  <SCORE.RESTR>
0

>  <SCORE.RESTR.CAVITY>
0

>  <SCORE.RESTR.norm>
0

>  <SCORE.SYSTEM>
0

>  <SCORE.SYSTEM.CONST>
0

>  <SCORE.SYSTEM.DIHEDRAL>
0

>  <SCORE.SYSTEM.SOLV>
0

>  <SCORE.SYSTEM.norm>
0

>  <SCORE.heavy>
42

>  <SCORE.norm>
-1.13399

>  <RMSD>
3.415

$$$$
1fyp_lig
 OpenBabel11021811393D
libRbt.so/2013.1/901 2013/11/27
 42 45  0  0  0  0  0  0  0  0999 V2000
    5.1043    6.1891   27.9148 C   0  0  2  0  0  0  0  0  0  0  0  0
    5.3645    5.1363   26.9421 O   0  0  0  0  0  0  0  0  0  0  0  0
    3.9496    7.3719   23.5893 C   0  0  2  0  0  0  0  0  0  0  0  0
    3.6995    7.9628   22.2617 N   0  0  0  0  0  0  0  0  0  0  0  0
    2.2791    3.2832   25.3888 C   0  0  1  0  0  0  0  0  0  0  0  0
   -0.8378    0.3586   26.6777 C   0  0  1  0  0  0  0  0  0  0  0  0
    4.8735    5.6029   29.3449 C   0  0  2  0  0  0  0  0  0  0  0  0
    5.9574    4.6716   29.7240 N   0  0  0  0  0  0  0  0  0  0  0  0
    5.4459    7.5049   23.9363 C   0  0  0  0  0  0  0  0  0  0  0  0
    2.2928    1.7576   25.2617 C   0  0  2  0  0  0  0  0  0  0  0  0
    1.6931    1.3766   24.0229 O   0  0  0  0  0  0  0  0  0  0  0  0
   -0.3786   -1.0487   26.1881 C   0  0  2  0  0  0  0  0  0  0  0  0
   -0.1253   -1.0909   24.7272 N   0  0  0  0  0  0  0  0  0  0  0  0
    3.4890    4.8882   29.4362 C   0  0  1  0  0  0  0  0  0  0  0  0
    3.2241    4.4995   30.7817 O   0  0  0  0  0  0  0  0  0  0  0  0
    5.7779    6.9254   25.3385 C   0  0  2  0  0  0  0  0  0  0  0  0
    7.2388    7.0290   25.5355 N   0  0  0  0  0  0  0  0  0  0  0  0
    1.4266    1.3360   26.4517 C   0  0  2  0  0  0  0  0  0  0  0  0
    0.0076    1.4082   26.1390 O   0  0  0  0  0  0  0  0  0  0  0  0
   -1.3988   -2.1471   26.6190 C   0  0  1  0  0  0  0  0  0  0  0  0
   -1.2646   -2.3654   28.0218 O   0  0  0  0  0  0  0  0  0  0  0  0
    2.3357    5.8022   28.9514 C   0  0  2  0  0  0  0  0  0  0  0  0
    1.1177    5.0640   28.9710 O   0  0  0  0  0  0  0  0  0  0  0  0
    5.2774    5.4475   25.5219 C   0  0  2  0  0  0  0  0  0  0  0  0
    1.8002    2.3842   27.5091 C   0  0  2  0  0  0  0  0  0  0  0  0
    2.1034    3.5900   26.7812 O   0  0  0  0  0  0  0  0  0  0  0  0
   -2.8858   -1.7864   26.3215 C   0  0  2  0  0  0  0  0  0  0  0  0
   -3.1058   -1.8914   24.9139 O   0  0  0  0  0  0  0  0  0  0  0  0
    2.6317    6.3319   27.5196 C   0  0  2  0  0  0  0  0  0  0  0  0
    3.9380    6.9826   27.5109 O   0  0  0  0  0  0  0  0  0  0  0  0
    3.7985    5.2375   25.0332 C   0  0  2  0  0  0  0  0  0  0  0  0
    3.5559    3.8104   24.9288 O   0  0  0  0  0  0  0  0  0  0  0  0
    3.0062    1.9687   28.3703 C   0  0  0  0  0  0  0  0  0  0  0  0
    4.1691    1.8227   27.5740 O   0  0  0  0  0  0  0  0  0  0  0  0
   -3.2143   -0.3421   26.8119 C   0  0  1  0  0  0  0  0  0  0  0  0
   -2.2300    0.5937   26.2754 O   0  0  0  0  0  0  0  0  0  0  0  0
    1.6173    7.3696   26.9893 C   0  0  0  0  0  0  0  0  0  0  0  0
    2.0640    7.9538   25.7775 O   0  0  0  0  0  0  0  0  0  0  0  0
    3.5194    5.8861   23.6418 C   0  0  1  0  0  0  0  0  0  0  0  0
    2.1230    5.7932   23.3637 O   0  0  0  0  0  0  0  0  0  0  0  0
   -4.6333    0.1226   26.3955 C   0  0  0  0  0  0  0  0  0  0  0  0
   -5.6390   -0.9464   26.5329 N   0  0  0  0  0  0  0  0  0  0  0  0
  1  2  1  6  0  0  0
  1  7  1  0  0  0  0
  1 30  1  0  0  0  0
  3  4  1  6  0  0  0
  3  9  1  0  0  0  0
  3 39  1  0  0  0  0
  5 10  1  0  0  0  0
  5 26  1  0  0  0  0
  5 32  1  1  0  0  0
  6 12  1  0  0  0  0
  6 36  1  0  0  0  0
  6 19  1  6  0  0  0
  7  8  1  6  0  0  0
  7 14  1  0  0  0  0
  9 16  1  0  0  0  0
 10 11  1  6  0  0  0
 10 18  1  0  0  0  0
 12 13  1  6  0  0  0
 12 20  1  0  0  0  0
 14 15  1  1  0  0  0
 14 22  1  0  0  0  0
 16 17  1  6  0  0  0
 16 24  1  0  0  0  0
 18 19  1  6  0  0  0
 18 25  1  0  0  0  0
 20 21  1  1  0  0  0
 20 27  1  0  0  0  0
 22 23  1  6  0  0  0
 22 29  1  0  0  0  0
 24  2  1  1  0  0  0
 24 31  1  0  0  0  0
 25 26  1  0  0  0  0
 25 33  1  6  0  0  0
 27 28  1  6  0  0  0
 27 35  1  0  0  0  0
 29 30  1  0  0  0  0
 29 37  1  1  0  0  0
 31 32  1  6  0  0  0
 31 39  1  0  0  0  0
 33 34  1  0  0  0  0
 35 36  1  0  0  0  0
 35 41  1  6  0  0  0
 37 38  1  0  0  0  0
 39 40  1  1  0  0  0
 41 42  1  0  0  0  0
M  END
>  <CHROM.1>
165.03122421,34.41833234,74.56091878,172.89713981,-46.11078566,-73.84991234
53.96404876,-27.23681076,141.63480614,-58.85495727,176.79929117,78.14989961
62.46306493,65.33280615,170.90956192,138.66697804,-176.40721180,176.99010065
40.76951192,-48.50552839,74.42299014,23.30533964,1.86347601,3.35969393,26.42381842
-0.28416781,0.78253385,1.94474959

>  <Name>
1fyp_lig

>  <RI>
0

>  <Rbt.Current_Directory>
/home/itssahil/PROJECTS/Mol_Feturizer/New_Systems/rnas/1fyp

>  <Rbt.Executable>
rbdock ($Id: //depot/dev/client3/rdock/2013.1/src/exe/rbdock.cxx#4 $)

>  <Rbt.Library>
libRbt.so (2013.1, Build901 2013/11/27)

>  <Rbt.Parameter_File>
/export/apps/rDock/src/rDock_2013.1_src/data/scripts/dock_solv.prm

>  <Rbt.Receptor>
prm/pocket_docking_6.prm

>  <SCORE>
-52.2405

>  <SCORE.INTER>
-44.6595

>  <SCORE.INTER.CONST>
1

>  <SCORE.INTER.POLAR>
-5.43179

>  <SCORE.INTER.ROT>
14

>  <SCORE.INTER.SOLV>
15.7341

>  <SCORE.INTER.VDW>
-29.8451

>  <SCORE.INTER.norm>
-1.06332

>  <SCORE.INTRA>
-7.58104

>  <SCORE.INTRA.DIHEDRAL>
-24.2564

>  <SCORE.INTRA.DIHEDRAL.0>
48.7173

>  <SCORE.INTRA.POLAR>
0.645705

>  <SCORE.INTRA.POLAR.0>
-1.54691

>  <SCORE.INTRA.REPUL>
0.00339995

>  <SCORE.INTRA.REPUL.0>
0

>  <SCORE.INTRA.SOLV>
3.80977

>  <SCORE.INTRA.SOLV.lig_0>
-64.052

>  <SCORE.INTRA.VDW>
0.429892

>  <SCORE.INTRA.VDW.0>
-7.0667

>  <SCORE.INTRA.norm>
-0.180501

>  <SCORE.RESTR>
0

>  <SCORE.RESTR.CAVITY>
0

>  <SCORE.RESTR.norm>
0

>  <SCORE.SYSTEM>
0

>  <SCORE.SYSTEM.CONST>
0

>  <SCORE.SYSTEM.DIHEDRAL>
0

>  <SCORE.SYSTEM.SOLV>
0

>  <SCORE.SYSTEM.norm>
0

>  <SCORE.heavy>
42

>  <SCORE.norm>
-1.24382

>  <RMSD>
3.419

$$$$
1fyp_lig
 OpenBabel11021811393D
libRbt.so/2013.1/901 2013/11/27
 42 45  0  0  0  0  0  0  0  0999 V2000
    2.8116    4.8224   29.1884 C   0  0  2  0  0  0  0  0  0  0  0  0
    3.0313    5.9870   28.3413 O   0  0  0  0  0  0  0  0  0  0  0  0
    3.2207    6.4758   24.1027 C   0  0  2  0  0  0  0  0  0  0  0  0
    3.6021    6.5139   22.6787 N   0  0  0  0  0  0  0  0  0  0  0  0
    1.7667    2.6342   26.0201 C   0  0  1  0  0  0  0  0  0  0  0  0
   -1.0573   -0.6605   25.4582 C   0  0  1  0  0  0  0  0  0  0  0  0
    3.2462    5.0977   30.6640 C   0  0  2  0  0  0  0  0  0  0  0  0
    2.6478    6.3494   31.1747 N   0  0  0  0  0  0  0  0  0  0  0  0
    4.2863    7.2121   24.9389 C   0  0  0  0  0  0  0  0  0  0  0  0
    2.0076    1.2596   26.6497 C   0  0  2  0  0  0  0  0  0  0  0  0
    2.8338    0.4776   25.7864 O   0  0  0  0  0  0  0  0  0  0  0  0
   -1.7099   -0.6926   24.0425 C   0  0  2  0  0  0  0  0  0  0  0  0
   -1.7702    0.6480   23.4105 N   0  0  0  0  0  0  0  0  0  0  0  0
    4.8013    5.1524   30.7847 C   0  0  1  0  0  0  0  0  0  0  0  0
    5.1852    5.2446   32.1543 O   0  0  0  0  0  0  0  0  0  0  0  0
    3.9340    7.2348   26.4514 C   0  0  2  0  0  0  0  0  0  0  0  0
    5.0511    7.8874   27.1654 N   0  0  0  0  0  0  0  0  0  0  0  0
    0.5865    0.6942   26.7217 C   0  0  2  0  0  0  0  0  0  0  0  0
    0.1742    0.1075   25.4558 O   0  0  0  0  0  0  0  0  0  0  0  0
   -3.1193   -1.3587   24.0953 C   0  0  1  0  0  0  0  0  0  0  0  0
   -2.9506   -2.7634   24.2741 O   0  0  0  0  0  0  0  0  0  0  0  0
    5.4716    3.8988   30.1685 C   0  0  2  0  0  0  0  0  0  0  0  0
    6.8865    4.0524   30.2260 O   0  0  0  0  0  0  0  0  0  0  0  0
    3.6402    5.8043   27.0308 C   0  0  2  0  0  0  0  0  0  0  0  0
   -0.2434    1.9480   27.0312 C   0  0  2  0  0  0  0  0  0  0  0  0
    0.4407    3.0432   26.3920 O   0  0  0  0  0  0  0  0  0  0  0  0
   -4.0318   -0.8272   25.2420 C   0  0  2  0  0  0  0  0  0  0  0  0
   -4.4762    0.4859   24.8972 O   0  0  0  0  0  0  0  0  0  0  0  0
    5.0016    3.7020   28.6993 C   0  0  2  0  0  0  0  0  0  0  0  0
    3.5431    3.6631   28.6650 O   0  0  0  0  0  0  0  0  0  0  0  0
    2.6737    4.9626   26.1211 C   0  0  2  0  0  0  0  0  0  0  0  0
    2.7379    3.5787   26.5536 O   0  0  0  0  0  0  0  0  0  0  0  0
   -0.3847    2.2205   28.5393 C   0  0  0  0  0  0  0  0  0  0  0  0
   -1.2063    3.3509   28.7735 O   0  0  0  0  0  0  0  0  0  0  0  0
   -3.2579   -0.7960   26.5964 C   0  0  1  0  0  0  0  0  0  0  0  0
   -1.9973   -0.0792   26.4246 O   0  0  0  0  0  0  0  0  0  0  0  0
    5.4945    2.3999   28.0295 C   0  0  0  0  0  0  0  0  0  0  0  0
    6.9027    2.4055   27.8673 O   0  0  0  0  0  0  0  0  0  0  0  0
    3.0546    5.0228   24.6092 C   0  0  1  0  0  0  0  0  0  0  0  0
    2.0320    4.3772   23.8521 O   0  0  0  0  0  0  0  0  0  0  0  0
   -4.0700   -0.1252   27.7339 C   0  0  0  0  0  0  0  0  0  0  0  0
   -5.4002   -0.7351   27.9114 N   0  0  0  0  0  0  0  0  0  0  0  0
  1  2  1  6  0  0  0
  1  7  1  0  0  0  0
  1 30  1  0  0  0  0
  3  4  1  6  0  0  0
  3  9  1  0  0  0  0
  3 39  1  0  0  0  0
  5 10  1  0  0  0  0
  5 26  1  0  0  0  0
  5 32  1  1  0  0  0
  6 12  1  0  0  0  0
  6 36  1  0  0  0  0
  6 19  1  6  0  0  0
  7  8  1  6  0  0  0
  7 14  1  0  0  0  0
  9 16  1  0  0  0  0
 10 11  1  6  0  0  0
 10 18  1  0  0  0  0
 12 13  1  1  0  0  0
 12 20  1  0  0  0  0
 14 15  1  1  0  0  0
 14 22  1  0  0  0  0
 16 17  1  1  0  0  0
 16 24  1  0  0  0  0
 18 19  1  6  0  0  0
 18 25  1  0  0  0  0
 20 21  1  1  0  0  0
 20 27  1  0  0  0  0
 22 23  1  6  0  0  0
 22 29  1  0  0  0  0
 24  2  1  1  0  0  0
 24 31  1  0  0  0  0
 25 26  1  0  0  0  0
 25 33  1  1  0  0  0
 27 28  1  6  0  0  0
 27 35  1  0  0  0  0
 29 30  1  0  0  0  0
 29 37  1  1  0  0  0
 31 32  1  1  0  0  0
 31 39  1  0  0  0  0
 33 34  1  0  0  0  0
 35 36  1  0  0  0  0
 35 41  1  1  0  0  0
 37 38  1  0  0  0  0
 39 40  1  6  0  0  0
 41 42  1  0  0  0  0
M  END
>  <CHROM.1>
135.23718346,-172.03716844,-175.24134254,69.72710011,-62.78762987,148.55646548
-68.85204563,55.09362068,169.83846243,154.89636826,-60.85557556,-163.28472412
-177.40260692,72.91300396,-65.90755974,169.71951225,-178.33509406,73.49718157
54.20355013,-64.69898228,45.76816677,-70.76163239,1.45686245,2.87006977,26.92786872
0.16514868,0.69562104,1.77534668

>  <Name>
1fyp_lig

>  <RI>
0

>  <Rbt.Current_Directory>
/home/itssahil/PROJECTS/Mol_Feturizer/New_Systems/rnas/1fyp

>  <Rbt.Executable>
rbdock ($Id: //depot/dev/client3/rdock/2013.1/src/exe/rbdock.cxx#4 $)

>  <Rbt.Library>
libRbt.so (2013.1, Build901 2013/11/27)

>  <Rbt.Parameter_File>
/export/apps/rDock/src/rDock_2013.1_src/data/scripts/dock_solv.prm

>  <Rbt.Receptor>
prm/pocket_docking_8.prm

>  <SCORE>
-53.9766

>  <SCORE.INTER>
-46.7307

>  <SCORE.INTER.CONST>
1

>  <SCORE.INTER.POLAR>
-7.40233

>  <SCORE.INTER.ROT>
14

>  <SCORE.INTER.SOLV>
21.0861

>  <SCORE.INTER.VDW>
-26.4414

>  <SCORE.INTER.norm>
-1.11264

>  <SCORE.INTRA>
-7.30601

>  <SCORE.INTRA.DIHEDRAL>
-31.564

>  <SCORE.INTRA.DIHEDRAL.0>
48.7173

>  <SCORE.INTRA.POLAR>
0.750054

>  <SCORE.INTRA.POLAR.0>
-1.54691

>  <SCORE.INTRA.REPUL>
0.0966254

>  <SCORE.INTRA.REPUL.0>
0

>  <SCORE.INTRA.SOLV>
-2.09779

>  <SCORE.INTRA.SOLV.lig_0>
-64.052

>  <SCORE.INTRA.VDW>
6.49159

>  <SCORE.INTRA.VDW.0>
-7.0667

>  <SCORE.INTRA.norm>
-0.173953

>  <SCORE.RESTR>
0.0601473

>  <SCORE.RESTR.CAVITY>
0.0601473

>  <SCORE.RESTR.norm>
0.00143208

>  <SCORE.SYSTEM>
0

>  <SCORE.SYSTEM.CONST>
0

>  <SCORE.SYSTEM.DIHEDRAL>
0

>  <SCORE.SYSTEM.SOLV>
0

>  <SCORE.SYSTEM.norm>
0

>  <SCORE.heavy>
42

>  <SCORE.norm>
-1.28516

>  <RMSD>
3.437

$$$$
1fyp_lig
 OpenBabel11021811393D
libRbt.so/2013.1/901 2013/11/27
 42 45  0  0  0  0  0  0  0  0999 V2000
    5.3243    5.7328   27.9038 C   0  0  2  0  0  0  0  0  0  0  0  0
    5.5157    4.7525   26.8434 O   0  0  0  0  0  0  0  0  0  0  0  0
    3.9312    7.2636   23.7734 C   0  0  2  0  0  0  0  0  0  0  0  0
    3.5988    7.9519   22.5124 N   0  0  0  0  0  0  0  0  0  0  0  0
    2.1506    3.1757   25.2638 C   0  0  1  0  0  0  0  0  0  0  0  0
   -1.1853    0.3539   26.1760 C   0  0  1  0  0  0  0  0  0  0  0  0
    5.4193    5.0731   29.3173 C   0  0  2  0  0  0  0  0  0  0  0  0
    6.6469    4.2597   29.4480 N   0  0  0  0  0  0  0  0  0  0  0  0
    5.4559    7.3117   23.9975 C   0  0  0  0  0  0  0  0  0  0  0  0
    2.0960    1.6527   25.1185 C   0  0  2  0  0  0  0  0  0  0  0  0
    1.5789    1.3145   23.8310 O   0  0  0  0  0  0  0  0  0  0  0  0
   -2.4427    0.3430   25.2541 C   0  0  2  0  0  0  0  0  0  0  0  0
   -3.0324    1.6924   25.0759 N   0  0  0  0  0  0  0  0  0  0  0  0
    4.1583    4.2011   29.6098 C   0  0  1  0  0  0  0  0  0  0  0  0
    4.1836    3.7365   30.9571 O   0  0  0  0  0  0  0  0  0  0  0  0
    5.8765    6.6265   25.3265 C   0  0  2  0  0  0  0  0  0  0  0  0
    7.3519    6.6567   25.4026 N   0  0  0  0  0  0  0  0  0  0  0  0
    1.1165    1.2664   26.2301 C   0  0  2  0  0  0  0  0  0  0  0  0
   -0.2672    1.4155   25.8061 O   0  0  0  0  0  0  0  0  0  0  0  0
   -3.5036   -0.6757   25.7734 C   0  0  1  0  0  0  0  0  0  0  0  0
   -3.0378   -1.9952   25.4987 O   0  0  0  0  0  0  0  0  0  0  0  0
    2.8456    4.9930   29.3863 C   0  0  2  0  0  0  0  0  0  0  0  0
    1.7371    4.1193   29.5780 O   0  0  0  0  0  0  0  0  0  0  0  0
    5.3249    5.1614   25.4585 C   0  0  2  0  0  0  0  0  0  0  0  0
    1.4573    2.2844   27.3274 C   0  0  2  0  0  0  0  0  0  0  0  0
    1.8796    3.4791   26.6417 O   0  0  0  0  0  0  0  0  0  0  0  0
   -3.7938   -0.5691   27.3013 C   0  0  2  0  0  0  0  0  0  0  0  0
   -4.5617    0.6123   27.5364 O   0  0  0  0  0  0  0  0  0  0  0  0
    2.8201    5.6042   27.9567 C   0  0  2  0  0  0  0  0  0  0  0  0
    4.0262    6.4008   27.7555 O   0  0  0  0  0  0  0  0  0  0  0  0
    3.8022    5.0454   25.0871 C   0  0  2  0  0  0  0  0  0  0  0  0
    3.4856    3.6396   24.9140 O   0  0  0  0  0  0  0  0  0  0  0  0
    2.5673    1.7989   28.2766 C   0  0  0  0  0  0  0  0  0  0  0  0
    3.8353    1.8677   27.6480 O   0  0  0  0  0  0  0  0  0  0  0  0
   -2.4638   -0.5182   28.1155 C   0  0  1  0  0  0  0  0  0  0  0  0
   -1.5973    0.5254   27.5746 O   0  0  0  0  0  0  0  0  0  0  0  0
    1.6217    6.5366   27.6711 C   0  0  0  0  0  0  0  0  0  0  0  0
    0.3975    5.8222   27.6898 O   0  0  0  0  0  0  0  0  0  0  0  0
    3.4382    5.7965   23.7689 C   0  0  1  0  0  0  0  0  0  0  0  0
    2.0207    5.7797   23.6071 O   0  0  0  0  0  0  0  0  0  0  0  0
   -2.6963   -0.2506   29.6246 C   0  0  0  0  0  0  0  0  0  0  0  0
   -3.4492   -1.3356   30.2795 N   0  0  0  0  0  0  0  0  0  0  0  0
  1  2  1  6  0  0  0
  1  7  1  0  0  0  0
  1 30  1  0  0  0  0
  3  4  1  6  0  0  0
  3  9  1  0  0  0  0
  3 39  1  0  0  0  0
  5 10  1  0  0  0  0
  5 26  1  0  0  0  0
  5 32  1  1  0  0  0
  6 12  1  0  0  0  0
  6 36  1  0  0  0  0
  6 19  1  6  0  0  0
  7  8  1  6  0  0  0
  7 14  1  0  0  0  0
  9 16  1  0  0  0  0
 10 11  1  6  0  0  0
 10 18  1  0  0  0  0
 12 13  1  1  0  0  0
 12 20  1  0  0  0  0
 14 15  1  1  0  0  0
 14 22  1  0  0  0  0
 16 17  1  6  0  0  0
 16 24  1  0  0  0  0
 18 19  1  6  0  0  0
 18 25  1  0  0  0  0
 20 21  1  1  0  0  0
 20 27  1  0  0  0  0
 22 23  1  6  0  0  0
 22 29  1  0  0  0  0
 24  2  1  1  0  0  0
 24 31  1  0  0  0  0
 25 26  1  0  0  0  0
 25 33  1  1  0  0  0
 27 28  1  6  0  0  0
 27 35  1  0  0  0  0
 29 30  1  0  0  0  0
 29 37  1  1  0  0  0
 31 32  1  6  0  0  0
 31 39  1  0  0  0  0
 33 34  1  0  0  0  0
 35 36  1  0  0  0  0
 35 41  1  1  0  0  0
 37 38  1  0  0  0  0
 39 40  1  1  0  0  0
 41 42  1  0  0  0  0
M  END
>  <CHROM.1>
173.78300439,37.31995544,-46.12889665,-69.07355415,66.30182854,174.76429490
-75.69664519,166.27384194,137.06742864,-158.69375295,62.66355979,177.62968491
74.76263684,70.81452608,-65.65613328,147.83982566,-174.90877324,-70.93054003
63.91598447,-163.09259305,-63.22416315,-67.26359539,1.72492870,3.29144699
26.73223945,-0.28802520,0.62718361,1.87947915

>  <Name>
1fyp_lig

>  <RI>
0

>  <Rbt.Current_Directory>
/home/itssahil/PROJECTS/Mol_Feturizer/New_Systems/rnas/1fyp

>  <Rbt.Executable>
rbdock ($Id: //depot/dev/client3/rdock/2013.1/src/exe/rbdock.cxx#4 $)

>  <Rbt.Library>
libRbt.so (2013.1, Build901 2013/11/27)

>  <Rbt.Parameter_File>
/export/apps/rDock/src/rDock_2013.1_src/data/scripts/dock_solv.prm

>  <Rbt.Receptor>
prm/blind_docking_60.prm

>  <SCORE>
-45.0217

>  <SCORE.INTER>
-38.0461

>  <SCORE.INTER.CONST>
1

>  <SCORE.INTER.POLAR>
-4.80125

>  <SCORE.INTER.ROT>
14

>  <SCORE.INTER.SOLV>
16.0365

>  <SCORE.INTER.VDW>
-27.6388

>  <SCORE.INTER.norm>
-0.90586

>  <SCORE.INTRA>
-7.01019

>  <SCORE.INTRA.DIHEDRAL>
-28.1394

>  <SCORE.INTRA.DIHEDRAL.0>
48.7173

>  <SCORE.INTRA.POLAR>
0.966794

>  <SCORE.INTRA.POLAR.0>
-1.54691

>  <SCORE.INTRA.REPUL>
0.484847

>  <SCORE.INTRA.REPUL.0>
0

>  <SCORE.INTRA.SOLV>
1.90155

>  <SCORE.INTRA.SOLV.lig_0>
-64.052

>  <SCORE.INTRA.VDW>
0.397383

>  <SCORE.INTRA.VDW.0>
-7.0667

>  <SCORE.INTRA.norm>
-0.166909

>  <SCORE.RESTR>
0.034608

>  <SCORE.RESTR.CAVITY>
0.034608

>  <SCORE.RESTR.norm>
0.000824

>  <SCORE.SYSTEM>
0

>  <SCORE.SYSTEM.CONST>
0

>  <SCORE.SYSTEM.DIHEDRAL>
0

>  <SCORE.SYSTEM.SOLV>
0

>  <SCORE.SYSTEM.norm>
0

>  <SCORE.heavy>
42

>  <SCORE.norm>
-1.07195

>  <RMSD>
3.471

$$$$
1fyp_lig
 OpenBabel11021811393D
libRbt.so/2013.1/901 2013/11/27
 42 45  0  0  0  0  0  0  0  0999 V2000
    5.5670    5.1862   28.6315 C   0  0  2  0  0  0  0  0  0  0  0  0
    5.5760    4.2805   27.4905 O   0  0  0  0  0  0  0  0  0  0  0  0
    4.9130    7.2508   24.4941 C   0  0  2  0  0  0  0  0  0  0  0  0
    4.9096    8.0880   23.2802 N   0  0  0  0  0  0  0  0  0  0  0  0
    2.4609    3.2411   25.4345 C   0  0  1  0  0  0  0  0  0  0  0  0
   -0.7627    0.5712   25.1011 C   0  0  1  0  0  0  0  0  0  0  0  0
    5.5848    4.4033   29.9839 C   0  0  2  0  0  0  0  0  0  0  0  0
    6.6685    3.3979   30.0072 N   0  0  0  0  0  0  0  0  0  0  0  0
    6.3625    7.0660   24.9857 C   0  0  0  0  0  0  0  0  0  0  0  0
    2.3026    1.7411   25.1726 C   0  0  2  0  0  0  0  0  0  0  0  0
    1.7711    1.5390   23.8625 O   0  0  0  0  0  0  0  0  0  0  0  0
   -1.9282    1.1531   24.2442 C   0  0  2  0  0  0  0  0  0  0  0  0
   -2.7842    2.0939   25.0075 N   0  0  0  0  0  0  0  0  0  0  0  0
    4.2067    3.7203   30.2493 C   0  0  1  0  0  0  0  0  0  0  0  0
    4.1857    3.1460   31.5537 O   0  0  0  0  0  0  0  0  0  0  0  0
    6.4395    6.2135   26.2817 C   0  0  2  0  0  0  0  0  0  0  0  0
    7.8668    6.0311   26.6180 N   0  0  0  0  0  0  0  0  0  0  0  0
    1.2921    1.3394   26.2505 C   0  0  2  0  0  0  0  0  0  0  0  0
   -0.0754    1.6157   25.8383 O   0  0  0  0  0  0  0  0  0  0  0  0
   -2.7733    0.0083   23.6052 C   0  0  1  0  0  0  0  0  0  0  0  0
   -2.0164   -0.5784   22.5485 O   0  0  0  0  0  0  0  0  0  0  0  0
    3.0337    4.7258   30.1348 C   0  0  2  0  0  0  0  0  0  0  0  0
    1.8037    4.0255   30.2943 O   0  0  0  0  0  0  0  0  0  0  0  0
    5.7003    4.8336   26.1488 C   0  0  2  0  0  0  0  0  0  0  0  0
    1.6956    2.2444   27.4230 C   0  0  2  0  0  0  0  0  0  0  0  0
    2.2031    3.4561   26.8314 O   0  0  0  0  0  0  0  0  0  0  0  0
   -3.1738   -1.1202   24.6031 C   0  0  2  0  0  0  0  0  0  0  0  0
   -4.1926   -0.6193   25.4702 O   0  0  0  0  0  0  0  0  0  0  0  0
    3.0762    5.4513   28.7600 C   0  0  2  0  0  0  0  0  0  0  0  0
    4.3901    6.0611   28.5815 O   0  0  0  0  0  0  0  0  0  0  0  0
    4.2722    4.9641   25.5058 C   0  0  2  0  0  0  0  0  0  0  0  0
    3.8267    3.6371   25.1223 O   0  0  0  0  0  0  0  0  0  0  0  0
    2.7639    1.6121   28.3329 C   0  0  0  0  0  0  0  0  0  0  0  0
    2.5291    0.2247   28.4987 O   0  0  0  0  0  0  0  0  0  0  0  0
   -1.9396   -1.5874   25.4355 C   0  0  1  0  0  0  0  0  0  0  0  0
   -1.2881   -0.4284   26.0393 O   0  0  0  0  0  0  0  0  0  0  0  0
    2.0372    6.5822   28.5909 C   0  0  0  0  0  0  0  0  0  0  0  0
    2.4728    7.5446   27.6456 O   0  0  0  0  0  0  0  0  0  0  0  0
    4.2564    5.8729   24.2376 C   0  0  1  0  0  0  0  0  0  0  0  0
    2.9033    6.0680   23.8292 O   0  0  0  0  0  0  0  0  0  0  0  0
   -2.3178   -2.5937   26.5524 C   0  0  0  0  0  0  0  0  0  0  0  0
   -3.0021   -1.9460   27.6860 N   0  0  0  0  0  0  0  0  0  0  0  0
  1  2  1  6  0  0  0
  1  7  1  0  0  0  0
  1 30  1  0  0  0  0
  3  4  1  6  0  0  0
  3  9  1  0  0  0  0
  3 39  1  0  0  0  0
  5 10  1  0  0  0  0
  5 26  1  0  0  0  0
  5 32  1  1  0  0  0
  6 12  1  0  0  0  0
  6 36  1  0  0  0  0
  6 19  1  1  0  0  0
  7  8  1  6  0  0  0
  7 14  1  0  0  0  0
  9 16  1  0  0  0  0
 10 11  1  6  0  0  0
 10 18  1  0  0  0  0
 12 13  1  1  0  0  0
 12 20  1  0  0  0  0
 14 15  1  1  0  0  0
 14 22  1  0  0  0  0
 16 17  1  6  0  0  0
 16 24  1  0  0  0  0
 18 19  1  6  0  0  0
 18 25  1  0  0  0  0
 20 21  1  6  0  0  0
 20 27  1  0  0  0  0
 22 23  1  6  0  0  0
 22 29  1  0  0  0  0
 24  2  1  1  0  0  0
 24 31  1  0  0  0  0
 25 26  1  0  0  0  0
 25 33  1  6  0  0  0
 27 28  1  1  0  0  0
 27 35  1  0  0  0  0
 29 30  1  0  0  0  0
 29 37  1  1  0  0  0
 31 32  1  6  0  0  0
 31 39  1  0  0  0  0
 33 34  1  0  0  0  0
 35 36  1  0  0  0  0
 35 41  1  1  0  0  0
 37 38  1  0  0  0  0
 39 40  1  1  0  0  0
 41 42  1  0  0  0  0
M  END
>  <CHROM.1>
-173.75277603,25.57377893,-53.92917833,-70.93773606,77.21142223,-166.69742060
67.11429967,-170.42484124,88.32930449,-156.98079961,-55.72694916,172.82462281
-38.67756706,63.55975652,154.33426511,135.31725714,-169.77539117,-54.89687895
-73.93570275,-60.95419417,74.12374247,-158.22125768,2.13325536,3.09753248
26.58790129,-0.04716104,0.72390418,1.95376005

>  <Name>
1fyp_lig

>  <RI>
0

>  <Rbt.Current_Directory>
/home/itssahil/PROJECTS/Mol_Feturizer/New_Systems/rnas/1fyp

>  <Rbt.Executable>
rbdock ($Id: //depot/dev/client3/rdock/2013.1/src/exe/rbdock.cxx#4 $)

>  <Rbt.Library>
libRbt.so (2013.1, Build901 2013/11/27)

>  <Rbt.Parameter_File>
/export/apps/rDock/src/rDock_2013.1_src/data/scripts/dock_solv.prm

>  <Rbt.Receptor>
prm/pocket_docking_4.prm

>  <SCORE>
-58.8795

>  <SCORE.INTER>
-53.6056

>  <SCORE.INTER.CONST>
1

>  <SCORE.INTER.POLAR>
-6.9771

>  <SCORE.INTER.ROT>
14

>  <SCORE.INTER.SOLV>
18.3916

>  <SCORE.INTER.VDW>
-31.544

>  <SCORE.INTER.norm>
-1.27632

>  <SCORE.INTRA>
-5.27386

>  <SCORE.INTRA.DIHEDRAL>
-22.8283

>  <SCORE.INTRA.DIHEDRAL.0>
48.7173

>  <SCORE.INTRA.POLAR>
1.48952

>  <SCORE.INTRA.POLAR.0>
-1.54691

>  <SCORE.INTRA.REPUL>
0

>  <SCORE.INTRA.REPUL.0>
0

>  <SCORE.INTRA.SOLV>
-0.611241

>  <SCORE.INTRA.SOLV.lig_0>
-64.052

>  <SCORE.INTRA.VDW>
1.38152

>  <SCORE.INTRA.VDW.0>
-7.0667

>  <SCORE.INTRA.norm>
-0.125568

>  <SCORE.RESTR>
0

>  <SCORE.RESTR.CAVITY>
0

>  <SCORE.RESTR.norm>
0

>  <SCORE.SYSTEM>
0

>  <SCORE.SYSTEM.CONST>
0

>  <SCORE.SYSTEM.DIHEDRAL>
0

>  <SCORE.SYSTEM.SOLV>
0

>  <SCORE.SYSTEM.norm>
0

>  <SCORE.heavy>
42

>  <SCORE.norm>
-1.40189

>  <RMSD>
3.514

$$$$
1fyp_lig
 OpenBabel11021811393D
libRbt.so/2013.1/901 2013/11/27
 42 45  0  0  0  0  0  0  0  0999 V2000
    6.7208    5.9564   30.1372 C   0  0  2  0  0  0  0  0  0  0  0  0
    7.0569    5.2526   28.9068 O   0  0  0  0  0  0  0  0  0  0  0  0
    4.6965    7.8088   26.4298 C   0  0  2  0  0  0  0  0  0  0  0  0
    4.1089    8.5999   25.3328 N   0  0  0  0  0  0  0  0  0  0  0  0
    3.8792    3.4810   26.4427 C   0  0  1  0  0  0  0  0  0  0  0  0
    0.8895    0.5515   24.8986 C   0  0  1  0  0  0  0  0  0  0  0  0
    7.1475    5.1391   31.3990 C   0  0  2  0  0  0  0  0  0  0  0  0
    8.5579    4.7060   31.3056 N   0  0  0  0  0  0  0  0  0  0  0  0
    6.1913    8.1589   26.5710 C   0  0  0  0  0  0  0  0  0  0  0  0
    4.1507    2.1022   25.8352 C   0  0  2  0  0  0  0  0  0  0  0  0
    4.3260    2.2289   24.4236 O   0  0  0  0  0  0  0  0  0  0  0  0
   -0.1399    0.9712   23.8053 C   0  0  2  0  0  0  0  0  0  0  0  0
   -0.7514    2.2956   24.0745 N   0  0  0  0  0  0  0  0  0  0  0  0
    6.2144    3.9048   31.6037 C   0  0  1  0  0  0  0  0  0  0  0  0
    6.5137    3.2620   32.8402 O   0  0  0  0  0  0  0  0  0  0  0  0
    6.8706    7.3795   27.7301 C   0  0  2  0  0  0  0  0  0  0  0  0
    8.3073    7.7254   27.7256 N   0  0  0  0  0  0  0  0  0  0  0  0
    2.8585    1.3521   26.1698 C   0  0  2  0  0  0  0  0  0  0  0  0
    1.8055    1.6345   25.2065 O   0  0  0  0  0  0  0  0  0  0  0  0
   -1.2295   -0.1289   23.6165 C   0  0  1  0  0  0  0  0  0  0  0  0
   -0.6439   -1.2343   22.9318 O   0  0  0  0  0  0  0  0  0  0  0  0
    4.7184    4.3076   31.6073 C   0  0  2  0  0  0  0  0  0  0  0  0
    3.9204    3.1318   31.7035 O   0  0  0  0  0  0  0  0  0  0  0  0
    6.6539    5.8267   27.6303 C   0  0  2  0  0  0  0  0  0  0  0  0
    2.4992    1.9284   27.5465 C   0  0  2  0  0  0  0  0  0  0  0  0
    2.9762    3.2879   27.5433 O   0  0  0  0  0  0  0  0  0  0  0  0
   -1.8441   -0.6514   24.9503 C   0  0  2  0  0  0  0  0  0  0  0  0
   -2.7083    0.3564   25.4778 O   0  0  0  0  0  0  0  0  0  0  0  0
    4.3697    5.1018   30.3166 C   0  0  2  0  0  0  0  0  0  0  0  0
    5.2811    6.2346   30.1911 O   0  0  0  0  0  0  0  0  0  0  0  0
    5.1612    5.4355   27.3322 C   0  0  2  0  0  0  0  0  0  0  0  0
    5.1317    4.0413   26.9297 O   0  0  0  0  0  0  0  0  0  0  0  0
    3.1337    1.1478   28.7113 C   0  0  0  0  0  0  0  0  0  0  0  0
    4.5480    1.1870   28.6345 O   0  0  0  0  0  0  0  0  0  0  0  0
   -0.7231   -0.9931   25.9804 C   0  0  1  0  0  0  0  0  0  0  0  0
    0.1800    0.1461   26.1183 O   0  0  0  0  0  0  0  0  0  0  0  0
    2.9375    5.6801   30.2779 C   0  0  0  0  0  0  0  0  0  0  0  0
    2.6790    6.3332   29.0466 O   0  0  0  0  0  0  0  0  0  0  0  0
    4.5242    6.2892   26.1921 C   0  0  1  0  0  0  0  0  0  0  0  0
    3.1330    5.9830   26.1115 O   0  0  0  0  0  0  0  0  0  0  0  0
   -1.2864   -1.3637   27.3763 C   0  0  0  0  0  0  0  0  0  0  0  0
   -1.4489   -2.8185   27.5500 N   0  0  0  0  0  0  0  0  0  0  0  0
  1  2  1  6  0  0  0
  1  7  1  0  0  0  0
  1 30  1  0  0  0  0
  3  4  1  6  0  0  0
  3  9  1  0  0  0  0
  3 39  1  0  0  0  0
  5 10  1  0  0  0  0
  5 26  1  0  0  0  0
  5 32  1  1  0  0  0
  6 12  1  0  0  0  0
  6 36  1  0  0  0  0
  6 19  1  1  0  0  0
  7  8  1  6  0  0  0
  7 14  1  0  0  0  0
  9 16  1  0  0  0  0
 10 11  1  6  0  0  0
 10 18  1  0  0  0  0
 12 13  1  1  0  0  0
 12 20  1  0  0  0  0
 14 15  1  1  0  0  0
 14 22  1  0  0  0  0
 16 17  1  6  0  0  0
 16 24  1  0  0  0  0
 18 19  1  6  0  0  0
 18 25  1  0  0  0  0
 20 21  1  1  0  0  0
 20 27  1  0  0  0  0
 22 23  1  6  0  0  0
 22 29  1  0  0  0  0
 24  2  1  1  0  0  0
 24 31  1  0  0  0  0
 25 26  1  0  0  0  0
 25 33  1  1  0  0  0
 27 28  1  1  0  0  0
 27 35  1  0  0  0  0
 29 30  1  0  0  0  0
 29 37  1  1  0  0  0
 31 32  1  6  0  0  0
 31 39  1  0  0  0  0
 33 34  1  0  0  0  0
 35 36  1  0  0  0  0
 35 41  1  1  0  0  0
 37 38  1  0  0  0  0
 39 40  1  1  0  0  0
 41 42  1  0  0  0  0
M  END
>  <CHROM.1>
176.05311941,39.62521586,80.22425186,84.26697685,95.79582581,-104.89959336
-76.61437546,-60.92768447,145.67661242,-177.23951232,-174.38802260,-45.14581691
61.39339915,63.81666023,-177.23947748,-172.67788379,169.28771468,74.50748958
94.52841512,-59.73578769,61.44670029,-165.29983214,3.35142706,3.35789992
27.49489907,-0.03129165,0.82385066,2.20524922

>  <Name>
1fyp_lig

>  <RI>
0

>  <Rbt.Current_Directory>
/home/itssahil/PROJECTS/Mol_Feturizer/New_Systems/rnas/1fyp

>  <Rbt.Executable>
rbdock ($Id: //depot/dev/client3/rdock/2013.1/src/exe/rbdock.cxx#4 $)

>  <Rbt.Library>
libRbt.so (2013.1, Build901 2013/11/27)

>  <Rbt.Parameter_File>
/export/apps/rDock/src/rDock_2013.1_src/data/scripts/dock_solv.prm

>  <Rbt.Receptor>
prm/pocket_docking_7.prm

>  <SCORE>
-49.3036

>  <SCORE.INTER>
-42.8394

>  <SCORE.INTER.CONST>
1

>  <SCORE.INTER.POLAR>
-6.21074

>  <SCORE.INTER.ROT>
14

>  <SCORE.INTER.SOLV>
19.0164

>  <SCORE.INTER.VDW>
-27.1293

>  <SCORE.INTER.norm>
-1.01999

>  <SCORE.INTRA>
-6.46413

>  <SCORE.INTRA.DIHEDRAL>
-26.0908

>  <SCORE.INTRA.DIHEDRAL.0>
48.7173

>  <SCORE.INTRA.POLAR>
1.36098

>  <SCORE.INTRA.POLAR.0>
-1.54691

>  <SCORE.INTRA.REPUL>
0

>  <SCORE.INTRA.REPUL.0>
0

>  <SCORE.INTRA.SOLV>
0.181246

>  <SCORE.INTRA.SOLV.lig_0>
-64.052

>  <SCORE.INTRA.VDW>
1.86329

>  <SCORE.INTRA.VDW.0>
-7.0667

>  <SCORE.INTRA.norm>
-0.153908

>  <SCORE.RESTR>
0

>  <SCORE.RESTR.CAVITY>
0

>  <SCORE.RESTR.norm>
0

>  <SCORE.SYSTEM>
0

>  <SCORE.SYSTEM.CONST>
0

>  <SCORE.SYSTEM.DIHEDRAL>
0

>  <SCORE.SYSTEM.SOLV>
0

>  <SCORE.SYSTEM.norm>
0

>  <SCORE.heavy>
42

>  <SCORE.norm>
-1.17389

>  <RMSD>
3.517

$$$$
1fyp_lig
 OpenBabel11021811393D
libRbt.so/2013.1/901 2013/11/27
 42 45  0  0  0  0  0  0  0  0999 V2000
    5.7770    4.0349   30.4400 C   0  0  2  0  0  0  0  0  0  0  0  0
    6.1112    5.2482   29.7061 O   0  0  0  0  0  0  0  0  0  0  0  0
    5.0777    6.7016   25.8254 C   0  0  2  0  0  0  0  0  0  0  0  0
    4.9517    6.9705   24.3810 N   0  0  0  0  0  0  0  0  0  0  0  0
    2.9425    3.1838   27.6583 C   0  0  1  0  0  0  0  0  0  0  0  0
   -0.4341    0.3499   27.4339 C   0  0  1  0  0  0  0  0  0  0  0  0
    5.1970    4.3624   31.8536 C   0  0  2  0  0  0  0  0  0  0  0  0
    4.0996    5.3493   31.7676 N   0  0  0  0  0  0  0  0  0  0  0  0
    6.5587    6.8092   26.2399 C   0  0  0  0  0  0  0  0  0  0  0  0
    2.7705    1.7264   28.0946 C   0  0  2  0  0  0  0  0  0  0  0  0
    2.9740    0.8655   26.9735 O   0  0  0  0  0  0  0  0  0  0  0  0
    0.1509   -0.7499   26.4961 C   0  0  2  0  0  0  0  0  0  0  0  0
    0.5420   -0.2190   25.1674 N   0  0  0  0  0  0  0  0  0  0  0  0
    6.3179    4.8809   32.8081 C   0  0  1  0  0  0  0  0  0  0  0  0
    5.8092    5.0236   34.1320 O   0  0  0  0  0  0  0  0  0  0  0  0
    6.7630    6.5637   27.7599 C   0  0  2  0  0  0  0  0  0  0  0  0
    8.2144    6.6091   28.0334 N   0  0  0  0  0  0  0  0  0  0  0  0
    1.3097    1.7066   28.5530 C   0  0  2  0  0  0  0  0  0  0  0  0
    0.3950    1.5412   27.4338 O   0  0  0  0  0  0  0  0  0  0  0  0
   -0.8389   -1.9476   26.3595 C   0  0  1  0  0  0  0  0  0  0  0  0
   -0.8243   -2.6892   27.5774 O   0  0  0  0  0  0  0  0  0  0  0  0
    7.5316    3.9189   32.8477 C   0  0  2  0  0  0  0  0  0  0  0  0
    8.5528    4.4917   33.6587 O   0  0  0  0  0  0  0  0  0  0  0  0
    6.1286    5.2126   28.2501 C   0  0  2  0  0  0  0  0  0  0  0  0
    1.1500    3.0990   29.1792 C   0  0  2  0  0  0  0  0  0  0  0  0
    2.0263    3.9695   28.4374 O   0  0  0  0  0  0  0  0  0  0  0  0
   -2.3102   -1.5267   26.0623 C   0  0  2  0  0  0  0  0  0  0  0  0
   -2.3907   -1.0829   24.7069 O   0  0  0  0  0  0  0  0  0  0  0  0
    8.0590    3.6550   31.4088 C   0  0  2  0  0  0  0  0  0  0  0  0
    6.9595    3.1770   30.5766 O   0  0  0  0  0  0  0  0  0  0  0  0
    4.6659    4.9951   27.7178 C   0  0  2  0  0  0  0  0  0  0  0  0
    4.3080    3.6056   27.9361 O   0  0  0  0  0  0  0  0  0  0  0  0
    1.5124    3.1328   30.6746 C   0  0  0  0  0  0  0  0  0  0  0  0
    2.8511    2.7163   30.8794 O   0  0  0  0  0  0  0  0  0  0  0  0
   -2.7674   -0.3908   27.0294 C   0  0  1  0  0  0  0  0  0  0  0  0
   -1.7938    0.6973   27.0029 O   0  0  0  0  0  0  0  0  0  0  0  0
    9.1793    2.5954   31.3127 C   0  0  0  0  0  0  0  0  0  0  0  0
   10.1538    2.7830   32.3249 O   0  0  0  0  0  0  0  0  0  0  0  0
    4.5195    5.3064   26.1959 C   0  0  1  0  0  0  0  0  0  0  0  0
    3.1376    5.2472   25.8459 O   0  0  0  0  0  0  0  0  0  0  0  0
   -4.1660    0.1733   26.6703 C   0  0  0  0  0  0  0  0  0  0  0  0
   -5.1563   -0.8907   26.4246 N   0  0  0  0  0  0  0  0  0  0  0  0
  1  2  1  1  0  0  0
  1  7  1  0  0  0  0
  1 30  1  0  0  0  0
  3  4  1  6  0  0  0
  3  9  1  0  0  0  0
  3 39  1  0  0  0  0
  5 10  1  0  0  0  0
  5 26  1  0  0  0  0
  5 32  1  1  0  0  0
  6 12  1  0  0  0  0
  6 36  1  0  0  0  0
  6 19  1  6  0  0  0
  7  8  1  6  0  0  0
  7 14  1  0  0  0  0
  9 16  1  0  0  0  0
 10 11  1  6  0  0  0
 10 18  1  0  0  0  0
 12 13  1  6  0  0  0
 12 20  1  0  0  0  0
 14 15  1  1  0  0  0
 14 22  1  0  0  0  0
 16 17  1  6  0  0  0
 16 24  1  0  0  0  0
 18 19  1  6  0  0  0
 18 25  1  0  0  0  0
 20 21  1  1  0  0  0
 20 27  1  0  0  0  0
 22 23  1  1  0  0  0
 22 29  1  0  0  0  0
 24  2  1  1  0  0  0
 24 31  1  0  0  0  0
 25 26  1  0  0  0  0
 25 33  1  1  0  0  0
 27 28  1  6  0  0  0
 27 35  1  0  0  0  0
 29 30  1  0  0  0  0
 29 37  1  1  0  0  0
 31 32  1  6  0  0  0
 31 39  1  0  0  0  0
 33 34  1  0  0  0  0
 35 36  1  0  0  0  0
 35 41  1  6  0  0  0
 37 38  1  0  0  0  0
 39 40  1  1  0  0  0
 41 42  1  0  0  0  0
M  END
>  <CHROM.1>
-154.79856951,-170.04846453,78.96601895,-80.55503648,178.46055741,172.79890669
-56.17266975,-85.99457481,117.92155018,-99.85124247,46.66167503,-178.77960350
58.77294565,70.27713476,-44.55148656,173.43004555,-174.33493300,-64.94852686
47.20002304,-175.33582196,-54.29798573,39.25481368,3.24301355,2.86560289
28.57586876,0.09150996,0.63650744,2.09841914

>  <Name>
1fyp_lig

>  <RI>
0

>  <Rbt.Current_Directory>
/home/itssahil/PROJECTS/Mol_Feturizer/New_Systems/rnas/1fyp

>  <Rbt.Executable>
rbdock ($Id: //depot/dev/client3/rdock/2013.1/src/exe/rbdock.cxx#4 $)

>  <Rbt.Library>
libRbt.so (2013.1, Build901 2013/11/27)

>  <Rbt.Parameter_File>
/export/apps/rDock/src/rDock_2013.1_src/data/scripts/dock_solv.prm

>  <Rbt.Receptor>
prm/pocket_docking_8.prm

>  <SCORE>
-39.4098

>  <SCORE.INTER>
-31.3515

>  <SCORE.INTER.CONST>
1

>  <SCORE.INTER.POLAR>
-3.99627

>  <SCORE.INTER.ROT>
14

>  <SCORE.INTER.SOLV>
11.2523

>  <SCORE.INTER.VDW>
-24.2642

>  <SCORE.INTER.norm>
-0.746463

>  <SCORE.INTRA>
-8.05838

>  <SCORE.INTRA.DIHEDRAL>
-26.1416

>  <SCORE.INTRA.DIHEDRAL.0>
48.7173

>  <SCORE.INTRA.POLAR>
0.663864

>  <SCORE.INTRA.POLAR.0>
-1.54691

>  <SCORE.INTRA.REPUL>
0

>  <SCORE.INTRA.REPUL.0>
0

>  <SCORE.INTRA.SOLV>
0.439749

>  <SCORE.INTRA.SOLV.lig_0>
-64.052

>  <SCORE.INTRA.VDW>
2.53539

>  <SCORE.INTRA.VDW.0>
-7.0667

>  <SCORE.INTRA.norm>
-0.191866

>  <SCORE.RESTR>
0

>  <SCORE.RESTR.CAVITY>
0

>  <SCORE.RESTR.norm>
0

>  <SCORE.SYSTEM>
0

>  <SCORE.SYSTEM.CONST>
0

>  <SCORE.SYSTEM.DIHEDRAL>
0

>  <SCORE.SYSTEM.SOLV>
0

>  <SCORE.SYSTEM.norm>
0

>  <SCORE.heavy>
42

>  <SCORE.norm>
-0.93833

>  <RMSD>
3.529

$$$$
1fyp_lig
 OpenBabel11021811393D
libRbt.so/2013.1/901 2013/11/27
 42 45  0  0  0  0  0  0  0  0999 V2000
    5.3773    5.2234   27.9730 C   0  0  2  0  0  0  0  0  0  0  0  0
    5.4076    4.3445   26.8116 O   0  0  0  0  0  0  0  0  0  0  0  0
    4.1040    7.3418   24.0625 C   0  0  2  0  0  0  0  0  0  0  0  0
    3.8449    8.1976   22.8899 N   0  0  0  0  0  0  0  0  0  0  0  0
    2.0888    3.1756   25.5289 C   0  0  1  0  0  0  0  0  0  0  0  0
   -1.0064    0.2904   26.9512 C   0  0  1  0  0  0  0  0  0  0  0  0
    5.1656    4.4177   29.2952 C   0  0  2  0  0  0  0  0  0  0  0  0
    6.1236    3.2965   29.3991 N   0  0  0  0  0  0  0  0  0  0  0  0
    5.6254    7.1897   24.2602 C   0  0  0  0  0  0  0  0  0  0  0  0
    1.7864    1.7577   25.0370 C   0  0  2  0  0  0  0  0  0  0  0  0
    0.7907    1.8095   24.0146 O   0  0  0  0  0  0  0  0  0  0  0  0
   -0.7438   -0.9992   26.1150 C   0  0  2  0  0  0  0  0  0  0  0  0
   -0.7127   -0.7373   24.6553 N   0  0  0  0  0  0  0  0  0  0  0  0
    3.7005    3.8892   29.3958 C   0  0  1  0  0  0  0  0  0  0  0  0
    3.4783    3.2960   30.6727 O   0  0  0  0  0  0  0  0  0  0  0  0
    5.9730    6.3195   25.4989 C   0  0  2  0  0  0  0  0  0  0  0  0
    7.4425    6.1715   25.5487 N   0  0  0  0  0  0  0  0  0  0  0  0
    1.2458    1.0940   26.3066 C   0  0  2  0  0  0  0  0  0  0  0  0
   -0.1645    1.3874   26.5104 O   0  0  0  0  0  0  0  0  0  0  0  0
   -1.7779   -2.1117   26.4698 C   0  0  1  0  0  0  0  0  0  0  0  0
   -1.4576   -2.6346   27.7572 O   0  0  0  0  0  0  0  0  0  0  0  0
    2.6638    5.0224   29.1919 C   0  0  2  0  0  0  0  0  0  0  0  0
    1.3543    4.4620   29.2020 O   0  0  0  0  0  0  0  0  0  0  0  0
    5.2558    4.9218   25.4830 C   0  0  2  0  0  0  0  0  0  0  0  0
    2.0976    1.7516   27.4012 C   0  0  2  0  0  0  0  0  0  0  0  0
    2.3883    3.0821   26.9308 O   0  0  0  0  0  0  0  0  0  0  0  0
   -3.2570   -1.6204   26.4971 C   0  0  2  0  0  0  0  0  0  0  0  0
   -3.6897   -1.4072   25.1524 O   0  0  0  0  0  0  0  0  0  0  0  0
    2.9313    5.7647   27.8519 C   0  0  2  0  0  0  0  0  0  0  0  0
    4.3157    6.2260   27.8289 O   0  0  0  0  0  0  0  0  0  0  0  0
    3.7273    5.0227   25.1314 C   0  0  2  0  0  0  0  0  0  0  0  0
    3.2481    3.6900   24.8140 O   0  0  0  0  0  0  0  0  0  0  0  0
    3.4064    0.9929   27.6843 C   0  0  0  0  0  0  0  0  0  0  0  0
    3.8928    1.2913   28.9812 O   0  0  0  0  0  0  0  0  0  0  0  0
   -3.3876   -0.3016   27.3205 C   0  0  1  0  0  0  0  0  0  0  0  0
   -2.4180    0.6771   26.8361 O   0  0  0  0  0  0  0  0  0  0  0  0
    2.0467    7.0084   27.6116 C   0  0  0  0  0  0  0  0  0  0  0  0
    1.3071    6.8894   26.4081 O   0  0  0  0  0  0  0  0  0  0  0  0
    3.4437    5.9505   23.9094 C   0  0  1  0  0  0  0  0  0  0  0  0
    2.0328    6.1143   23.7748 O   0  0  0  0  0  0  0  0  0  0  0  0
   -4.8085    0.3135   27.2434 C   0  0  0  0  0  0  0  0  0  0  0  0
   -5.0218    1.0848   26.0055 N   0  0  0  0  0  0  0  0  0  0  0  0
  1  2  1  6  0  0  0
  1  7  1  0  0  0  0
  1 30  1  0  0  0  0
  3  4  1  6  0  0  0
  3  9  1  0  0  0  0
  3 39  1  0  0  0  0
  5 10  1  0  0  0  0
  5 26  1  0  0  0  0
  5 32  1  6  0  0  0
  6 12  1  0  0  0  0
  6 36  1  0  0  0  0
  6 19  1  6  0  0  0
  7  8  1  6  0  0  0
  7 14  1  0  0  0  0
  9 16  1  0  0  0  0
 10 11  1  6  0  0  0
 10 18  1  0  0  0  0
 12 13  1  6  0  0  0
 12 20  1  0  0  0  0
 14 15  1  1  0  0  0
 14 22  1  0  0  0  0
 16 17  1  6  0  0  0
 16 24  1  0  0  0  0
 18 19  1  1  0  0  0
 18 25  1  0  0  0  0
 20 21  1  1  0  0  0
 20 27  1  0  0  0  0
 22 23  1  6  0  0  0
 22 29  1  0  0  0  0
 24  2  1  1  0  0  0
 24 31  1  0  0  0  0
 25 26  1  0  0  0  0
 25 33  1  6  0  0  0
 27 28  1  6  0  0  0
 27 35  1  0  0  0  0
 29 30  1  0  0  0  0
 29 37  1  1  0  0  0
 31 32  1  6  0  0  0
 31 39  1  0  0  0  0
 33 34  1  0  0  0  0
 35 36  1  0  0  0  0
 35 41  1  6  0  0  0
 37 38  1  0  0  0  0
 39 40  1  1  0  0  0
 41 42  1  0  0  0  0
M  END
>  <CHROM.1>
164.57812333,35.58320800,166.62001988,113.22184209,105.51219885,-89.69710384
-66.06986120,61.48055534,138.09580267,-46.63963084,174.22572846,-63.33542087
-157.43088322,-164.25674352,-122.08956448,126.21563406,-179.32799012,72.33374065
-80.80631267,164.08078344,-174.74048108,-111.31977023,1.81853575,3.07735403
26.58400322,-0.46343017,0.59304331,2.27118539

>  <Name>
1fyp_lig

>  <RI>
0

>  <Rbt.Current_Directory>
/home/itssahil/PROJECTS/Mol_Feturizer/New_Systems/rnas/1fyp

>  <Rbt.Executable>
rbdock ($Id: //depot/dev/client3/rdock/2013.1/src/exe/rbdock.cxx#4 $)

>  <Rbt.Library>
libRbt.so (2013.1, Build901 2013/11/27)

>  <Rbt.Parameter_File>
/export/apps/rDock/src/rDock_2013.1_src/data/scripts/dock_solv.prm

>  <Rbt.Receptor>
prm/pocket_docking_3.prm

>  <SCORE>
-63.1377

>  <SCORE.INTER>
-57.5275

>  <SCORE.INTER.CONST>
1

>  <SCORE.INTER.POLAR>
-7.76446

>  <SCORE.INTER.ROT>
14

>  <SCORE.INTER.SOLV>
17.1073

>  <SCORE.INTER.VDW>
-31.1059

>  <SCORE.INTER.norm>
-1.3697

>  <SCORE.INTRA>
-6.76554

>  <SCORE.INTRA.DIHEDRAL>
-7.28004

>  <SCORE.INTRA.DIHEDRAL.0>
48.7173

>  <SCORE.INTRA.POLAR>
-2.2745

>  <SCORE.INTRA.POLAR.0>
-1.54691

>  <SCORE.INTRA.REPUL>
0

>  <SCORE.INTRA.REPUL.0>
0

>  <SCORE.INTRA.SOLV>
4.39756

>  <SCORE.INTRA.SOLV.lig_0>
-64.052

>  <SCORE.INTRA.VDW>
2.409

>  <SCORE.INTRA.VDW.0>
-7.0667

>  <SCORE.INTRA.norm>
-0.161084

>  <SCORE.RESTR>
1.15531

>  <SCORE.RESTR.CAVITY>
1.15531

>  <SCORE.RESTR.norm>
0.0275074

>  <SCORE.SYSTEM>
0

>  <SCORE.SYSTEM.CONST>
0

>  <SCORE.SYSTEM.DIHEDRAL>
0

>  <SCORE.SYSTEM.SOLV>
0

>  <SCORE.SYSTEM.norm>
0

>  <SCORE.heavy>
42

>  <SCORE.norm>
-1.50328

>  <RMSD>
3.534

$$$$
1fyp_lig
 OpenBabel11021811393D
libRbt.so/2013.1/901 2013/11/27
 42 45  0  0  0  0  0  0  0  0999 V2000
    6.0988    6.0744   29.0354 C   0  0  2  0  0  0  0  0  0  0  0  0
    6.3739    4.9994   28.0915 O   0  0  0  0  0  0  0  0  0  0  0  0
    5.2949    7.3108   24.6661 C   0  0  2  0  0  0  0  0  0  0  0  0
    5.1414    7.8979   23.3221 N   0  0  0  0  0  0  0  0  0  0  0  0
    3.1077    3.4908   26.4553 C   0  0  1  0  0  0  0  0  0  0  0  0
   -0.6108    1.4239   25.8801 C   0  0  1  0  0  0  0  0  0  0  0  0
    7.0677    6.0225   30.2604 C   0  0  2  0  0  0  0  0  0  0  0  0
    8.4779    5.9340   29.8254 N   0  0  0  0  0  0  0  0  0  0  0  0
    6.7894    7.2772   25.0435 C   0  0  0  0  0  0  0  0  0  0  0  0
    2.6507    2.2851   25.6300 C   0  0  2  0  0  0  0  0  0  0  0  0
    1.9116    2.7367   24.4945 O   0  0  0  0  0  0  0  0  0  0  0  0
   -2.0437    1.7858   26.3770 C   0  0  2  0  0  0  0  0  0  0  0  0
   -2.1734    1.7084   27.8526 N   0  0  0  0  0  0  0  0  0  0  0  0
    6.7144    4.8262   31.1986 C   0  0  1  0  0  0  0  0  0  0  0  0
    7.4995    4.8848   32.3869 O   0  0  0  0  0  0  0  0  0  0  0  0
    7.0240    6.6936   26.4636 C   0  0  2  0  0  0  0  0  0  0  0  0
    8.4828    6.6317   26.6909 N   0  0  0  0  0  0  0  0  0  0  0  0
    1.7483    1.5486   26.6238 C   0  0  2  0  0  0  0  0  0  0  0  0
    0.4069    2.1109   26.6541 O   0  0  0  0  0  0  0  0  0  0  0  0
   -3.1172    0.9052   25.6662 C   0  0  1  0  0  0  0  0  0  0  0  0
   -3.2498    1.3516   24.3183 O   0  0  0  0  0  0  0  0  0  0  0  0
    5.2172    4.8289   31.5968 C   0  0  2  0  0  0  0  0  0  0  0  0
    4.9402    3.6667   32.3724 O   0  0  0  0  0  0  0  0  0  0  0  0
    6.3517    5.2879   26.6641 C   0  0  2  0  0  0  0  0  0  0  0  0
    2.4678    1.7969   27.9569 C   0  0  2  0  0  0  0  0  0  0  0  0
    3.0928    3.0893   27.8346 O   0  0  0  0  0  0  0  0  0  0  0  0
   -2.7796   -0.6165   25.6451 C   0  0  2  0  0  0  0  0  0  0  0  0
   -2.9702   -1.1423   26.9596 O   0  0  0  0  0  0  0  0  0  0  0  0
    4.3204    4.8660   30.3269 C   0  0  2  0  0  0  0  0  0  0  0  0
    4.7088    6.0044   29.5003 O   0  0  0  0  0  0  0  0  0  0  0  0
    4.8684    5.2399   26.1468 C   0  0  2  0  0  0  0  0  0  0  0  0
    4.4638    3.8485   26.0644 O   0  0  0  0  0  0  0  0  0  0  0  0
    3.5252    0.7263   28.2800 C   0  0  0  0  0  0  0  0  0  0  0  0
    3.5584    0.4525   29.6698 O   0  0  0  0  0  0  0  0  0  0  0  0
   -1.3093   -0.8513   25.1787 C   0  0  1  0  0  0  0  0  0  0  0  0
   -0.4046   -0.0266   25.9748 O   0  0  0  0  0  0  0  0  0  0  0  0
    2.8081    5.0170   30.6049 C   0  0  0  0  0  0  0  0  0  0  0  0
    2.3001    3.8976   31.3108 O   0  0  0  0  0  0  0  0  0  0  0  0
    4.6941    5.8863   24.7374 C   0  0  1  0  0  0  0  0  0  0  0  0
    3.3021    5.9495   24.4303 O   0  0  0  0  0  0  0  0  0  0  0  0
   -0.8749   -2.3349   25.2946 C   0  0  0  0  0  0  0  0  0  0  0  0
   -1.5636   -3.2011   24.3206 N   0  0  0  0  0  0  0  0  0  0  0  0
  1  2  1  6  0  0  0
  1  7  1  0  0  0  0
  1 30  1  0  0  0  0
  3  4  1  6  0  0  0
  3  9  1  0  0  0  0
  3 39  1  0  0  0  0
  5 10  1  0  0  0  0
  5 26  1  0  0  0  0
  5 32  1  6  0  0  0
  6 12  1  0  0  0  0
  6 36  1  0  0  0  0
  6 19  1  1  0  0  0
  7  8  1  6  0  0  0
  7 14  1  0  0  0  0
  9 16  1  0  0  0  0
 10 11  1  6  0  0  0
 10 18  1  0  0  0  0
 12 13  1  1  0  0  0
 12 20  1  0  0  0  0
 14 15  1  1  0  0  0
 14 22  1  0  0  0  0
 16 17  1  6  0  0  0
 16 24  1  0  0  0  0
 18 19  1  1  0  0  0
 18 25  1  0  0  0  0
 20 21  1  6  0  0  0
 20 27  1  0  0  0  0
 22 23  1  6  0  0  0
 22 29  1  0  0  0  0
 24  2  1  1  0  0  0
 24 31  1  0  0  0  0
 25 26  1  0  0  0  0
 25 33  1  6  0  0  0
 27 28  1  1  0  0  0
 27 35  1  0  0  0  0
 29 30  1  0  0  0  0
 29 37  1  1  0  0  0
 31 32  1  6  0  0  0
 31 39  1  0  0  0  0
 33 34  1  0  0  0  0
 35 36  1  0  0  0  0
 35 41  1  1  0  0  0
 37 38  1  0  0  0  0
 39 40  1  1  0  0  0
 41 42  1  0  0  0  0
M  END
>  <CHROM.1>
-138.20418302,39.89694731,177.42387014,27.18905055,-56.63924292,58.02559557
59.16038615,-54.12371738,98.81637776,159.68673421,60.43252687,-58.50262475
-143.59655266,-42.61174093,-63.94651666,141.10241090,149.17675275,87.59679410
69.27936765,178.36416947,-56.70157966,-170.25593725,2.94037123,3.32101533
27.35405617,0.07275987,0.68649492,1.90126160

>  <Name>
1fyp_lig

>  <RI>
0

>  <Rbt.Current_Directory>
/home/itssahil/PROJECTS/Mol_Feturizer/New_Systems/rnas/1fyp

>  <Rbt.Executable>
rbdock ($Id: //depot/dev/client3/rdock/2013.1/src/exe/rbdock.cxx#4 $)

>  <Rbt.Library>
libRbt.so (2013.1, Build901 2013/11/27)

>  <Rbt.Parameter_File>
/export/apps/rDock/src/rDock_2013.1_src/data/scripts/dock_solv.prm

>  <Rbt.Receptor>
prm/pocket_docking_7.prm

>  <SCORE>
-42.7529

>  <SCORE.INTER>
-36.7963

>  <SCORE.INTER.CONST>
1

>  <SCORE.INTER.POLAR>
-4.32638

>  <SCORE.INTER.ROT>
14

>  <SCORE.INTER.SOLV>
14.484

>  <SCORE.INTER.VDW>
-27.8709

>  <SCORE.INTER.norm>
-0.876102

>  <SCORE.INTRA>
-5.95666

>  <SCORE.INTRA.DIHEDRAL>
-14.5212

>  <SCORE.INTRA.DIHEDRAL.0>
48.7173

>  <SCORE.INTRA.POLAR>
-0.107671

>  <SCORE.INTRA.POLAR.0>
-1.54691

>  <SCORE.INTRA.REPUL>
0

>  <SCORE.INTRA.REPUL.0>
0

>  <SCORE.INTRA.SOLV>
-2.10246

>  <SCORE.INTRA.SOLV.lig_0>
-64.052

>  <SCORE.INTRA.VDW>
2.72123

>  <SCORE.INTRA.VDW.0>
-7.0667

>  <SCORE.INTRA.norm>
-0.141825

>  <SCORE.RESTR>
0

>  <SCORE.RESTR.CAVITY>
0

>  <SCORE.RESTR.norm>
0

>  <SCORE.SYSTEM>
0

>  <SCORE.SYSTEM.CONST>
0

>  <SCORE.SYSTEM.DIHEDRAL>
0

>  <SCORE.SYSTEM.SOLV>
0

>  <SCORE.SYSTEM.norm>
0

>  <SCORE.heavy>
42

>  <SCORE.norm>
-1.01793

>  <RMSD>
3.544

$$$$
1fyp_lig
 OpenBabel11021811393D
libRbt.so/2013.1/901 2013/11/27
 42 45  0  0  0  0  0  0  0  0999 V2000
    5.8797    6.3483   28.2266 C   0  0  2  0  0  0  0  0  0  0  0  0
    4.8581    6.4796   27.1964 O   0  0  0  0  0  0  0  0  0  0  0  0
    4.7017    8.0114   23.2127 C   0  0  2  0  0  0  0  0  0  0  0  0
    4.9273    8.3441   21.7939 N   0  0  0  0  0  0  0  0  0  0  0  0
    2.4635    4.2194   24.9110 C   0  0  1  0  0  0  0  0  0  0  0  0
   -0.8074    1.2039   24.9150 C   0  0  1  0  0  0  0  0  0  0  0  0
    6.7221    5.0461   28.0347 C   0  0  2  0  0  0  0  0  0  0  0  0
    7.2289    4.9345   26.6503 N   0  0  0  0  0  0  0  0  0  0  0  0
    5.9918    8.2784   24.0135 C   0  0  0  0  0  0  0  0  0  0  0  0
    2.4965    2.6912   24.9962 C   0  0  2  0  0  0  0  0  0  0  0  0
    2.4698    2.1392   23.6794 O   0  0  0  0  0  0  0  0  0  0  0  0
    0.0234   -0.0966   25.1377 C   0  0  2  0  0  0  0  0  0  0  0  0
    1.2030   -0.1816   24.2423 N   0  0  0  0  0  0  0  0  0  0  0  0
    5.8857    3.7825   28.4086 C   0  0  1  0  0  0  0  0  0  0  0  0
    6.7113    2.6208   28.3819 O   0  0  0  0  0  0  0  0  0  0  0  0
    5.8179    7.9742   25.5267 C   0  0  2  0  0  0  0  0  0  0  0  0
    7.1254    8.1839   26.1825 N   0  0  0  0  0  0  0  0  0  0  0  0
    1.1988    2.3911   25.7514 C   0  0  2  0  0  0  0  0  0  0  0  0
    0.0478    2.3754   24.8617 O   0  0  0  0  0  0  0  0  0  0  0  0
   -0.8796   -1.3619   25.0080 C   0  0  1  0  0  0  0  0  0  0  0  0
   -1.7081   -1.4483   26.1654 O   0  0  0  0  0  0  0  0  0  0  0  0
    5.2543    3.9058   29.8180 C   0  0  2  0  0  0  0  0  0  0  0  0
    4.4320    2.7683   30.0604 O   0  0  0  0  0  0  0  0  0  0  0  0
    5.2646    6.5292   25.7987 C   0  0  2  0  0  0  0  0  0  0  0  0
    1.1121    3.5746   26.7252 C   0  0  2  0  0  0  0  0  0  0  0  0
    1.7212    4.6905   26.0472 O   0  0  0  0  0  0  0  0  0  0  0  0
   -1.7989   -1.3612   23.7491 C   0  0  2  0  0  0  0  0  0  0  0  0
   -0.9915   -1.6086   22.5969 O   0  0  0  0  0  0  0  0  0  0  0  0
    4.4225    5.2154   29.9247 C   0  0  2  0  0  0  0  0  0  0  0  0
    5.2660    6.3489   29.5595 O   0  0  0  0  0  0  0  0  0  0  0  0
    4.0381    6.1622   24.8870 C   0  0  2  0  0  0  0  0  0  0  0  0
    3.8260    4.7289   24.9711 O   0  0  0  0  0  0  0  0  0  0  0  0
    1.8305    3.3107   28.0605 C   0  0  0  0  0  0  0  0  0  0  0  0
    3.1071    2.7360   27.8423 O   0  0  0  0  0  0  0  0  0  0  0  0
   -2.5397    0.0044   23.6048 C   0  0  1  0  0  0  0  0  0  0  0  0
   -1.5720    1.0962   23.6664 O   0  0  0  0  0  0  0  0  0  0  0  0
    3.8635    5.5159   31.3334 C   0  0  0  0  0  0  0  0  0  0  0  0
    2.4999    5.8988   31.2754 O   0  0  0  0  0  0  0  0  0  0  0  0
    4.2589    6.5389   23.3890 C   0  0  1  0  0  0  0  0  0  0  0  0
    3.0399    6.3284   22.6782 O   0  0  0  0  0  0  0  0  0  0  0  0
   -3.3413    0.1131   22.2824 C   0  0  0  0  0  0  0  0  0  0  0  0
   -4.6168   -0.6239   22.3347 N   0  0  0  0  0  0  0  0  0  0  0  0
  1  2  1  6  0  0  0
  1  7  1  0  0  0  0
  1 30  1  0  0  0  0
  3  4  1  6  0  0  0
  3  9  1  0  0  0  0
  3 39  1  0  0  0  0
  5 10  1  0  0  0  0
  5 26  1  0  0  0  0
  5 32  1  1  0  0  0
  6 12  1  0  0  0  0
  6 36  1  0  0  0  0
  6 19  1  6  0  0  0
  7  8  1  6  0  0  0
  7 14  1  0  0  0  0
  9 16  1  0  0  0  0
 10 11  1  6  0  0  0
 10 18  1  0  0  0  0
 12 13  1  6  0  0  0
 12 20  1  0  0  0  0
 14 15  1  1  0  0  0
 14 22  1  0  0  0  0
 16 17  1  1  0  0  0
 16 24  1  0  0  0  0
 18 19  1  6  0  0  0
 18 25  1  0  0  0  0
 20 21  1  1  0  0  0
 20 27  1  0  0  0  0
 22 23  1  6  0  0  0
 22 29  1  0  0  0  0
 24  2  1  1  0  0  0
 24 31  1  0  0  0  0
 25 26  1  0  0  0  0
 25 33  1  1  0  0  0
 27 28  1  6  0  0  0
 27 35  1  0  0  0  0
 29 30  1  0  0  0  0
 29 37  1  1  0  0  0
 31 32  1  6  0  0  0
 31 39  1  0  0  0  0
 33 34  1  0  0  0  0
 35 36  1  0  0  0  0
 35 41  1  6  0  0  0
 37 38  1  0  0  0  0
 39 40  1  6  0  0  0
 41 42  1  0  0  0  0
M  END
>  <CHROM.1>
-59.07164066,-77.17464872,44.31361094,147.51391967,179.06274654,-149.72274014
-177.78374262,144.32727723,127.82216018,-36.82024234,76.75996031,-51.79994213
45.64176760,-67.43319464,-133.93551217,145.44677132,179.11535518,-61.13479984
77.98871289,-70.71958514,-58.94569375,62.12366005,2.64006369,3.62673742,25.90228232
0.03990602,0.79497091,1.99010141

>  <Name>
1fyp_lig

>  <RI>
0

>  <Rbt.Current_Directory>
/home/itssahil/PROJECTS/Mol_Feturizer/New_Systems/rnas/1fyp

>  <Rbt.Executable>
rbdock ($Id: //depot/dev/client3/rdock/2013.1/src/exe/rbdock.cxx#4 $)

>  <Rbt.Library>
libRbt.so (2013.1, Build901 2013/11/27)

>  <Rbt.Parameter_File>
/export/apps/rDock/src/rDock_2013.1_src/data/scripts/dock_solv.prm

>  <Rbt.Receptor>
prm/blind_docking_60.prm

>  <SCORE>
-39.3954

>  <SCORE.INTER>
-34.0485

>  <SCORE.INTER.CONST>
1

>  <SCORE.INTER.POLAR>
-6.08534

>  <SCORE.INTER.ROT>
14

>  <SCORE.INTER.SOLV>
22.8601

>  <SCORE.INTER.VDW>
-22.9679

>  <SCORE.INTER.norm>
-0.810678

>  <SCORE.INTRA>
-5.69114

>  <SCORE.INTRA.DIHEDRAL>
-19.7801

>  <SCORE.INTRA.DIHEDRAL.0>
48.7173

>  <SCORE.INTRA.POLAR>
-0.471864

>  <SCORE.INTRA.POLAR.0>
-1.54691

>  <SCORE.INTRA.REPUL>
0

>  <SCORE.INTRA.REPUL.0>
0

>  <SCORE.INTRA.SOLV>
1.92083

>  <SCORE.INTRA.SOLV.lig_0>
-64.052

>  <SCORE.INTRA.VDW>
4.84281

>  <SCORE.INTRA.VDW.0>
-7.0667

>  <SCORE.INTRA.norm>
-0.135503

>  <SCORE.RESTR>
0.344242

>  <SCORE.RESTR.CAVITY>
0.344242

>  <SCORE.RESTR.norm>
0.00819624

>  <SCORE.SYSTEM>
0

>  <SCORE.SYSTEM.CONST>
0

>  <SCORE.SYSTEM.DIHEDRAL>
0

>  <SCORE.SYSTEM.SOLV>
0

>  <SCORE.SYSTEM.norm>
0

>  <SCORE.heavy>
42

>  <SCORE.norm>
-0.937985

>  <RMSD>
3.550

$$$$
1fyp_lig
 OpenBabel11021811393D
libRbt.so/2013.1/901 2013/11/27
 42 45  0  0  0  0  0  0  0  0999 V2000
    5.7950    5.5615   29.2187 C   0  0  2  0  0  0  0  0  0  0  0  0
    6.0538    4.4592   28.3020 O   0  0  0  0  0  0  0  0  0  0  0  0
    4.6171    6.5533   24.8681 C   0  0  2  0  0  0  0  0  0  0  0  0
    4.3424    7.0723   23.5155 N   0  0  0  0  0  0  0  0  0  0  0  0
    2.7094    2.7068   26.6371 C   0  0  1  0  0  0  0  0  0  0  0  0
   -0.5051    0.2248   25.7192 C   0  0  1  0  0  0  0  0  0  0  0  0
    6.0089    5.1315   30.7058 C   0  0  2  0  0  0  0  0  0  0  0  0
    7.3204    4.4748   30.8908 N   0  0  0  0  0  0  0  0  0  0  0  0
    6.1315    6.6262   25.1477 C   0  0  0  0  0  0  0  0  0  0  0  0
    2.5404    1.2610   26.1632 C   0  0  2  0  0  0  0  0  0  0  0  0
    2.0748    1.2526   24.8131 O   0  0  0  0  0  0  0  0  0  0  0  0
   -0.3643    0.7820   24.2698 C   0  0  2  0  0  0  0  0  0  0  0  0
   -0.7036    2.2229   24.1760 N   0  0  0  0  0  0  0  0  0  0  0  0
    4.8595    4.1896   31.1831 C   0  0  1  0  0  0  0  0  0  0  0  0
    4.9809    3.9348   32.5803 O   0  0  0  0  0  0  0  0  0  0  0  0
    6.4916    6.1189   26.5708 C   0  0  2  0  0  0  0  0  0  0  0  0
    7.9628    6.1550   26.7041 N   0  0  0  0  0  0  0  0  0  0  0  0
    1.4686    0.7392   27.1242 C   0  0  2  0  0  0  0  0  0  0  0  0
    0.1292    1.1013   26.6869 O   0  0  0  0  0  0  0  0  0  0  0  0
   -1.2042   -0.0652   23.2649 C   0  0  1  0  0  0  0  0  0  0  0  0
   -0.5484   -1.3160   23.0673 O   0  0  0  0  0  0  0  0  0  0  0  0
    3.4625    4.8030   30.9138 C   0  0  2  0  0  0  0  0  0  0  0  0
    2.4613    3.8599   31.2840 O   0  0  0  0  0  0  0  0  0  0  0  0
    5.9234    4.6848   26.8690 C   0  0  2  0  0  0  0  0  0  0  0  0
    1.8252    1.4653   28.4288 C   0  0  2  0  0  0  0  0  0  0  0  0
    2.3827    2.7344   28.0358 O   0  0  0  0  0  0  0  0  0  0  0  0
   -2.6632   -0.3484   23.7352 C   0  0  2  0  0  0  0  0  0  0  0  0
   -3.4205    0.8571   23.6173 O   0  0  0  0  0  0  0  0  0  0  0  0
    3.3223    5.1898   29.4141 C   0  0  2  0  0  0  0  0  0  0  0  0
    4.4285    6.0655   29.0407 O   0  0  0  0  0  0  0  0  0  0  0  0
    4.4164    4.5253   26.4524 C   0  0  2  0  0  0  0  0  0  0  0  0
    4.0960    3.1097   26.4504 O   0  0  0  0  0  0  0  0  0  0  0  0
    2.8340    0.6896   29.2944 C   0  0  0  0  0  0  0  0  0  0  0  0
    2.9004    1.2326   30.6015 O   0  0  0  0  0  0  0  0  0  0  0  0
   -2.6811   -0.8538   25.2113 C   0  0  1  0  0  0  0  0  0  0  0  0
   -1.9258    0.0685   26.0547 O   0  0  0  0  0  0  0  0  0  0  0  0
    2.0217    5.9437   29.0575 C   0  0  0  0  0  0  0  0  0  0  0  0
    1.9714    6.2588   27.6763 O   0  0  0  0  0  0  0  0  0  0  0  0
    4.1130    5.0994   25.0336 C   0  0  1  0  0  0  0  0  0  0  0  0
    2.7033    5.0652   24.8162 O   0  0  0  0  0  0  0  0  0  0  0  0
   -4.1172   -0.9959   25.7773 C   0  0  0  0  0  0  0  0  0  0  0  0
   -4.7656    0.3087   26.0023 N   0  0  0  0  0  0  0  0  0  0  0  0
  1  2  1  6  0  0  0
  1  7  1  0  0  0  0
  1 30  1  0  0  0  0
  3  4  1  6  0  0  0
  3  9  1  0  0  0  0
  3 39  1  0  0  0  0
  5 10  1  0  0  0  0
  5 26  1  0  0  0  0
  5 32  1  1  0  0  0
  6 12  1  0  0  0  0
  6 36  1  0  0  0  0
  6 19  1  1  0  0  0
  7  8  1  6  0  0  0
  7 14  1  0  0  0  0
  9 16  1  0  0  0  0
 10 11  1  6  0  0  0
 10 18  1  0  0  0  0
 12 13  1  1  0  0  0
 12 20  1  0  0  0  0
 14 15  1  1  0  0  0
 14 22  1  0  0  0  0
 16 17  1  6  0  0  0
 16 24  1  0  0  0  0
 18 19  1  6  0  0  0
 18 25  1  0  0  0  0
 20 21  1  1  0  0  0
 20 27  1  0  0  0  0
 22 23  1  6  0  0  0
 22 29  1  0  0  0  0
 24  2  1  1  0  0  0
 24 31  1  0  0  0  0
 25 26  1  0  0  0  0
 25 33  1  6  0  0  0
 27 28  1  1  0  0  0
 27 35  1  0  0  0  0
 29 30  1  0  0  0  0
 29 37  1  1  0  0  0
 31 32  1  6  0  0  0
 31 39  1  0  0  0  0
 33 34  1  0  0  0  0
 35 36  1  0  0  0  0
 35 41  1  1  0  0  0
 37 38  1  0  0  0  0
 39 40  1  1  0  0  0
 41 42  1  0  0  0  0
M  END
>  <CHROM.1>
-179.05793828,38.79340430,58.32136376,-28.06521663,152.49633702,-70.79708867
-173.72682958,-156.89153298,84.82763429,-98.32974518,61.75877410,-57.73232645
-166.68065524,-139.39280943,-179.99741682,155.38272163,162.12665701,67.14675142
-70.49575239,-55.98480590,165.57766856,-119.93918656,2.33951204,3.06129166
27.04252963,0.26778535,0.67332376,1.79907630

>  <Name>
1fyp_lig

>  <RI>
0

>  <Rbt.Current_Directory>
/home/itssahil/PROJECTS/Mol_Feturizer/New_Systems/rnas/1fyp

>  <Rbt.Executable>
rbdock ($Id: //depot/dev/client3/rdock/2013.1/src/exe/rbdock.cxx#4 $)

>  <Rbt.Library>
libRbt.so (2013.1, Build901 2013/11/27)

>  <Rbt.Parameter_File>
/export/apps/rDock/src/rDock_2013.1_src/data/scripts/dock_solv.prm

>  <Rbt.Receptor>
prm/blind_docking_80.prm

>  <SCORE>
-52.3683

>  <SCORE.INTER>
-46.7128

>  <SCORE.INTER.CONST>
1

>  <SCORE.INTER.POLAR>
-5.64592

>  <SCORE.INTER.ROT>
14

>  <SCORE.INTER.SOLV>
15.1906

>  <SCORE.INTER.VDW>
-30.319

>  <SCORE.INTER.norm>
-1.11221

>  <SCORE.INTRA>
-6.68789

>  <SCORE.INTRA.DIHEDRAL>
-18.891

>  <SCORE.INTRA.DIHEDRAL.0>
48.7173

>  <SCORE.INTRA.POLAR>
-0.633982

>  <SCORE.INTRA.POLAR.0>
-1.54691

>  <SCORE.INTRA.REPUL>
0

>  <SCORE.INTRA.REPUL.0>
0

>  <SCORE.INTRA.SOLV>
2.57716

>  <SCORE.INTRA.SOLV.lig_0>
-64.052

>  <SCORE.INTRA.VDW>
3.6246

>  <SCORE.INTRA.VDW.0>
-7.0667

>  <SCORE.INTRA.norm>
-0.159235

>  <SCORE.RESTR>
1.03239

>  <SCORE.RESTR.CAVITY>
1.03239

>  <SCORE.RESTR.norm>
0.0245806

>  <SCORE.SYSTEM>
0

>  <SCORE.SYSTEM.CONST>
0

>  <SCORE.SYSTEM.DIHEDRAL>
0

>  <SCORE.SYSTEM.SOLV>
0

>  <SCORE.SYSTEM.norm>
0

>  <SCORE.heavy>
42

>  <SCORE.norm>
-1.24686

>  <RMSD>
3.594

$$$$
1fyp_lig
 OpenBabel11021811393D
libRbt.so/2013.1/901 2013/11/27
 42 45  0  0  0  0  0  0  0  0999 V2000
    5.0883    6.0158   28.7383 C   0  0  2  0  0  0  0  0  0  0  0  0
    4.9408    4.8970   27.8170 O   0  0  0  0  0  0  0  0  0  0  0  0
    3.4075    7.2434   24.5946 C   0  0  2  0  0  0  0  0  0  0  0  0
    2.7935    7.7464   23.3518 N   0  0  0  0  0  0  0  0  0  0  0  0
    1.5011    4.0588   27.0300 C   0  0  1  0  0  0  0  0  0  0  0  0
    0.0706   -0.0150   26.4586 C   0  0  1  0  0  0  0  0  0  0  0  0
    6.5182    6.0544   29.3676 C   0  0  2  0  0  0  0  0  0  0  0  0
    7.5647    5.9749   28.3264 N   0  0  0  0  0  0  0  0  0  0  0  0
    4.4900    6.2022   24.2470 C   0  0  0  0  0  0  0  0  0  0  0  0
    2.0497    2.9139   27.8856 C   0  0  2  0  0  0  0  0  0  0  0  0
    3.2502    2.4116   27.2975 O   0  0  0  0  0  0  0  0  0  0  0  0
    0.2018   -0.7131   25.0706 C   0  0  2  0  0  0  0  0  0  0  0  0
    0.2276    0.2529   23.9453 N   0  0  0  0  0  0  0  0  0  0  0  0
    6.6997    4.9039   30.4066 C   0  0  1  0  0  0  0  0  0  0  0  0
    7.9449    5.0464   31.0855 O   0  0  0  0  0  0  0  0  0  0  0  0
    5.2002    5.6478   25.5123 C   0  0  2  0  0  0  0  0  0  0  0  0
    6.1539    4.6071   25.0752 N   0  0  0  0  0  0  0  0  0  0  0  0
    0.9168    1.8875   27.7997 C   0  0  2  0  0  0  0  0  0  0  0  0
    0.9976    1.0949   26.5824 O   0  0  0  0  0  0  0  0  0  0  0  0
   -0.9197   -1.7798   24.8770 C   0  0  1  0  0  0  0  0  0  0  0  0
   -0.6220   -2.9054   25.7004 O   0  0  0  0  0  0  0  0  0  0  0  0
    5.5631    4.8936   31.4594 C   0  0  2  0  0  0  0  0  0  0  0  0
    5.7345    3.7700   32.3178 O   0  0  0  0  0  0  0  0  0  0  0  0
    4.1934    5.0908   26.5820 C   0  0  2  0  0  0  0  0  0  0  0  0
   -0.3290    2.7842   27.7782 C   0  0  2  0  0  0  0  0  0  0  0  0
    0.0680    3.9972   27.1097 O   0  0  0  0  0  0  0  0  0  0  0  0
   -2.3487   -1.2740   25.2403 C   0  0  2  0  0  0  0  0  0  0  0  0
   -2.7868   -0.3777   24.2179 O   0  0  0  0  0  0  0  0  0  0  0  0
    4.1767    4.8396   30.7572 C   0  0  2  0  0  0  0  0  0  0  0  0
    4.0810    5.9392   29.8025 O   0  0  0  0  0  0  0  0  0  0  0  0
    2.9874    6.0621   26.8510 C   0  0  2  0  0  0  0  0  0  0  0  0
    1.9676    5.3257   27.5750 O   0  0  0  0  0  0  0  0  0  0  0  0
   -0.8645    3.1062   29.1847 C   0  0  0  0  0  0  0  0  0  0  0  0
    0.1986    3.3919   30.0768 O   0  0  0  0  0  0  0  0  0  0  0  0
   -2.3460   -0.5531   26.6240 C   0  0  1  0  0  0  0  0  0  0  0  0
   -1.3032    0.4691   26.6425 O   0  0  0  0  0  0  0  0  0  0  0  0
    2.9637    4.9703   31.7052 C   0  0  0  0  0  0  0  0  0  0  0  0
    2.9512    3.9330   32.6714 O   0  0  0  0  0  0  0  0  0  0  0  0
    2.3520    6.6210   25.5401 C   0  0  1  0  0  0  0  0  0  0  0  0
    1.3881    7.6150   25.8846 O   0  0  0  0  0  0  0  0  0  0  0  0
   -3.7081    0.1082   26.9565 C   0  0  0  0  0  0  0  0  0  0  0  0
   -4.6415   -0.8246   27.6135 N   0  0  0  0  0  0  0  0  0  0  0  0
  1  2  1  6  0  0  0
  1  7  1  0  0  0  0
  1 30  1  0  0  0  0
  3  4  1  6  0  0  0
  3  9  1  0  0  0  0
  3 39  1  0  0  0  0
  5 10  1  0  0  0  0
  5 26  1  0  0  0  0
  5 32  1  1  0  0  0
  6 12  1  0  0  0  0
  6 36  1  0  0  0  0
  6 19  1  6  0  0  0
  7  8  1  6  0  0  0
  7 14  1  0  0  0  0
  9 16  1  0  0  0  0
 10 11  1  6  0  0  0
 10 18  1  0  0  0  0
 12 13  1  6  0  0  0
 12 20  1  0  0  0  0
 14 15  1  1  0  0  0
 14 22  1  0  0  0  0
 16 17  1  6  0  0  0
 16 24  1  0  0  0  0
 18 19  1  6  0  0  0
 18 25  1  0  0  0  0
 20 21  1  1  0  0  0
 20 27  1  0  0  0  0
 22 23  1  1  0  0  0
 22 29  1  0  0  0  0
 24  2  1  1  0  0  0
 24 31  1  0  0  0  0
 25 26  1  0  0  0  0
 25 33  1  1  0  0  0
 27 28  1  6  0  0  0
 27 35  1  0  0  0  0
 29 30  1  0  0  0  0
 29 37  1  1  0  0  0
 31 32  1  6  0  0  0
 31 39  1  0  0  0  0
 33 34  1  0  0  0  0
 35 36  1  0  0  0  0
 35 41  1  6  0  0  0
 37 38  1  0  0  0  0
 39 40  1  1  0  0  0
 41 42  1  0  0  0  0
M  END
>  <CHROM.1>
-140.74123099,86.54422793,-47.15394799,151.43753679,80.84276924,-164.38966254
65.66733934,33.97720773,173.09496366,176.11798077,-159.54000395,-59.38085981
41.91992289,60.27448381,-59.67262452,-52.70201706,107.51746372,172.40633838
86.93173991,59.80492463,51.82073002,-32.47337238,2.11162900,3.35261838,27.48976806
-0.06867171,-0.74935988,-1.21509992

>  <Name>
1fyp_lig

>  <RI>
0

>  <Rbt.Current_Directory>
/home/itssahil/PROJECTS/Mol_Feturizer/New_Systems/rnas/1fyp

>  <Rbt.Executable>
rbdock ($Id: //depot/dev/client3/rdock/2013.1/src/exe/rbdock.cxx#4 $)

>  <Rbt.Library>
libRbt.so (2013.1, Build901 2013/11/27)

>  <Rbt.Parameter_File>
/export/apps/rDock/src/rDock_2013.1_src/data/scripts/dock_solv.prm

>  <Rbt.Receptor>
prm/pocket_docking_7.prm

>  <SCORE>
-39.908

>  <SCORE.INTER>
-33.8103

>  <SCORE.INTER.CONST>
1

>  <SCORE.INTER.POLAR>
-4.51687

>  <SCORE.INTER.ROT>
14

>  <SCORE.INTER.SOLV>
14.4737

>  <SCORE.INTER.VDW>
-25.2419

>  <SCORE.INTER.norm>
-0.805007

>  <SCORE.INTRA>
-6.09771

>  <SCORE.INTRA.DIHEDRAL>
-21.2243

>  <SCORE.INTRA.DIHEDRAL.0>
48.7173

>  <SCORE.INTRA.POLAR>
0.194597

>  <SCORE.INTRA.POLAR.0>
-1.54691

>  <SCORE.INTRA.REPUL>
0

>  <SCORE.INTRA.REPUL.0>
0

>  <SCORE.INTRA.SOLV>
-0.499137

>  <SCORE.INTRA.SOLV.lig_0>
-64.052

>  <SCORE.INTRA.VDW>
4.10241

>  <SCORE.INTRA.VDW.0>
-7.0667

>  <SCORE.INTRA.norm>
-0.145184

>  <SCORE.RESTR>
0

>  <SCORE.RESTR.CAVITY>
0

>  <SCORE.RESTR.norm>
0

>  <SCORE.SYSTEM>
0

>  <SCORE.SYSTEM.CONST>
0

>  <SCORE.SYSTEM.DIHEDRAL>
0

>  <SCORE.SYSTEM.SOLV>
0

>  <SCORE.SYSTEM.norm>
0

>  <SCORE.heavy>
42

>  <SCORE.norm>
-0.950191

>  <RMSD>
3.603

$$$$
1fyp_lig
 OpenBabel11021811393D
libRbt.so/2013.1/901 2013/11/27
 42 45  0  0  0  0  0  0  0  0999 V2000
    5.5959    6.2546   28.5314 C   0  0  2  0  0  0  0  0  0  0  0  0
    5.8867    5.1924   27.5777 O   0  0  0  0  0  0  0  0  0  0  0  0
    4.6709    7.5046   24.1990 C   0  0  2  0  0  0  0  0  0  0  0  0
    4.4616    8.0905   22.8620 N   0  0  0  0  0  0  0  0  0  0  0  0
    2.4818    3.7505   25.3763 C   0  0  1  0  0  0  0  0  0  0  0  0
   -1.2055    1.3281   24.7116 C   0  0  1  0  0  0  0  0  0  0  0  0
    5.9145    5.8120   29.9959 C   0  0  2  0  0  0  0  0  0  0  0  0
    7.2774    5.2490   30.1015 N   0  0  0  0  0  0  0  0  0  0  0  0
    6.1803    7.4628   24.5101 C   0  0  0  0  0  0  0  0  0  0  0  0
    2.3153    2.2374   25.2137 C   0  0  2  0  0  0  0  0  0  0  0  0
    2.3645    1.8982   23.8273 O   0  0  0  0  0  0  0  0  0  0  0  0
   -2.3323    1.6275   25.7469 C   0  0  2  0  0  0  0  0  0  0  0  0
   -1.8036    1.8837   27.1089 N   0  0  0  0  0  0  0  0  0  0  0  0
    4.8611    4.7797   30.5065 C   0  0  1  0  0  0  0  0  0  0  0  0
    5.0705    4.5069   31.8898 O   0  0  0  0  0  0  0  0  0  0  0  0
    6.4740    6.8802   25.9196 C   0  0  2  0  0  0  0  0  0  0  0  0
    7.9411    6.8100   26.0823 N   0  0  0  0  0  0  0  0  0  0  0  0
    0.9156    2.0119   25.7920 C   0  0  2  0  0  0  0  0  0  0  0  0
   -0.1241    2.2909   24.8133 O   0  0  0  0  0  0  0  0  0  0  0  0
   -3.3956    0.4863   25.7565 C   0  0  1  0  0  0  0  0  0  0  0  0
   -4.1783    0.5858   24.5686 O   0  0  0  0  0  0  0  0  0  0  0  0
    3.4119    5.2949   30.3199 C   0  0  2  0  0  0  0  0  0  0  0  0
    2.5009    4.2743   30.7163 O   0  0  0  0  0  0  0  0  0  0  0  0
    5.8031    5.4787   26.1521 C   0  0  2  0  0  0  0  0  0  0  0  0
    0.8705    3.0364   26.9342 C   0  0  2  0  0  0  0  0  0  0  0  0
    1.6839    4.1450   26.5040 O   0  0  0  0  0  0  0  0  0  0  0  0
   -2.7890   -0.9481   25.8222 C   0  0  2  0  0  0  0  0  0  0  0  0
   -2.2886   -1.1697   27.1417 O   0  0  0  0  0  0  0  0  0  0  0  0
    3.1692    5.7000   28.8383 C   0  0  2  0  0  0  0  0  0  0  0  0
    4.1895    6.6611   28.4320 O   0  0  0  0  0  0  0  0  0  0  0  0
    4.2982    5.4387   25.7010 C   0  0  2  0  0  0  0  0  0  0  0  0
    3.8823    4.0495   25.6390 O   0  0  0  0  0  0  0  0  0  0  0  0
    1.4001    2.4774   28.2668 C   0  0  0  0  0  0  0  0  0  0  0  0
    1.4661    1.0625   28.2304 O   0  0  0  0  0  0  0  0  0  0  0  0
   -1.6429   -1.1134   24.7764 C   0  0  1  0  0  0  0  0  0  0  0  0
   -0.6804   -0.0257   24.9277 O   0  0  0  0  0  0  0  0  0  0  0  0
    1.8016    6.3641   28.5631 C   0  0  0  0  0  0  0  0  0  0  0  0
    1.7652    6.9530   27.2742 O   0  0  0  0  0  0  0  0  0  0  0  0
    4.0655    6.0838   24.2994 C   0  0  1  0  0  0  0  0  0  0  0  0
    2.6618    6.1547   24.0539 O   0  0  0  0  0  0  0  0  0  0  0  0
   -0.9008   -2.4677   24.9115 C   0  0  0  0  0  0  0  0  0  0  0  0
   -1.6422   -3.5805   24.2909 N   0  0  0  0  0  0  0  0  0  0  0  0
  1  2  1  6  0  0  0
  1  7  1  0  0  0  0
  1 30  1  0  0  0  0
  3  4  1  6  0  0  0
  3  9  1  0  0  0  0
  3 39  1  0  0  0  0
  5 10  1  0  0  0  0
  5 26  1  0  0  0  0
  5 32  1  1  0  0  0
  6 12  1  0  0  0  0
  6 36  1  0  0  0  0
  6 19  1  1  0  0  0
  7  8  1  6  0  0  0
  7 14  1  0  0  0  0
  9 16  1  0  0  0  0
 10 11  1  6  0  0  0
 10 18  1  0  0  0  0
 12 13  1  1  0  0  0
 12 20  1  0  0  0  0
 14 15  1  1  0  0  0
 14 22  1  0  0  0  0
 16 17  1  6  0  0  0
 16 24  1  0  0  0  0
 18 19  1  6  0  0  0
 18 25  1  0  0  0  0
 20 21  1  6  0  0  0
 20 27  1  0  0  0  0
 22 23  1  6  0  0  0
 22 29  1  0  0  0  0
 24  2  1  1  0  0  0
 24 31  1  0  0  0  0
 25 26  1  0  0  0  0
 25 33  1  1  0  0  0
 27 28  1  1  0  0  0
 27 35  1  0  0  0  0
 29 30  1  0  0  0  0
 29 37  1  1  0  0  0
 31 32  1  6  0  0  0
 31 39  1  0  0  0  0
 33 34  1  0  0  0  0
 35 36  1  0  0  0  0
 35 41  1  1  0  0  0
 37 38  1  0  0  0  0
 39 40  1  1  0  0  0
 41 42  1  0  0  0  0
M  END
>  <CHROM.1>
-172.69861426,42.85971414,-172.48898962,56.37317043,-61.05414480,162.44400142
-175.25205312,66.35744259,134.88758608,85.97384638,-64.15935418,-178.91727469
-15.92925017,173.49816063,167.65322788,173.75801421,174.16754999,-87.84562566
79.54629242,177.72077950,52.41580674,51.80450460,2.17141712,3.56464851,26.60584212
0.05529830,0.76303588,1.79326057

>  <Name>
1fyp_lig

>  <RI>
0

>  <Rbt.Current_Directory>
/home/itssahil/PROJECTS/Mol_Feturizer/New_Systems/rnas/1fyp

>  <Rbt.Executable>
rbdock ($Id: //depot/dev/client3/rdock/2013.1/src/exe/rbdock.cxx#4 $)

>  <Rbt.Library>
libRbt.so (2013.1, Build901 2013/11/27)

>  <Rbt.Parameter_File>
/export/apps/rDock/src/rDock_2013.1_src/data/scripts/dock_solv.prm

>  <Rbt.Receptor>
prm/blind_docking_80.prm

>  <SCORE>
-40.5195

>  <SCORE.INTER>
-33.4053

>  <SCORE.INTER.CONST>
1

>  <SCORE.INTER.POLAR>
-3.82488

>  <SCORE.INTER.ROT>
14

>  <SCORE.INTER.SOLV>
13.136

>  <SCORE.INTER.VDW>
-26.8326

>  <SCORE.INTER.norm>
-0.795363

>  <SCORE.INTRA>
-7.11573

>  <SCORE.INTRA.DIHEDRAL>
-26.473

>  <SCORE.INTRA.DIHEDRAL.0>
48.7173

>  <SCORE.INTRA.POLAR>
1.08793

>  <SCORE.INTRA.POLAR.0>
-1.54691

>  <SCORE.INTRA.REPUL>
0.0833323

>  <SCORE.INTRA.REPUL.0>
0

>  <SCORE.INTRA.SOLV>
0.350015

>  <SCORE.INTRA.SOLV.lig_0>
-64.052

>  <SCORE.INTRA.VDW>
1.83013

>  <SCORE.INTRA.VDW.0>
-7.0667

>  <SCORE.INTRA.norm>
-0.169422

>  <SCORE.RESTR>
0.00147001

>  <SCORE.RESTR.CAVITY>
0.00147001

>  <SCORE.RESTR.norm>
3.50003e-05

>  <SCORE.SYSTEM>
0

>  <SCORE.SYSTEM.CONST>
0

>  <SCORE.SYSTEM.DIHEDRAL>
0

>  <SCORE.SYSTEM.SOLV>
0

>  <SCORE.SYSTEM.norm>
0

>  <SCORE.heavy>
42

>  <SCORE.norm>
-0.96475

>  <RMSD>
3.624

$$$$
1fyp_lig
 OpenBabel11021811393D
libRbt.so/2013.1/901 2013/11/27
 42 45  0  0  0  0  0  0  0  0999 V2000
    6.2325    6.1966   25.2493 C   0  0  2  0  0  0  0  0  0  0  0  0
    5.6043    6.4962   26.5291 O   0  0  0  0  0  0  0  0  0  0  0  0
    1.8884    6.9377   28.5878 C   0  0  2  0  0  0  0  0  0  0  0  0
    0.4719    7.0150   28.9904 N   0  0  0  0  0  0  0  0  0  0  0  0
    2.9492    3.3237   26.6716 C   0  0  1  0  0  0  0  0  0  0  0  0
    0.1397    0.4447   25.2141 C   0  0  1  0  0  0  0  0  0  0  0  0
    7.6982    5.6877   25.4364 C   0  0  2  0  0  0  0  0  0  0  0  0
    7.7625    4.5890   26.4235 N   0  0  0  0  0  0  0  0  0  0  0  0
    2.1272    7.8563   27.3729 C   0  0  0  0  0  0  0  0  0  0  0  0
    3.5031    2.0561   26.0158 C   0  0  2  0  0  0  0  0  0  0  0  0
    3.7807    2.3134   24.6388 O   0  0  0  0  0  0  0  0  0  0  0  0
    0.1540   -0.6989   24.1543 C   0  0  2  0  0  0  0  0  0  0  0  0
    0.5292   -0.2198   22.8015 N   0  0  0  0  0  0  0  0  0  0  0  0
    8.6420    6.8552   25.8633 C   0  0  1  0  0  0  0  0  0  0  0  0
    9.9969    6.4127   25.8753 O   0  0  0  0  0  0  0  0  0  0  0  0
    3.6099    7.8454   26.9102 C   0  0  2  0  0  0  0  0  0  0  0  0
    3.7115    8.6881   25.7006 N   0  0  0  0  0  0  0  0  0  0  0  0
    2.3315    1.0832   26.1745 C   0  0  2  0  0  0  0  0  0  0  0  0
    1.3368    1.2609   25.1278 O   0  0  0  0  0  0  0  0  0  0  0  0
   -1.2120   -1.4517   24.1308 C   0  0  1  0  0  0  0  0  0  0  0  0
   -1.3044   -2.2600   25.3020 O   0  0  0  0  0  0  0  0  0  0  0  0
    8.5282    8.0678   24.9058 C   0  0  2  0  0  0  0  0  0  0  0  0
    9.3397    9.1287   25.4004 O   0  0  0  0  0  0  0  0  0  0  0  0
    4.1560    6.3959   26.6474 C   0  0  2  0  0  0  0  0  0  0  0  0
    1.7578    1.4902   27.5389 C   0  0  2  0  0  0  0  0  0  0  0  0
    1.9967    2.9057   27.6624 O   0  0  0  0  0  0  0  0  0  0  0  0
   -2.4555   -0.5128   24.0869 C   0  0  2  0  0  0  0  0  0  0  0  0
   -2.5503    0.0544   22.7792 O   0  0  0  0  0  0  0  0  0  0  0  0
    7.0462    8.5230   24.7843 C   0  0  2  0  0  0  0  0  0  0  0  0
    6.2268    7.3830   24.3859 O   0  0  0  0  0  0  0  0  0  0  0  0
    3.7968    5.3888   27.7992 C   0  0  2  0  0  0  0  0  0  0  0  0
    4.0401    4.0427   27.3140 O   0  0  0  0  0  0  0  0  0  0  0  0
    2.4078    0.7394   28.7146 C   0  0  0  0  0  0  0  0  0  0  0  0
    2.1094    1.3738   29.9459 O   0  0  0  0  0  0  0  0  0  0  0  0
   -2.3349    0.6167   25.1566 C   0  0  1  0  0  0  0  0  0  0  0  0
   -1.0456    1.2883   25.0175 O   0  0  0  0  0  0  0  0  0  0  0  0
    6.7926    9.6354   23.7425 C   0  0  0  0  0  0  0  0  0  0  0  0
    5.4140    9.9529   23.6534 O   0  0  0  0  0  0  0  0  0  0  0  0
    2.3062    5.4862   28.2500 C   0  0  1  0  0  0  0  0  0  0  0  0
    2.1204    4.6656   29.4023 O   0  0  0  0  0  0  0  0  0  0  0  0
   -3.4677    1.6690   25.0455 C   0  0  0  0  0  0  0  0  0  0  0  0
   -4.1509    1.8990   26.3313 N   0  0  0  0  0  0  0  0  0  0  0  0
  1  2  1  1  0  0  0
  1  7  1  0  0  0  0
  1 30  1  0  0  0  0
  3  4  1  6  0  0  0
  3  9  1  0  0  0  0
  3 39  1  0  0  0  0
  5 10  1  0  0  0  0
  5 26  1  0  0  0  0
  5 32  1  1  0  0  0
  6 12  1  0  0  0  0
  6 36  1  0  0  0  0
  6 19  1  6  0  0  0
  7  8  1  1  0  0  0
  7 14  1  0  0  0  0
  9 16  1  0  0  0  0
 10 11  1  6  0  0  0
 10 18  1  0  0  0  0
 12 13  1  6  0  0  0
 12 20  1  0  0  0  0
 14 15  1  6  0  0  0
 14 22  1  0  0  0  0
 16 17  1  6  0  0  0
 16 24  1  0  0  0  0
 18 19  1  6  0  0  0
 18 25  1  0  0  0  0
 20 21  1  1  0  0  0
 20 27  1  0  0  0  0
 22 23  1  1  0  0  0
 22 29  1  0  0  0  0
 24  2  1  1  0  0  0
 24 31  1  0  0  0  0
 25 26  1  0  0  0  0
 25 33  1  1  0  0  0
 27 28  1  6  0  0  0
 27 35  1  0  0  0  0
 29 30  1  0  0  0  0
 29 37  1  6  0  0  0
 31 32  1  6  0  0  0
 31 39  1  0  0  0  0
 33 34  1  0  0  0  0
 35 36  1  0  0  0  0
 35 41  1  6  0  0  0
 37 38  1  0  0  0  0
 39 40  1  1  0  0  0
 41 42  1  0  0  0  0
M  END
>  <CHROM.1>
-152.66291552,-114.24913106,-156.50986998,36.68905378,78.89197313,-83.98958760
-48.10923434,6.95656324,-176.64065665,-105.95448037,-170.41065724,79.64992126
164.95925525,179.24094536,177.53644179,-91.03745985,169.37922336,-38.42566071
128.24289298,-18.53353179,55.39624370,64.43590885,2.90566252,4.06803157,25.99371621
-0.65514455,-0.38567291,-2.63417829

>  <Name>
1fyp_lig

>  <RI>
0

>  <Rbt.Current_Directory>
/home/itssahil/PROJECTS/Mol_Feturizer/New_Systems/rnas/1fyp

>  <Rbt.Executable>
rbdock ($Id: //depot/dev/client3/rdock/2013.1/src/exe/rbdock.cxx#4 $)

>  <Rbt.Library>
libRbt.so (2013.1, Build901 2013/11/27)

>  <Rbt.Parameter_File>
/export/apps/rDock/src/rDock_2013.1_src/data/scripts/dock_solv.prm

>  <Rbt.Receptor>
prm/pocket_docking_7.prm

>  <SCORE>
-47.0424

>  <SCORE.INTER>
-48.7104

>  <SCORE.INTER.CONST>
1

>  <SCORE.INTER.POLAR>
-6.44128

>  <SCORE.INTER.ROT>
14

>  <SCORE.INTER.SOLV>
26.3032

>  <SCORE.INTER.VDW>
-32.7037

>  <SCORE.INTER.norm>
-1.15977

>  <SCORE.INTRA>
1.55315

>  <SCORE.INTRA.DIHEDRAL>
-4.43994

>  <SCORE.INTRA.DIHEDRAL.0>
48.7173

>  <SCORE.INTRA.POLAR>
-0.568966

>  <SCORE.INTRA.POLAR.0>
-1.54691

>  <SCORE.INTRA.REPUL>
0

>  <SCORE.INTRA.REPUL.0>
0

>  <SCORE.INTRA.SOLV>
-1.57887

>  <SCORE.INTRA.SOLV.lig_0>
-64.052

>  <SCORE.INTRA.VDW>
6.49704

>  <SCORE.INTRA.VDW.0>
-7.0667

>  <SCORE.INTRA.norm>
0.0369797

>  <SCORE.RESTR>
0.114843

>  <SCORE.RESTR.CAVITY>
0.114843

>  <SCORE.RESTR.norm>
0.00273435

>  <SCORE.SYSTEM>
0

>  <SCORE.SYSTEM.CONST>
0

>  <SCORE.SYSTEM.DIHEDRAL>
0

>  <SCORE.SYSTEM.SOLV>
0

>  <SCORE.SYSTEM.norm>
0

>  <SCORE.heavy>
42

>  <SCORE.norm>
-1.12006

>  <RMSD>
3.624

$$$$
1fyp_lig
 OpenBabel11021811393D
libRbt.so/2013.1/901 2013/11/27
 42 45  0  0  0  0  0  0  0  0999 V2000
    6.2338    6.7026   28.9500 C   0  0  2  0  0  0  0  0  0  0  0  0
    6.1520    5.8747   27.7540 O   0  0  0  0  0  0  0  0  0  0  0  0
    2.8121    8.0006   26.1519 C   0  0  2  0  0  0  0  0  0  0  0  0
    1.6662    8.4859   25.3608 N   0  0  0  0  0  0  0  0  0  0  0  0
    2.3853    4.0154   27.4228 C   0  0  1  0  0  0  0  0  0  0  0  0
   -0.5418    1.1842   26.0677 C   0  0  1  0  0  0  0  0  0  0  0  0
    7.6979    7.1788   29.2174 C   0  0  2  0  0  0  0  0  0  0  0  0
    8.2934    7.7868   28.0085 N   0  0  0  0  0  0  0  0  0  0  0  0
    4.0333    7.8199   25.2283 C   0  0  0  0  0  0  0  0  0  0  0  0
    2.6730    2.5253   27.6243 C   0  0  2  0  0  0  0  0  0  0  0  0
    3.4674    2.0418   26.5405 O   0  0  0  0  0  0  0  0  0  0  0  0
   -0.8644    0.1121   27.1529 C   0  0  2  0  0  0  0  0  0  0  0  0
    0.2225   -0.8847   27.3124 N   0  0  0  0  0  0  0  0  0  0  0  0
    8.5839    5.9968   29.7215 C   0  0  1  0  0  0  0  0  0  0  0  0
    9.8682    6.4765   30.1114 O   0  0  0  0  0  0  0  0  0  0  0  0
    5.2892    7.3347   26.0026 C   0  0  2  0  0  0  0  0  0  0  0  0
    6.3702    7.1176   25.0188 N   0  0  0  0  0  0  0  0  0  0  0  0
    1.2641    1.9267   27.5913 C   0  0  2  0  0  0  0  0  0  0  0  0
    0.8002    1.7132   26.2290 O   0  0  0  0  0  0  0  0  0  0  0  0
   -2.2310   -0.5807   26.8605 C   0  0  1  0  0  0  0  0  0  0  0  0
   -3.2789    0.3378   27.1633 O   0  0  0  0  0  0  0  0  0  0  0  0
    7.9419    5.2699   30.9296 C   0  0  2  0  0  0  0  0  0  0  0  0
    8.7487    4.1499   31.2809 O   0  0  0  0  0  0  0  0  0  0  0  0
    5.0194    6.0419   26.8535 C   0  0  2  0  0  0  0  0  0  0  0  0
    0.4339    3.0194   28.2791 C   0  0  2  0  0  0  0  0  0  0  0  0
    1.0733    4.2680   27.9504 O   0  0  0  0  0  0  0  0  0  0  0  0
   -2.4042   -1.0488   25.3838 C   0  0  2  0  0  0  0  0  0  0  0  0
   -1.5815   -2.1972   25.1719 O   0  0  0  0  0  0  0  0  0  0  0  0
    6.4963    4.8152   30.5807 C   0  0  2  0  0  0  0  0  0  0  0  0
    5.7312    5.9680   30.1165 O   0  0  0  0  0  0  0  0  0  0  0  0
    3.6947    6.1288   27.6947 C   0  0  2  0  0  0  0  0  0  0  0  0
    3.3685    4.7940   28.1623 O   0  0  0  0  0  0  0  0  0  0  0  0
    0.3603    2.8489   29.8069 C   0  0  0  0  0  0  0  0  0  0  0  0
   -0.3239    1.6563   30.1496 O   0  0  0  0  0  0  0  0  0  0  0  0
   -2.0075    0.0886   24.3920 C   0  0  1  0  0  0  0  0  0  0  0  0
   -0.6799    0.5936   24.7307 O   0  0  0  0  0  0  0  0  0  0  0  0
    5.7056    4.2054   31.7598 C   0  0  0  0  0  0  0  0  0  0  0  0
    5.4458    5.1743   32.7613 O   0  0  0  0  0  0  0  0  0  0  0  0
    2.4850    6.6697   26.8710 C   0  0  1  0  0  0  0  0  0  0  0  0
    1.3827    6.8733   27.7537 O   0  0  0  0  0  0  0  0  0  0  0  0
   -2.0087   -0.3794   22.9141 C   0  0  0  0  0  0  0  0  0  0  0  0
   -3.2702   -0.0577   22.2226 N   0  0  0  0  0  0  0  0  0  0  0  0
  1  2  1  6  0  0  0
  1  7  1  0  0  0  0
  1 30  1  0  0  0  0
  3  4  1  6  0  0  0
  3  9  1  0  0  0  0
  3 39  1  0  0  0  0
  5 10  1  0  0  0  0
  5 26  1  0  0  0  0
  5 32  1  1  0  0  0
  6 12  1  0  0  0  0
  6 36  1  0  0  0  0
  6 19  1  1  0  0  0
  7  8  1  6  0  0  0
  7 14  1  0  0  0  0
  9 16  1  0  0  0  0
 10 11  1  6  0  0  0
 10 18  1  0  0  0  0
 12 13  1  6  0  0  0
 12 20  1  0  0  0  0
 14 15  1  1  0  0  0
 14 22  1  0  0  0  0
 16 17  1  6  0  0  0
 16 24  1  0  0  0  0
 18 19  1  6  0  0  0
 18 25  1  0  0  0  0
 20 21  1  6  0  0  0
 20 27  1  0  0  0  0
 22 23  1  6  0  0  0
 22 29  1  0  0  0  0
 24  2  1  1  0  0  0
 24 31  1  0  0  0  0
 25 26  1  0  0  0  0
 25 33  1  1  0  0  0
 27 28  1  6  0  0  0
 27 35  1  0  0  0  0
 29 30  1  0  0  0  0
 29 37  1  1  0  0  0
 31 32  1  6  0  0  0
 31 39  1  0  0  0  0
 33 34  1  0  0  0  0
 35 36  1  0  0  0  0
 35 41  1  6  0  0  0
 37 38  1  0  0  0  0
 39 40  1  1  0  0  0
 41 42  1  0  0  0  0
M  END
>  <CHROM.1>
-139.82540354,77.80722562,51.97750680,-35.24315747,175.19734660,150.20433071
-171.46939072,-52.07086401,-178.25936645,-38.51725430,-170.23290219,-56.00935796
-64.55514825,66.06076844,66.24941663,-98.17149415,152.95160897,-177.83733154
96.21483393,172.65337830,-57.71290811,132.77555385,2.77040390,3.78392544
27.57083615,0.16625743,-0.68699075,-0.79001736

>  <Name>
1fyp_lig

>  <RI>
0

>  <Rbt.Current_Directory>
/home/itssahil/PROJECTS/Mol_Feturizer/New_Systems/rnas/1fyp

>  <Rbt.Executable>
rbdock ($Id: //depot/dev/client3/rdock/2013.1/src/exe/rbdock.cxx#4 $)

>  <Rbt.Library>
libRbt.so (2013.1, Build901 2013/11/27)

>  <Rbt.Parameter_File>
/export/apps/rDock/src/rDock_2013.1_src/data/scripts/dock_solv.prm

>  <Rbt.Receptor>
prm/pocket_docking_7.prm

>  <SCORE>
-37.6146

>  <SCORE.INTER>
-35.5795

>  <SCORE.INTER.CONST>
1

>  <SCORE.INTER.POLAR>
-4.99019

>  <SCORE.INTER.ROT>
14

>  <SCORE.INTER.SOLV>
12.3867

>  <SCORE.INTER.VDW>
-24.1479

>  <SCORE.INTER.norm>
-0.84713

>  <SCORE.INTRA>
-2.03516

>  <SCORE.INTRA.DIHEDRAL>
-21.5689

>  <SCORE.INTRA.DIHEDRAL.0>
48.7173

>  <SCORE.INTRA.POLAR>
1.33059

>  <SCORE.INTRA.POLAR.0>
-1.54691

>  <SCORE.INTRA.REPUL>
0

>  <SCORE.INTRA.REPUL.0>
0

>  <SCORE.INTRA.SOLV>
-1.87957

>  <SCORE.INTRA.SOLV.lig_0>
-64.052

>  <SCORE.INTRA.VDW>
5.16511

>  <SCORE.INTRA.VDW.0>
-7.0667

>  <SCORE.INTRA.norm>
-0.0484561

>  <SCORE.RESTR>
0

>  <SCORE.RESTR.CAVITY>
0

>  <SCORE.RESTR.norm>
0

>  <SCORE.SYSTEM>
0

>  <SCORE.SYSTEM.CONST>
0

>  <SCORE.SYSTEM.DIHEDRAL>
0

>  <SCORE.SYSTEM.SOLV>
0

>  <SCORE.SYSTEM.norm>
0

>  <SCORE.heavy>
42

>  <SCORE.norm>
-0.895586

>  <RMSD>
3.631

$$$$
1fyp_lig
 OpenBabel11021811393D
libRbt.so/2013.1/901 2013/11/27
 42 45  0  0  0  0  0  0  0  0999 V2000
    5.4757    6.1514   28.5134 C   0  0  2  0  0  0  0  0  0  0  0  0
    5.8045    5.1320   27.5259 O   0  0  0  0  0  0  0  0  0  0  0  0
    4.2992    7.4417   24.2639 C   0  0  2  0  0  0  0  0  0  0  0  0
    3.9828    8.0335   22.9509 N   0  0  0  0  0  0  0  0  0  0  0  0
    2.2842    3.6170   25.7834 C   0  0  1  0  0  0  0  0  0  0  0  0
   -1.5270    1.3222   25.4981 C   0  0  1  0  0  0  0  0  0  0  0  0
    5.7178    5.6372   29.9691 C   0  0  2  0  0  0  0  0  0  0  0  0
    7.0691    5.0555   30.1146 N   0  0  0  0  0  0  0  0  0  0  0  0
    5.8272    7.4357   24.4690 C   0  0  0  0  0  0  0  0  0  0  0  0
    2.0409    2.3308   24.9895 C   0  0  2  0  0  0  0  0  0  0  0  0
    1.6216    2.6600   23.6646 O   0  0  0  0  0  0  0  0  0  0  0  0
   -2.4947    1.7282   26.6512 C   0  0  2  0  0  0  0  0  0  0  0  0
   -1.7834    2.0072   27.9226 N   0  0  0  0  0  0  0  0  0  0  0  0
    4.6320    4.5933   30.3780 C   0  0  1  0  0  0  0  0  0  0  0  0
    4.7705    4.2537   31.7554 O   0  0  0  0  0  0  0  0  0  0  0  0
    6.2328    6.8485   25.8486 C   0  0  2  0  0  0  0  0  0  0  0  0
    7.7089    6.8144   25.9083 N   0  0  0  0  0  0  0  0  0  0  0  0
    0.9066    1.6804   25.7862 C   0  0  2  0  0  0  0  0  0  0  0  0
   -0.3919    2.2232   25.4179 O   0  0  0  0  0  0  0  0  0  0  0  0
   -3.6071    0.6526   26.8478 C   0  0  1  0  0  0  0  0  0  0  0  0
   -4.5288    0.7502   25.7641 O   0  0  0  0  0  0  0  0  0  0  0  0
    3.1981    5.1319   30.1452 C   0  0  2  0  0  0  0  0  0  0  0  0
    2.2602    4.1035   30.4477 O   0  0  0  0  0  0  0  0  0  0  0  0
    5.6148    5.4285   26.1126 C   0  0  2  0  0  0  0  0  0  0  0  0
    1.2637    2.0665   27.2283 C   0  0  2  0  0  0  0  0  0  0  0  0
    1.9128    3.3501   27.1452 O   0  0  0  0  0  0  0  0  0  0  0  0
   -3.0740   -0.8112   26.9044 C   0  0  2  0  0  0  0  0  0  0  0  0
   -2.4214   -1.0087   28.1597 O   0  0  0  0  0  0  0  0  0  0  0  0
    3.0323    5.6087   28.6744 C   0  0  2  0  0  0  0  0  0  0  0  0
    4.0793    6.5769   28.3645 O   0  0  0  0  0  0  0  0  0  0  0  0
    4.0835    5.3540   25.7666 C   0  0  2  0  0  0  0  0  0  0  0  0
    3.6989    3.9553   25.7192 O   0  0  0  0  0  0  0  0  0  0  0  0
    2.1920    1.0476   27.9131 C   0  0  0  0  0  0  0  0  0  0  0  0
    2.3010    1.3163   29.3001 O   0  0  0  0  0  0  0  0  0  0  0  0
   -2.0814   -1.0850   25.7322 C   0  0  1  0  0  0  0  0  0  0  0  0
   -1.0511   -0.0503   25.7102 O   0  0  0  0  0  0  0  0  0  0  0  0
    1.6855    6.2994   28.3643 C   0  0  0  0  0  0  0  0  0  0  0  0
    1.7346    6.9923   27.1286 O   0  0  0  0  0  0  0  0  0  0  0  0
    3.7378    6.0050   24.3914 C   0  0  1  0  0  0  0  0  0  0  0  0
    2.3190    6.0423   24.2447 O   0  0  0  0  0  0  0  0  0  0  0  0
   -1.4010   -2.4740   25.8367 C   0  0  0  0  0  0  0  0  0  0  0  0
   -0.6950   -2.8499   24.5985 N   0  0  0  0  0  0  0  0  0  0  0  0
  1  2  1  6  0  0  0
  1  7  1  0  0  0  0
  1 30  1  0  0  0  0
  3  4  1  6  0  0  0
  3  9  1  0  0  0  0
  3 39  1  0  0  0  0
  5 10  1  0  0  0  0
  5 26  1  0  0  0  0
  5 32  1  1  0  0  0
  6 12  1  0  0  0  0
  6 36  1  0  0  0  0
  6 19  1  1  0  0  0
  7  8  1  6  0  0  0
  7 14  1  0  0  0  0
  9 16  1  0  0  0  0
 10 11  1  6  0  0  0
 10 18  1  0  0  0  0
 12 13  1  1  0  0  0
 12 20  1  0  0  0  0
 14 15  1  1  0  0  0
 14 22  1  0  0  0  0
 16 17  1  6  0  0  0
 16 24  1  0  0  0  0
 18 19  1  6  0  0  0
 18 25  1  0  0  0  0
 20 21  1  6  0  0  0
 20 27  1  0  0  0  0
 22 23  1  6  0  0  0
 22 29  1  0  0  0  0
 24  2  1  1  0  0  0
 24 31  1  0  0  0  0
 25 26  1  0  0  0  0
 25 33  1  6  0  0  0
 27 28  1  1  0  0  0
 27 35  1  0  0  0  0
 29 30  1  0  0  0  0
 29 37  1  1  0  0  0
 31 32  1  6  0  0  0
 31 39  1  0  0  0  0
 33 34  1  0  0  0  0
 35 36  1  0  0  0  0
 35 41  1  1  0  0  0
 37 38  1  0  0  0  0
 39 40  1  1  0  0  0
 41 42  1  0  0  0  0
M  END
>  <CHROM.1>
178.82613564,46.61766001,-58.83295119,71.06140018,-177.97721360,177.01586981
57.09102172,177.91141162,148.21221678,111.10385752,54.53388675,171.37502059
-169.61308491,168.98928657,165.35898338,163.32541465,149.15091259,-50.06208817
167.74299182,175.13566360,50.99499961,-156.71821177,2.04407010,3.49424566
26.87008318,-0.11599640,0.72947982,1.88715505

>  <Name>
1fyp_lig

>  <RI>
0

>  <Rbt.Current_Directory>
/home/itssahil/PROJECTS/Mol_Feturizer/New_Systems/rnas/1fyp

>  <Rbt.Executable>
rbdock ($Id: //depot/dev/client3/rdock/2013.1/src/exe/rbdock.cxx#4 $)

>  <Rbt.Library>
libRbt.so (2013.1, Build901 2013/11/27)

>  <Rbt.Parameter_File>
/export/apps/rDock/src/rDock_2013.1_src/data/scripts/dock_solv.prm

>  <Rbt.Receptor>
prm/blind_docking_80.prm

>  <SCORE>
-55.0279

>  <SCORE.INTER>
-43.9592

>  <SCORE.INTER.CONST>
1

>  <SCORE.INTER.POLAR>
-5.17994

>  <SCORE.INTER.ROT>
14

>  <SCORE.INTER.SOLV>
15.0224

>  <SCORE.INTER.VDW>
-29.9805

>  <SCORE.INTER.norm>
-1.04665

>  <SCORE.INTRA>
-11.0833

>  <SCORE.INTRA.DIHEDRAL>
-26.7097

>  <SCORE.INTRA.DIHEDRAL.0>
48.7173

>  <SCORE.INTRA.POLAR>
0.398077

>  <SCORE.INTRA.POLAR.0>
-1.54691

>  <SCORE.INTRA.REPUL>
0

>  <SCORE.INTRA.REPUL.0>
0

>  <SCORE.INTRA.SOLV>
0.351683

>  <SCORE.INTRA.SOLV.lig_0>
-64.052

>  <SCORE.INTRA.VDW>
0.742286

>  <SCORE.INTRA.VDW.0>
-7.0667

>  <SCORE.INTRA.norm>
-0.263887

>  <SCORE.RESTR>
0.0145965

>  <SCORE.RESTR.CAVITY>
0.0145965

>  <SCORE.RESTR.norm>
0.000347536

>  <SCORE.SYSTEM>
0

>  <SCORE.SYSTEM.CONST>
0

>  <SCORE.SYSTEM.DIHEDRAL>
0

>  <SCORE.SYSTEM.SOLV>
0

>  <SCORE.SYSTEM.norm>
0

>  <SCORE.heavy>
42

>  <SCORE.norm>
-1.31019

>  <RMSD>
3.640

$$$$
1fyp_lig
 OpenBabel11021811393D
libRbt.so/2013.1/901 2013/11/27
 42 45  0  0  0  0  0  0  0  0999 V2000
    5.3688    6.7439   27.4667 C   0  0  2  0  0  0  0  0  0  0  0  0
    5.7198    5.7463   26.4647 O   0  0  0  0  0  0  0  0  0  0  0  0
    3.5193    7.6869   23.3610 C   0  0  2  0  0  0  0  0  0  0  0  0
    2.9767    8.1861   22.0840 N   0  0  0  0  0  0  0  0  0  0  0  0
    2.3551    3.6040   24.7798 C   0  0  1  0  0  0  0  0  0  0  0  0
   -1.0418    0.7753   24.6499 C   0  0  1  0  0  0  0  0  0  0  0  0
    5.8754    6.3320   28.8865 C   0  0  2  0  0  0  0  0  0  0  0  0
    7.3078    5.9669   28.8598 N   0  0  0  0  0  0  0  0  0  0  0  0
    5.0371    7.9526   23.4122 C   0  0  0  0  0  0  0  0  0  0  0  0
    2.4747    2.1459   24.3290 C   0  0  2  0  0  0  0  0  0  0  0  0
    2.3187    2.0704   22.9115 O   0  0  0  0  0  0  0  0  0  0  0  0
   -0.5360   -0.6919   24.7999 C   0  0  2  0  0  0  0  0  0  0  0  0
    0.3571   -1.1048   23.6898 N   0  0  0  0  0  0  0  0  0  0  0  0
    5.0270    5.1538   29.4595 C   0  0  1  0  0  0  0  0  0  0  0  0
    5.3948    4.8955   30.8122 O   0  0  0  0  0  0  0  0  0  0  0  0
    5.6728    7.4750   24.7464 C   0  0  2  0  0  0  0  0  0  0  0  0
    7.1305    7.7009   24.6583 N   0  0  0  0  0  0  0  0  0  0  0  0
    1.2931    1.4956   25.0538 C   0  0  2  0  0  0  0  0  0  0  0  0
    0.0464    1.6798   24.3269 O   0  0  0  0  0  0  0  0  0  0  0  0
   -1.7332   -1.6786   24.9618 C   0  0  1  0  0  0  0  0  0  0  0  0
   -2.2805   -1.5168   26.2686 O   0  0  0  0  0  0  0  0  0  0  0  0
    3.5091    5.4603   29.4117 C   0  0  2  0  0  0  0  0  0  0  0  0
    2.7892    4.3155   29.8590 O   0  0  0  0  0  0  0  0  0  0  0  0
    5.3434    5.9747   25.0763 C   0  0  2  0  0  0  0  0  0  0  0  0
    1.2640    2.2687   26.3797 C   0  0  2  0  0  0  0  0  0  0  0  0
    1.7311    3.5969   26.0738 O   0  0  0  0  0  0  0  0  0  0  0  0
   -2.8771   -1.4669   23.9243 C   0  0  2  0  0  0  0  0  0  0  0  0
   -2.4322   -1.9450   22.6538 O   0  0  0  0  0  0  0  0  0  0  0  0
    3.0810    5.8462   27.9674 C   0  0  2  0  0  0  0  0  0  0  0  0
    3.9161    6.9477   27.4993 O   0  0  0  0  0  0  0  0  0  0  0  0
    3.8228    5.6262   24.8857 C   0  0  2  0  0  0  0  0  0  0  0  0
    3.6879    4.1811   24.8824 O   0  0  0  0  0  0  0  0  0  0  0  0
    2.1488    1.6341   27.4673 C   0  0  0  0  0  0  0  0  0  0  0  0
    1.8597    0.2546   27.6123 O   0  0  0  0  0  0  0  0  0  0  0  0
   -3.2646    0.0413   23.8269 C   0  0  1  0  0  0  0  0  0  0  0  0
   -2.0649    0.8422   23.5990 O   0  0  0  0  0  0  0  0  0  0  0  0
    1.6147    6.3128   27.8282 C   0  0  0  0  0  0  0  0  0  0  0  0
    1.2521    6.4724   26.4671 O   0  0  0  0  0  0  0  0  0  0  0  0
    3.2350    6.1773   23.5495 C   0  0  1  0  0  0  0  0  0  0  0  0
    1.8244    5.9627   23.5454 O   0  0  0  0  0  0  0  0  0  0  0  0
   -4.2844    0.3249   22.6943 C   0  0  0  0  0  0  0  0  0  0  0  0
   -3.9246   -0.3454   21.4317 N   0  0  0  0  0  0  0  0  0  0  0  0
  1  2  1  6  0  0  0
  1  7  1  0  0  0  0
  1 30  1  0  0  0  0
  3  4  1  6  0  0  0
  3  9  1  0  0  0  0
  3 39  1  0  0  0  0
  5 10  1  0  0  0  0
  5 26  1  0  0  0  0
  5 32  1  1  0  0  0
  6 12  1  0  0  0  0
  6 36  1  0  0  0  0
  6 19  1  6  0  0  0
  7  8  1  6  0  0  0
  7 14  1  0  0  0  0
  9 16  1  0  0  0  0
 10 11  1  6  0  0  0
 10 18  1  0  0  0  0
 12 13  1  6  0  0  0
 12 20  1  0  0  0  0
 14 15  1  1  0  0  0
 14 22  1  0  0  0  0
 16 17  1  6  0  0  0
 16 24  1  0  0  0  0
 18 19  1  6  0  0  0
 18 25  1  0  0  0  0
 20 21  1  1  0  0  0
 20 27  1  0  0  0  0
 22 23  1  6  0  0  0
 22 29  1  0  0  0  0
 24  2  1  1  0  0  0
 24 31  1  0  0  0  0
 25 26  1  0  0  0  0
 25 33  1  1  0  0  0
 27 28  1  6  0  0  0
 27 35  1  0  0  0  0
 29 30  1  0  0  0  0
 29 37  1  1  0  0  0
 31 32  1  6  0  0  0
 31 39  1  0  0  0  0
 33 34  1  0  0  0  0
 35 36  1  0  0  0  0
 35 41  1  6  0  0  0
 37 38  1  0  0  0  0
 39 40  1  1  0  0  0
 41 42  1  0  0  0  0
M  END
>  <CHROM.1>
-179.10354233,43.79138089,62.44801174,165.53946959,172.25607205,45.22726422
-60.22763947,145.73611332,160.51978935,-42.71729716,61.31143714,-55.30208467
-51.27678442,61.66426674,-172.12564029,177.24373753,161.20116671,-88.00348437
-45.83056876,74.16079528,-66.09539727,-1.57873073,2.00003446,3.51584644,25.53959624
-0.07541277,0.82491388,2.07793039

>  <Name>
1fyp_lig

>  <RI>
0

>  <Rbt.Current_Directory>
/home/itssahil/PROJECTS/Mol_Feturizer/New_Systems/rnas/1fyp

>  <Rbt.Executable>
rbdock ($Id: //depot/dev/client3/rdock/2013.1/src/exe/rbdock.cxx#4 $)

>  <Rbt.Library>
libRbt.so (2013.1, Build901 2013/11/27)

>  <Rbt.Parameter_File>
/export/apps/rDock/src/rDock_2013.1_src/data/scripts/dock_solv.prm

>  <Rbt.Receptor>
prm/pocket_docking_6.prm

>  <SCORE>
-48.3012

>  <SCORE.INTER>
-32.2687

>  <SCORE.INTER.CONST>
1

>  <SCORE.INTER.POLAR>
-6.37703

>  <SCORE.INTER.ROT>
14

>  <SCORE.INTER.SOLV>
20.2029

>  <SCORE.INTER.VDW>
-19.9234

>  <SCORE.INTER.norm>
-0.768303

>  <SCORE.INTRA>
-16.0325

>  <SCORE.INTRA.DIHEDRAL>
-31.4496

>  <SCORE.INTRA.DIHEDRAL.0>
48.7173

>  <SCORE.INTRA.POLAR>
-1.15298

>  <SCORE.INTRA.POLAR.0>
-1.54691

>  <SCORE.INTRA.REPUL>
0

>  <SCORE.INTRA.REPUL.0>
0

>  <SCORE.INTRA.SOLV>
1.2277

>  <SCORE.INTRA.SOLV.lig_0>
-64.052

>  <SCORE.INTRA.VDW>
2.99858

>  <SCORE.INTRA.VDW.0>
-7.0667

>  <SCORE.INTRA.norm>
-0.381726

>  <SCORE.RESTR>
0

>  <SCORE.RESTR.CAVITY>
0

>  <SCORE.RESTR.norm>
0

>  <SCORE.SYSTEM>
0

>  <SCORE.SYSTEM.CONST>
0

>  <SCORE.SYSTEM.DIHEDRAL>
0

>  <SCORE.SYSTEM.SOLV>
0

>  <SCORE.SYSTEM.norm>
0

>  <SCORE.heavy>
42

>  <SCORE.norm>
-1.15003

>  <RMSD>
3.661

$$$$
1fyp_lig
 OpenBabel11021811393D
libRbt.so/2013.1/901 2013/11/27
 42 45  0  0  0  0  0  0  0  0999 V2000
    5.2500    3.4755   27.2677 C   0  0  2  0  0  0  0  0  0  0  0  0
    3.8170    3.5302   27.5245 O   0  0  0  0  0  0  0  0  0  0  0  0
    2.7337    6.7850   24.9803 C   0  0  2  0  0  0  0  0  0  0  0  0
    2.1188    7.6893   23.9910 N   0  0  0  0  0  0  0  0  0  0  0  0
    0.2241    4.4289   27.7219 C   0  0  1  0  0  0  0  0  0  0  0  0
   -2.4124    0.9529   26.7741 C   0  0  1  0  0  0  0  0  0  0  0  0
    6.0103    2.7417   28.4190 C   0  0  2  0  0  0  0  0  0  0  0  0
    5.3911    1.4339   28.7222 N   0  0  0  0  0  0  0  0  0  0  0  0
    3.1210    5.4603   24.2931 C   0  0  0  0  0  0  0  0  0  0  0  0
    0.5766    2.9395   27.6879 C   0  0  2  0  0  0  0  0  0  0  0  0
    0.9906    2.5772   26.3700 O   0  0  0  0  0  0  0  0  0  0  0  0
   -3.2582    0.9388   25.4643 C   0  0  2  0  0  0  0  0  0  0  0  0
   -3.9886    2.2106   25.2419 N   0  0  0  0  0  0  0  0  0  0  0  0
    6.0626    3.6268   29.7035 C   0  0  1  0  0  0  0  0  0  0  0  0
    6.8917    3.0153   30.6885 O   0  0  0  0  0  0  0  0  0  0  0  0
    3.8017    4.4666   25.2738 C   0  0  2  0  0  0  0  0  0  0  0  0
    4.0559    3.2100   24.5389 N   0  0  0  0  0  0  0  0  0  0  0  0
   -0.7633    2.2917   28.0476 C   0  0  2  0  0  0  0  0  0  0  0  0
   -1.6338    2.1725   26.8881 O   0  0  0  0  0  0  0  0  0  0  0  0
   -4.2272   -0.2833   25.4417 C   0  0  1  0  0  0  0  0  0  0  0  0
   -3.4630   -1.4635   25.2039 O   0  0  0  0  0  0  0  0  0  0  0  0
    6.6150    5.0432   29.4051 C   0  0  2  0  0  0  0  0  0  0  0  0
    6.5499    5.8274   30.5924 O   0  0  0  0  0  0  0  0  0  0  0  0
    2.9525    4.2113   26.5706 C   0  0  2  0  0  0  0  0  0  0  0  0
   -1.3434    3.2918   29.0574 C   0  0  2  0  0  0  0  0  0  0  0  0
   -0.8550    4.5868   28.6571 O   0  0  0  0  0  0  0  0  0  0  0  0
   -5.0325   -0.4814   26.7616 C   0  0  2  0  0  0  0  0  0  0  0  0
   -6.0368    0.5317   26.8373 O   0  0  0  0  0  0  0  0  0  0  0  0
    5.7992    5.7115   28.2623 C   0  0  2  0  0  0  0  0  0  0  0  0
    5.7922    4.8287   27.1002 O   0  0  0  0  0  0  0  0  0  0  0  0
    2.4083    5.5369   27.2162 C   0  0  2  0  0  0  0  0  0  0  0  0
    1.3829    5.1818   28.1800 O   0  0  0  0  0  0  0  0  0  0  0  0
   -0.9259    2.9943   30.5086 C   0  0  0  0  0  0  0  0  0  0  0  0
    0.4853    2.9746   30.6342 O   0  0  0  0  0  0  0  0  0  0  0  0
   -4.0906   -0.4002   28.0028 C   0  0  1  0  0  0  0  0  0  0  0  0
   -3.2983    0.8248   27.9378 O   0  0  0  0  0  0  0  0  0  0  0  0
    6.3515    7.0718   27.7808 C   0  0  0  0  0  0  0  0  0  0  0  0
    6.8750    6.9790   26.4668 O   0  0  0  0  0  0  0  0  0  0  0  0
    1.7828    6.5112   26.1702 C   0  0  1  0  0  0  0  0  0  0  0  0
    1.4762    7.7450   26.8179 O   0  0  0  0  0  0  0  0  0  0  0  0
   -4.8659   -0.4303   29.3449 C   0  0  0  0  0  0  0  0  0  0  0  0
   -4.0198   -0.8559   30.4745 N   0  0  0  0  0  0  0  0  0  0  0  0
  1  2  1  1  0  0  0
  1  7  1  0  0  0  0
  1 30  1  0  0  0  0
  3  4  1  6  0  0  0
  3  9  1  0  0  0  0
  3 39  1  0  0  0  0
  5 10  1  0  0  0  0
  5 26  1  0  0  0  0
  5 32  1  1  0  0  0
  6 12  1  0  0  0  0
  6 36  1  0  0  0  0
  6 19  1  1  0  0  0
  7  8  1  1  0  0  0
  7 14  1  0  0  0  0
  9 16  1  0  0  0  0
 10 11  1  6  0  0  0
 10 18  1  0  0  0  0
 12 13  1  1  0  0  0
 12 20  1  0  0  0  0
 14 15  1  1  0  0  0
 14 22  1  0  0  0  0
 16 17  1  6  0  0  0
 16 24  1  0  0  0  0
 18 19  1  6  0  0  0
 18 25  1  0  0  0  0
 20 21  1  1  0  0  0
 20 27  1  0  0  0  0
 22 23  1  1  0  0  0
 22 29  1  0  0  0  0
 24  2  1  1  0  0  0
 24 31  1  0  0  0  0
 25 26  1  0  0  0  0
 25 33  1  1  0  0  0
 27 28  1  1  0  0  0
 27 35  1  0  0  0  0
 29 30  1  0  0  0  0
 29 37  1  6  0  0  0
 31 32  1  1  0  0  0
 31 39  1  0  0  0  0
 33 34  1  0  0  0  0
 35 36  1  0  0  0  0
 35 41  1  1  0  0  0
 37 38  1  0  0  0  0
 39 40  1  1  0  0  0
 41 42  1  0  0  0  0
M  END
>  <CHROM.1>
178.38896287,12.57478947,122.88701294,25.58062126,173.44069971,177.10927646
177.79279031,163.37751658,140.46153963,-177.99273049,-50.72849644,-177.40901247
57.10860431,52.53260981,111.27654775,-58.21854491,83.33016199,-179.73621651
158.57585332,-57.63152487,-63.96004457,-114.09204689,1.18102750,3.33286672
27.47103531,-0.25556003,0.41019943,2.24095322

>  <Name>
1fyp_lig

>  <RI>
0

>  <Rbt.Current_Directory>
/home/itssahil/PROJECTS/Mol_Feturizer/New_Systems/rnas/1fyp

>  <Rbt.Executable>
rbdock ($Id: //depot/dev/client3/rdock/2013.1/src/exe/rbdock.cxx#4 $)

>  <Rbt.Library>
libRbt.so (2013.1, Build901 2013/11/27)

>  <Rbt.Parameter_File>
/export/apps/rDock/src/rDock_2013.1_src/data/scripts/dock_solv.prm

>  <Rbt.Receptor>
prm/blind_docking_40.prm

>  <SCORE>
-42.649

>  <SCORE.INTER>
-44.8894

>  <SCORE.INTER.CONST>
1

>  <SCORE.INTER.POLAR>
-5.61319

>  <SCORE.INTER.ROT>
14

>  <SCORE.INTER.SOLV>
21.865

>  <SCORE.INTER.VDW>
-31.4373

>  <SCORE.INTER.norm>
-1.0688

>  <SCORE.INTRA>
1.84671

>  <SCORE.INTRA.DIHEDRAL>
-19.7495

>  <SCORE.INTRA.DIHEDRAL.0>
48.7173

>  <SCORE.INTRA.POLAR>
1.45467

>  <SCORE.INTRA.POLAR.0>
-1.54691

>  <SCORE.INTRA.REPUL>
0

>  <SCORE.INTRA.REPUL.0>
0

>  <SCORE.INTRA.SOLV>
-1.08046

>  <SCORE.INTRA.SOLV.lig_0>
-64.052

>  <SCORE.INTRA.VDW>
7.31579

>  <SCORE.INTRA.VDW.0>
-7.0667

>  <SCORE.INTRA.norm>
0.0439693

>  <SCORE.RESTR>
0.393741

>  <SCORE.RESTR.CAVITY>
0.393741

>  <SCORE.RESTR.norm>
0.00937479

>  <SCORE.SYSTEM>
0

>  <SCORE.SYSTEM.CONST>
0

>  <SCORE.SYSTEM.DIHEDRAL>
0

>  <SCORE.SYSTEM.SOLV>
0

>  <SCORE.SYSTEM.norm>
0

>  <SCORE.heavy>
42

>  <SCORE.norm>
-1.01545

>  <RMSD>
3.665

$$$$
1fyp_lig
 OpenBabel11021811393D
libRbt.so/2013.1/901 2013/11/27
 42 45  0  0  0  0  0  0  0  0999 V2000
    6.2185    6.1104   25.1506 C   0  0  2  0  0  0  0  0  0  0  0  0
    5.6105    6.3711   26.4486 O   0  0  0  0  0  0  0  0  0  0  0  0
    1.9150    6.9668   28.5051 C   0  0  2  0  0  0  0  0  0  0  0  0
    0.5025    7.0870   28.9110 N   0  0  0  0  0  0  0  0  0  0  0  0
    2.8929    3.2500   26.7557 C   0  0  1  0  0  0  0  0  0  0  0  0
    0.1503    0.3276   25.2588 C   0  0  1  0  0  0  0  0  0  0  0  0
    7.7558    5.8608   25.2783 C   0  0  2  0  0  0  0  0  0  0  0  0
    8.0499    4.8426   26.3091 N   0  0  0  0  0  0  0  0  0  0  0  0
    2.1638    7.8294   27.2517 C   0  0  0  0  0  0  0  0  0  0  0  0
    3.4420    2.1731   25.8164 C   0  0  2  0  0  0  0  0  0  0  0  0
    3.4632    2.6723   24.4786 O   0  0  0  0  0  0  0  0  0  0  0  0
    0.2008   -0.7416   24.1251 C   0  0  2  0  0  0  0  0  0  0  0  0
    0.4054   -0.1428   22.7835 N   0  0  0  0  0  0  0  0  0  0  0  0
    8.5102    7.1891   25.5986 C   0  0  1  0  0  0  0  0  0  0  0  0
    9.9191    6.9772   25.5549 O   0  0  0  0  0  0  0  0  0  0  0  0
    3.6433    7.7716   26.7826 C   0  0  2  0  0  0  0  0  0  0  0  0
    3.7535    8.5611   25.5384 N   0  0  0  0  0  0  0  0  0  0  0  0
    2.4051    1.0580   25.9775 C   0  0  2  0  0  0  0  0  0  0  0  0
    1.2388    1.2800   25.1367 O   0  0  0  0  0  0  0  0  0  0  0  0
   -1.0711   -1.6440   24.1554 C   0  0  1  0  0  0  0  0  0  0  0  0
   -0.9749   -2.5259   25.2720 O   0  0  0  0  0  0  0  0  0  0  0  0
    8.1496    8.3129   24.5949 C   0  0  2  0  0  0  0  0  0  0  0  0
    8.7947    9.5182   24.9948 O   0  0  0  0  0  0  0  0  0  0  0  0
    4.1614    6.3026   26.5780 C   0  0  2  0  0  0  0  0  0  0  0  0
    2.0313    1.1781   27.4615 C   0  0  2  0  0  0  0  0  0  0  0  0
    2.1593    2.5750   27.7901 O   0  0  0  0  0  0  0  0  0  0  0  0
   -2.4096   -0.8536   24.2721 C   0  0  2  0  0  0  0  0  0  0  0  0
   -2.6764   -0.2244   23.0178 O   0  0  0  0  0  0  0  0  0  0  0  0
    6.6083    8.5106   24.5359 C   0  0  2  0  0  0  0  0  0  0  0  0
    5.9732    7.2313   24.2359 O   0  0  0  0  0  0  0  0  0  0  0  0
    3.7903    5.3512   27.7726 C   0  0  2  0  0  0  0  0  0  0  0  0
    4.0061    3.9818   27.3430 O   0  0  0  0  0  0  0  0  0  0  0  0
    2.9321    0.3337   28.3804 C   0  0  0  0  0  0  0  0  0  0  0  0
    2.7550    0.7010   29.7374 O   0  0  0  0  0  0  0  0  0  0  0  0
   -2.3241    0.2165   25.4044 C   0  0  1  0  0  0  0  0  0  0  0  0
   -1.1330    1.0392   25.2127 O   0  0  0  0  0  0  0  0  0  0  0  0
    6.1229    9.5081   23.4605 C   0  0  0  0  0  0  0  0  0  0  0  0
    4.7989    9.9423   23.7211 O   0  0  0  0  0  0  0  0  0  0  0  0
    2.3043    5.4950   28.2263 C   0  0  1  0  0  0  0  0  0  0  0  0
    2.1100    4.7267   29.4127 O   0  0  0  0  0  0  0  0  0  0  0  0
   -3.5712    1.1360   25.4536 C   0  0  0  0  0  0  0  0  0  0  0  0
   -3.5264    2.0860   26.5799 N   0  0  0  0  0  0  0  0  0  0  0  0
  1  2  1  1  0  0  0
  1  7  1  0  0  0  0
  1 30  1  0  0  0  0
  3  4  1  6  0  0  0
  3  9  1  0  0  0  0
  3 39  1  0  0  0  0
  5 10  1  0  0  0  0
  5 26  1  0  0  0  0
  5 32  1  1  0  0  0
  6 12  1  0  0  0  0
  6 36  1  0  0  0  0
  6 19  1  6  0  0  0
  7  8  1  1  0  0  0
  7 14  1  0  0  0  0
  9 16  1  0  0  0  0
 10 11  1  6  0  0  0
 10 18  1  0  0  0  0
 12 13  1  6  0  0  0
 12 20  1  0  0  0  0
 14 15  1  6  0  0  0
 14 22  1  0  0  0  0
 16 17  1  6  0  0  0
 16 24  1  0  0  0  0
 18 19  1  6  0  0  0
 18 25  1  0  0  0  0
 20 21  1  1  0  0  0
 20 27  1  0  0  0  0
 22 23  1  1  0  0  0
 22 29  1  0  0  0  0
 24  2  1  1  0  0  0
 24 31  1  0  0  0  0
 25 26  1  0  0  0  0
 25 33  1  1  0  0  0
 27 28  1  6  0  0  0
 27 35  1  0  0  0  0
 29 30  1  0  0  0  0
 29 37  1  6  0  0  0
 31 32  1  6  0  0  0
 31 39  1  0  0  0  0
 33 34  1  0  0  0  0
 35 36  1  0  0  0  0
 35 41  1  6  0  0  0
 37 38  1  0  0  0  0
 39 40  1  1  0  0  0
 41 42  1  0  0  0  0
M  END
>  <CHROM.1>
-165.13408449,-109.39387069,-171.46856445,163.88578695,-75.57028687,-80.31814615
-69.12667796,-14.85705565,-176.59115940,-98.63943567,67.85548498,-54.37148184
166.79645954,176.04668453,-162.22272197,-91.98774084,153.48080912,-148.99573820
176.19299829,-57.81910420,-57.54954260,29.99981366,2.88935660,4.01939906
25.94246175,-0.72721204,-0.34243017,-2.76051525

>  <Name>
1fyp_lig

>  <RI>
0

>  <Rbt.Current_Directory>
/home/itssahil/PROJECTS/Mol_Feturizer/New_Systems/rnas/1fyp

>  <Rbt.Executable>
rbdock ($Id: //depot/dev/client3/rdock/2013.1/src/exe/rbdock.cxx#4 $)

>  <Rbt.Library>
libRbt.so (2013.1, Build901 2013/11/27)

>  <Rbt.Parameter_File>
/export/apps/rDock/src/rDock_2013.1_src/data/scripts/dock_solv.prm

>  <Rbt.Receptor>
prm/pocket_docking_6.prm

>  <SCORE>
-52.6151

>  <SCORE.INTER>
-50.9596

>  <SCORE.INTER.CONST>
1

>  <SCORE.INTER.POLAR>
-5.62614

>  <SCORE.INTER.ROT>
14

>  <SCORE.INTER.SOLV>
25.8639

>  <SCORE.INTER.VDW>
-36.7739

>  <SCORE.INTER.norm>
-1.21332

>  <SCORE.INTRA>
-1.6555

>  <SCORE.INTRA.DIHEDRAL>
-16.4369

>  <SCORE.INTRA.DIHEDRAL.0>
48.7173

>  <SCORE.INTRA.POLAR>
0.521754

>  <SCORE.INTRA.POLAR.0>
-1.54691

>  <SCORE.INTRA.REPUL>
0.0546611

>  <SCORE.INTRA.REPUL.0>
0

>  <SCORE.INTRA.SOLV>
-1.71053

>  <SCORE.INTRA.SOLV.lig_0>
-64.052

>  <SCORE.INTRA.VDW>
5.37093

>  <SCORE.INTRA.VDW.0>
-7.0667

>  <SCORE.INTRA.norm>
-0.0394166

>  <SCORE.RESTR>
0

>  <SCORE.RESTR.CAVITY>
0

>  <SCORE.RESTR.norm>
0

>  <SCORE.SYSTEM>
0

>  <SCORE.SYSTEM.CONST>
0

>  <SCORE.SYSTEM.DIHEDRAL>
0

>  <SCORE.SYSTEM.SOLV>
0

>  <SCORE.SYSTEM.norm>
0

>  <SCORE.heavy>
42

>  <SCORE.norm>
-1.25274

>  <RMSD>
3.669

$$$$
1fyp_lig
 OpenBabel11021811393D
libRbt.so/2013.1/901 2013/11/27
 42 45  0  0  0  0  0  0  0  0999 V2000
    5.2376    5.3981   28.4181 C   0  0  2  0  0  0  0  0  0  0  0  0
    5.3364    4.4351   27.3295 O   0  0  0  0  0  0  0  0  0  0  0  0
    5.1509    7.3557   24.2187 C   0  0  2  0  0  0  0  0  0  0  0  0
    5.2914    8.1420   22.9792 N   0  0  0  0  0  0  0  0  0  0  0  0
    2.3360    3.5539   25.5613 C   0  0  1  0  0  0  0  0  0  0  0  0
   -1.1724    1.0369   26.0882 C   0  0  1  0  0  0  0  0  0  0  0  0
    4.6137    4.7535   29.6977 C   0  0  2  0  0  0  0  0  0  0  0  0
    5.3013    3.4939   30.0533 N   0  0  0  0  0  0  0  0  0  0  0  0
    6.5494    7.0045   24.7645 C   0  0  0  0  0  0  0  0  0  0  0  0
    1.9269    2.1644   25.0655 C   0  0  2  0  0  0  0  0  0  0  0  0
    1.0158    2.2965   23.9738 O   0  0  0  0  0  0  0  0  0  0  0  0
   -2.2225    0.9266   27.2355 C   0  0  2  0  0  0  0  0  0  0  0  0
   -1.5956    0.8237   28.5760 N   0  0  0  0  0  0  0  0  0  0  0  0
    3.0858    4.5003   29.5044 C   0  0  1  0  0  0  0  0  0  0  0  0
    2.5012    4.0622   30.7283 O   0  0  0  0  0  0  0  0  0  0  0  0
    6.4775    6.1965   26.0891 C   0  0  2  0  0  0  0  0  0  0  0  0
    7.8588    5.8450   26.4789 N   0  0  0  0  0  0  0  0  0  0  0  0
    1.2341    1.5821   26.3006 C   0  0  2  0  0  0  0  0  0  0  0  0
   -0.1500    2.0190   26.3993 O   0  0  0  0  0  0  0  0  0  0  0  0
   -3.2059   -0.2563   26.9768 C   0  0  1  0  0  0  0  0  0  0  0  0
   -4.0929    0.1136   25.9233 O   0  0  0  0  0  0  0  0  0  0  0  0
    2.3451    5.7772   29.0339 C   0  0  2  0  0  0  0  0  0  0  0  0
    0.9791    5.4581   28.7870 O   0  0  0  0  0  0  0  0  0  0  0  0
    5.5704    4.9189   25.9757 C   0  0  2  0  0  0  0  0  0  0  0  0
    2.0692    2.1716   27.4459 C   0  0  2  0  0  0  0  0  0  0  0  0
    2.5253    3.4572   26.9821 O   0  0  0  0  0  0  0  0  0  0  0  0
   -2.5054   -1.5908   26.5788 C   0  0  2  0  0  0  0  0  0  0  0  0
   -1.8799   -2.1393   27.7400 O   0  0  0  0  0  0  0  0  0  0  0  0
    3.0143    6.3484   27.7517 C   0  0  2  0  0  0  0  0  0  0  0  0
    4.4362    6.5562   28.0062 O   0  0  0  0  0  0  0  0  0  0  0  0
    4.1905    5.2081   25.2811 C   0  0  2  0  0  0  0  0  0  0  0  0
    3.5887    3.9362   24.9255 O   0  0  0  0  0  0  0  0  0  0  0  0
    3.2713    1.2910   27.8308 C   0  0  0  0  0  0  0  0  0  0  0  0
    3.6227    1.4822   29.1901 O   0  0  0  0  0  0  0  0  0  0  0  0
   -1.4457   -1.3478   25.4597 C   0  0  1  0  0  0  0  0  0  0  0  0
   -0.5451   -0.2711   25.8625 O   0  0  0  0  0  0  0  0  0  0  0  0
    2.4480    7.7040   27.2734 C   0  0  0  0  0  0  0  0  0  0  0  0
    3.4818    8.5658   26.8284 O   0  0  0  0  0  0  0  0  0  0  0  0
    4.3296    6.0650   23.9845 C   0  0  1  0  0  0  0  0  0  0  0  0
    3.0256    6.4170   23.5248 O   0  0  0  0  0  0  0  0  0  0  0  0
   -0.6097   -2.6142   25.1427 C   0  0  0  0  0  0  0  0  0  0  0  0
   -1.3001   -3.5268   24.2135 N   0  0  0  0  0  0  0  0  0  0  0  0
  1  2  1  6  0  0  0
  1  7  1  0  0  0  0
  1 30  1  0  0  0  0
  3  4  1  6  0  0  0
  3  9  1  0  0  0  0
  3 39  1  0  0  0  0
  5 10  1  0  0  0  0
  5 26  1  0  0  0  0
  5 32  1  6  0  0  0
  6 12  1  0  0  0  0
  6 36  1  0  0  0  0
  6 19  1  1  0  0  0
  7  8  1  6  0  0  0
  7 14  1  0  0  0  0
  9 16  1  0  0  0  0
 10 11  1  6  0  0  0
 10 18  1  0  0  0  0
 12 13  1  1  0  0  0
 12 20  1  0  0  0  0
 14 15  1  1  0  0  0
 14 22  1  0  0  0  0
 16 17  1  6  0  0  0
 16 24  1  0  0  0  0
 18 19  1  1  0  0  0
 18 25  1  0  0  0  0
 20 21  1  6  0  0  0
 20 27  1  0  0  0  0
 22 23  1  6  0  0  0
 22 29  1  0  0  0  0
 24  2  1  1  0  0  0
 24 31  1  0  0  0  0
 25 26  1  0  0  0  0
 25 33  1  6  0  0  0
 27 28  1  1  0  0  0
 27 35  1  0  0  0  0
 29 30  1  0  0  0  0
 29 37  1  1  0  0  0
 31 32  1  6  0  0  0
 31 39  1  0  0  0  0
 33 34  1  0  0  0  0
 35 36  1  0  0  0  0
 35 41  1  1  0  0  0
 37 38  1  0  0  0  0
 39 40  1  1  0  0  0
 41 42  1  0  0  0  0
M  END
>  <CHROM.1>
164.63578496,33.51696268,-168.93485628,107.23667172,144.13735680,-178.42140068
156.35358868,-167.05165544,106.50416237,127.41025780,-49.55520752,80.45905899
-152.54068570,79.18485188,139.54890667,115.94821507,-178.11601531,-177.36821394
82.59947118,-59.92541153,64.95928953,-13.60472163,2.16910655,3.30402999,26.68700351
-0.07191190,0.82465045,1.67617279

>  <Name>
1fyp_lig

>  <RI>
0

>  <Rbt.Current_Directory>
/home/itssahil/PROJECTS/Mol_Feturizer/New_Systems/rnas/1fyp

>  <Rbt.Executable>
rbdock ($Id: //depot/dev/client3/rdock/2013.1/src/exe/rbdock.cxx#4 $)

>  <Rbt.Library>
libRbt.so (2013.1, Build901 2013/11/27)

>  <Rbt.Parameter_File>
/export/apps/rDock/src/rDock_2013.1_src/data/scripts/dock_solv.prm

>  <Rbt.Receptor>
prm/pocket_docking_4.prm

>  <SCORE>
-53.3348

>  <SCORE.INTER>
-59.3038

>  <SCORE.INTER.CONST>
1

>  <SCORE.INTER.POLAR>
-8.43877

>  <SCORE.INTER.ROT>
14

>  <SCORE.INTER.SOLV>
15.6652

>  <SCORE.INTER.VDW>
-29.5617

>  <SCORE.INTER.norm>
-1.412

>  <SCORE.INTRA>
5.96903

>  <SCORE.INTRA.DIHEDRAL>
-0.459331

>  <SCORE.INTRA.DIHEDRAL.0>
48.7173

>  <SCORE.INTRA.POLAR>
0.878598

>  <SCORE.INTRA.POLAR.0>
-1.54691

>  <SCORE.INTRA.REPUL>
0.0387382

>  <SCORE.INTRA.REPUL.0>
0

>  <SCORE.INTRA.SOLV>
2.08466

>  <SCORE.INTRA.SOLV.lig_0>
-64.052

>  <SCORE.INTRA.VDW>
1.97544

>  <SCORE.INTRA.VDW.0>
-7.0667

>  <SCORE.INTRA.norm>
0.14212

>  <SCORE.RESTR>
0

>  <SCORE.RESTR.CAVITY>
0

>  <SCORE.RESTR.norm>
0

>  <SCORE.SYSTEM>
0

>  <SCORE.SYSTEM.CONST>
0

>  <SCORE.SYSTEM.DIHEDRAL>
0

>  <SCORE.SYSTEM.SOLV>
0

>  <SCORE.SYSTEM.norm>
0

>  <SCORE.heavy>
42

>  <SCORE.norm>
-1.26988

>  <RMSD>
3.693

$$$$
1fyp_lig
 OpenBabel11021811393D
libRbt.so/2013.1/901 2013/11/27
 42 45  0  0  0  0  0  0  0  0999 V2000
    5.2885    5.5024   29.2525 C   0  0  2  0  0  0  0  0  0  0  0  0
    5.7372    4.4762   28.3208 O   0  0  0  0  0  0  0  0  0  0  0  0
    4.6063    6.7111   24.8615 C   0  0  2  0  0  0  0  0  0  0  0  0
    4.4582    7.2921   23.5143 N   0  0  0  0  0  0  0  0  0  0  0  0
    2.6468    2.7249   26.4143 C   0  0  1  0  0  0  0  0  0  0  0  0
   -0.6597   -0.0143   25.8191 C   0  0  1  0  0  0  0  0  0  0  0  0
    4.8750    4.8857   30.6276 C   0  0  2  0  0  0  0  0  0  0  0  0
    5.9316    3.9969   31.1561 N   0  0  0  0  0  0  0  0  0  0  0  0
    6.0817    6.8010   25.2995 C   0  0  0  0  0  0  0  0  0  0  0  0
    2.5126    1.2976   25.8772 C   0  0  2  0  0  0  0  0  0  0  0  0
    2.0135    1.3360   24.5397 O   0  0  0  0  0  0  0  0  0  0  0  0
   -0.3876   -0.0810   24.2853 C   0  0  2  0  0  0  0  0  0  0  0  0
   -0.4302    1.2534   23.6388 N   0  0  0  0  0  0  0  0  0  0  0  0
    3.5259    4.1104   30.5062 C   0  0  1  0  0  0  0  0  0  0  0  0
    3.0823    3.6908   31.7942 O   0  0  0  0  0  0  0  0  0  0  0  0
    6.3072    6.2299   26.7262 C   0  0  2  0  0  0  0  0  0  0  0  0
    7.7556    6.2895   27.0126 N   0  0  0  0  0  0  0  0  0  0  0  0
    1.4829    0.6966   26.8379 C   0  0  2  0  0  0  0  0  0  0  0  0
    0.1218    1.0335   26.4501 O   0  0  0  0  0  0  0  0  0  0  0  0
   -1.3641   -1.0793   23.5906 C   0  0  1  0  0  0  0  0  0  0  0  0
   -0.9688   -2.4078   23.9258 O   0  0  0  0  0  0  0  0  0  0  0  0
    2.4171    4.9804   29.8627 C   0  0  2  0  0  0  0  0  0  0  0  0
    1.2443    4.1898   29.6951 O   0  0  0  0  0  0  0  0  0  0  0  0
    5.7484    4.7713   26.8945 C   0  0  2  0  0  0  0  0  0  0  0  0
    1.8487    1.3733   28.1663 C   0  0  2  0  0  0  0  0  0  0  0  0
    2.3549    2.6770   27.8201 O   0  0  0  0  0  0  0  0  0  0  0  0
   -2.8574   -0.8971   23.9990 C   0  0  2  0  0  0  0  0  0  0  0  0
   -3.3563    0.2893   23.3791 O   0  0  0  0  0  0  0  0  0  0  0  0
    2.8978    5.5434   28.4951 C   0  0  2  0  0  0  0  0  0  0  0  0
    4.1602    6.2503   28.6861 O   0  0  0  0  0  0  0  0  0  0  0  0
    4.2965    4.6020   26.3170 C   0  0  2  0  0  0  0  0  0  0  0  0
    4.0145    3.1820   26.2137 O   0  0  0  0  0  0  0  0  0  0  0  0
    2.9036    0.5926   28.9703 C   0  0  0  0  0  0  0  0  0  0  0  0
    4.2016    0.8105   28.4457 O   0  0  0  0  0  0  0  0  0  0  0  0
   -2.9993   -0.7955   25.5494 C   0  0  1  0  0  0  0  0  0  0  0  0
   -2.0880    0.2253   26.0594 O   0  0  0  0  0  0  0  0  0  0  0  0
    1.9274    6.5438   27.8283 C   0  0  0  0  0  0  0  0  0  0  0  0
    1.8971    7.7762   28.5281 O   0  0  0  0  0  0  0  0  0  0  0  0
    4.1254    5.2406   24.9038 C   0  0  1  0  0  0  0  0  0  0  0  0
    2.7466    5.1885   24.5402 O   0  0  0  0  0  0  0  0  0  0  0  0
   -4.4435   -0.4531   25.9967 C   0  0  0  0  0  0  0  0  0  0  0  0
   -5.4077   -1.5115   25.6457 N   0  0  0  0  0  0  0  0  0  0  0  0
  1  2  1  6  0  0  0
  1  7  1  0  0  0  0
  1 30  1  0  0  0  0
  3  4  1  6  0  0  0
  3  9  1  0  0  0  0
  3 39  1  0  0  0  0
  5 10  1  0  0  0  0
  5 26  1  0  0  0  0
  5 32  1  1  0  0  0
  6 12  1  0  0  0  0
  6 36  1  0  0  0  0
  6 19  1  6  0  0  0
  7  8  1  6  0  0  0
  7 14  1  0  0  0  0
  9 16  1  0  0  0  0
 10 11  1  6  0  0  0
 10 18  1  0  0  0  0
 12 13  1  6  0  0  0
 12 20  1  0  0  0  0
 14 15  1  1  0  0  0
 14 22  1  0  0  0  0
 16 17  1  6  0  0  0
 16 24  1  0  0  0  0
 18 19  1  6  0  0  0
 18 25  1  0  0  0  0
 20 21  1  1  0  0  0
 20 27  1  0  0  0  0
 22 23  1  6  0  0  0
 22 29  1  0  0  0  0
 24  2  1  1  0  0  0
 24 31  1  0  0  0  0
 25 26  1  0  0  0  0
 25 33  1  6  0  0  0
 27 28  1  6  0  0  0
 27 35  1  0  0  0  0
 29 30  1  0  0  0  0
 29 37  1  1  0  0  0
 31 32  1  6  0  0  0
 31 39  1  0  0  0  0
 33 34  1  0  0  0  0
 35 36  1  0  0  0  0
 35 41  1  6  0  0  0
 37 38  1  0  0  0  0
 39 40  1  1  0  0  0
 41 42  1  0  0  0  0
M  END
>  <CHROM.1>
160.29848515,42.08693511,65.77928350,-48.91043169,59.79037435,2.10710216
-50.83994390,-58.84944088,104.31981870,-84.75913634,-173.37735595,-59.34911127
78.32371692,-45.51829698,70.77549443,147.30908971,164.07605767,158.52634945
64.18618701,56.16156887,64.01688918,92.97295746,2.08583388,2.97725239,26.81559610
0.19719411,0.74540545,1.75116582

>  <Name>
1fyp_lig

>  <RI>
0

>  <Rbt.Current_Directory>
/home/itssahil/PROJECTS/Mol_Feturizer/New_Systems/rnas/1fyp

>  <Rbt.Executable>
rbdock ($Id: //depot/dev/client3/rdock/2013.1/src/exe/rbdock.cxx#4 $)

>  <Rbt.Library>
libRbt.so (2013.1, Build901 2013/11/27)

>  <Rbt.Parameter_File>
/export/apps/rDock/src/rDock_2013.1_src/data/scripts/dock_solv.prm

>  <Rbt.Receptor>
prm/blind_docking_60.prm

>  <SCORE>
-45.6049

>  <SCORE.INTER>
-36.6043

>  <SCORE.INTER.CONST>
1

>  <SCORE.INTER.POLAR>
-4.14597

>  <SCORE.INTER.ROT>
14

>  <SCORE.INTER.SOLV>
14.8832

>  <SCORE.INTER.VDW>
-28.4774

>  <SCORE.INTER.norm>
-0.871532

>  <SCORE.INTRA>
-9.10105

>  <SCORE.INTRA.DIHEDRAL>
-21.766

>  <SCORE.INTRA.DIHEDRAL.0>
48.7173

>  <SCORE.INTRA.POLAR>
-0.552737

>  <SCORE.INTRA.POLAR.0>
-1.54691

>  <SCORE.INTRA.REPUL>
0

>  <SCORE.INTRA.REPUL.0>
0

>  <SCORE.INTRA.SOLV>
1.59389

>  <SCORE.INTRA.SOLV.lig_0>
-64.052

>  <SCORE.INTRA.VDW>
2.86432

>  <SCORE.INTRA.VDW.0>
-7.0667

>  <SCORE.INTRA.norm>
-0.216692

>  <SCORE.RESTR>
0.100529

>  <SCORE.RESTR.CAVITY>
0.100529

>  <SCORE.RESTR.norm>
0.00239356

>  <SCORE.SYSTEM>
0

>  <SCORE.SYSTEM.CONST>
0

>  <SCORE.SYSTEM.DIHEDRAL>
0

>  <SCORE.SYSTEM.SOLV>
0

>  <SCORE.SYSTEM.norm>
0

>  <SCORE.heavy>
42

>  <SCORE.norm>
-1.08583

>  <RMSD>
3.694

$$$$
1fyp_lig
 OpenBabel11021811393D
libRbt.so/2013.1/901 2013/11/27
 42 45  0  0  0  0  0  0  0  0999 V2000
    8.0595    7.1575   24.9490 C   0  0  2  0  0  0  0  0  0  0  0  0
    6.7775    7.6666   25.4177 O   0  0  0  0  0  0  0  0  0  0  0  0
    3.4760    9.8864   23.8642 C   0  0  2  0  0  0  0  0  0  0  0  0
    2.3811   10.4502   23.0532 N   0  0  0  0  0  0  0  0  0  0  0  0
    2.9751    6.0314   26.2670 C   0  0  1  0  0  0  0  0  0  0  0  0
    0.6084    3.2666   28.7440 C   0  0  1  0  0  0  0  0  0  0  0  0
    8.8034    6.3614   26.0694 C   0  0  2  0  0  0  0  0  0  0  0  0
    7.9229    5.3408   26.6767 N   0  0  0  0  0  0  0  0  0  0  0  0
    4.7870    9.9254   23.0538 C   0  0  0  0  0  0  0  0  0  0  0  0
    3.1382    4.5575   26.6476 C   0  0  2  0  0  0  0  0  0  0  0  0
    2.3184    3.7522   25.7997 O   0  0  0  0  0  0  0  0  0  0  0  0
   -0.9332    3.1940   28.5216 C   0  0  2  0  0  0  0  0  0  0  0  0
   -1.6164    4.4732   28.8333 N   0  0  0  0  0  0  0  0  0  0  0  0
    9.3512    7.3264   27.1670 C   0  0  1  0  0  0  0  0  0  0  0  0
   10.1601    6.6073   28.0945 O   0  0  0  0  0  0  0  0  0  0  0  0
    5.9929    9.3697   23.8597 C   0  0  2  0  0  0  0  0  0  0  0  0
    7.1725    9.3770   22.9697 N   0  0  0  0  0  0  0  0  0  0  0  0
    2.6247    4.5475   28.0900 C   0  0  2  0  0  0  0  0  0  0  0  0
    1.1735    4.4622   28.1458 O   0  0  0  0  0  0  0  0  0  0  0  0
   -1.5550    2.0090   29.3229 C   0  0  1  0  0  0  0  0  0  0  0  0
   -1.1980    0.7885   28.6776 O   0  0  0  0  0  0  0  0  0  0  0  0
   10.1994    8.4705   26.5572 C   0  0  2  0  0  0  0  0  0  0  0  0
   10.5897    9.3642   27.5954 O   0  0  0  0  0  0  0  0  0  0  0  0
    5.7259    7.9372   24.4470 C   0  0  2  0  0  0  0  0  0  0  0  0
    3.1059    5.9083   28.6125 C   0  0  2  0  0  0  0  0  0  0  0  0
    3.0898    6.7961   27.4778 O   0  0  0  0  0  0  0  0  0  0  0  0
   -1.0876    1.9303   30.8080 C   0  0  2  0  0  0  0  0  0  0  0  0
   -1.7200    2.9817   31.5395 O   0  0  0  0  0  0  0  0  0  0  0  0
    9.3871    9.2220   25.4647 C   0  0  2  0  0  0  0  0  0  0  0  0
    8.9070    8.2592   24.4787 O   0  0  0  0  0  0  0  0  0  0  0  0
    4.3255    7.8156   25.1500 C   0  0  2  0  0  0  0  0  0  0  0  0
    4.0409    6.4064   25.3486 O   0  0  0  0  0  0  0  0  0  0  0  0
    4.5180    5.8551   29.2224 C   0  0  0  0  0  0  0  0  0  0  0  0
    4.5253    5.0864   30.4127 O   0  0  0  0  0  0  0  0  0  0  0  0
    0.4639    2.0617   30.9082 C   0  0  1  0  0  0  0  0  0  0  0  0
    0.9033    3.2500   30.1821 O   0  0  0  0  0  0  0  0  0  0  0  0
   10.1834   10.2927   24.6858 C   0  0  0  0  0  0  0  0  0  0  0  0
   10.6000   11.3460   25.5382 O   0  0  0  0  0  0  0  0  0  0  0  0
    3.1667    8.4369   24.3099 C   0  0  1  0  0  0  0  0  0  0  0  0
    1.9762    8.4331   25.0963 O   0  0  0  0  0  0  0  0  0  0  0  0
    0.9631    2.1508   32.3731 C   0  0  0  0  0  0  0  0  0  0  0  0
    2.4281    2.2891   32.4614 N   0  0  0  0  0  0  0  0  0  0  0  0
  1  2  1  1  0  0  0
  1  7  1  0  0  0  0
  1 30  1  0  0  0  0
  3  4  1  6  0  0  0
  3  9  1  0  0  0  0
  3 39  1  0  0  0  0
  5 10  1  0  0  0  0
  5 26  1  0  0  0  0
  5 32  1  6  0  0  0
  6 12  1  0  0  0  0
  6 36  1  0  0  0  0
  6 19  1  1  0  0  0
  7  8  1  1  0  0  0
  7 14  1  0  0  0  0
  9 16  1  0  0  0  0
 10 11  1  6  0  0  0
 10 18  1  0  0  0  0
 12 13  1  1  0  0  0
 12 20  1  0  0  0  0
 14 15  1  1  0  0  0
 14 22  1  0  0  0  0
 16 17  1  6  0  0  0
 16 24  1  0  0  0  0
 18 19  1  6  0  0  0
 18 25  1  0  0  0  0
 20 21  1  6  0  0  0
 20 27  1  0  0  0  0
 22 23  1  1  0  0  0
 22 29  1  0  0  0  0
 24  2  1  1  0  0  0
 24 31  1  0  0  0  0
 25 26  1  0  0  0  0
 25 33  1  6  0  0  0
 27 28  1  1  0  0  0
 27 35  1  0  0  0  0
 29 30  1  0  0  0  0
 29 37  1  6  0  0  0
 31 32  1  6  0  0  0
 31 39  1  0  0  0  0
 33 34  1  0  0  0  0
 35 36  1  0  0  0  0
 35 41  1  1  0  0  0
 37 38  1  0  0  0  0
 39 40  1  1  0  0  0
 41 42  1  0  0  0  0
M  END
>  <CHROM.1>
-155.17134573,-83.47473532,-53.24142212,78.31626678,-45.69803310,76.90554511
-64.75543867,-58.77631499,115.49092027,-170.31320764,171.79988402,66.14113422
-67.20220592,175.40120138,-64.09842069,164.90089514,-162.57577526,-59.30146001
-179.39502320,-172.96267486,65.17823456,-167.04026149,4.26107165,6.21099261
27.09738661,-0.72136367,0.21508371,2.24602452

>  <Name>
1fyp_lig

>  <RI>
0

>  <Rbt.Current_Directory>
/home/itssahil/PROJECTS/Mol_Feturizer/New_Systems/rnas/1fyp

>  <Rbt.Executable>
rbdock ($Id: //depot/dev/client3/rdock/2013.1/src/exe/rbdock.cxx#4 $)

>  <Rbt.Library>
libRbt.so (2013.1, Build901 2013/11/27)

>  <Rbt.Parameter_File>
/export/apps/rDock/src/rDock_2013.1_src/data/scripts/dock_solv.prm

>  <Rbt.Receptor>
prm/pocket_docking_8.prm

>  <SCORE>
-53.0381

>  <SCORE.INTER>
-45.3467

>  <SCORE.INTER.CONST>
1

>  <SCORE.INTER.POLAR>
-5.21265

>  <SCORE.INTER.ROT>
14

>  <SCORE.INTER.SOLV>
20.8266

>  <SCORE.INTER.VDW>
-32.7311

>  <SCORE.INTER.norm>
-1.07968

>  <SCORE.INTRA>
-7.69148

>  <SCORE.INTRA.DIHEDRAL>
-29.9188

>  <SCORE.INTRA.DIHEDRAL.0>
48.7173

>  <SCORE.INTRA.POLAR>
1.54293

>  <SCORE.INTRA.POLAR.0>
-1.54691

>  <SCORE.INTRA.REPUL>
0.00377202

>  <SCORE.INTRA.REPUL.0>
0

>  <SCORE.INTRA.SOLV>
-2.80848

>  <SCORE.INTRA.SOLV.lig_0>
-64.052

>  <SCORE.INTRA.VDW>
3.40735

>  <SCORE.INTRA.VDW.0>
-7.0667

>  <SCORE.INTRA.norm>
-0.18313

>  <SCORE.RESTR>
0

>  <SCORE.RESTR.CAVITY>
0

>  <SCORE.RESTR.norm>
0

>  <SCORE.SYSTEM>
0

>  <SCORE.SYSTEM.CONST>
0

>  <SCORE.SYSTEM.DIHEDRAL>
0

>  <SCORE.SYSTEM.SOLV>
0

>  <SCORE.SYSTEM.norm>
0

>  <SCORE.heavy>
42

>  <SCORE.norm>
-1.26281

>  <RMSD>
3.701

$$$$
1fyp_lig
 OpenBabel11021811393D
libRbt.so/2013.1/901 2013/11/27
 42 45  0  0  0  0  0  0  0  0999 V2000
    5.3247    5.9182   30.0583 C   0  0  2  0  0  0  0  0  0  0  0  0
    6.0216    5.0994   29.0753 O   0  0  0  0  0  0  0  0  0  0  0  0
    5.4367    7.8333   25.8466 C   0  0  2  0  0  0  0  0  0  0  0  0
    5.5356    8.6502   24.6229 N   0  0  0  0  0  0  0  0  0  0  0  0
    3.8393    3.4313   26.0887 C   0  0  1  0  0  0  0  0  0  0  0  0
    0.5962    0.5206   25.4483 C   0  0  1  0  0  0  0  0  0  0  0  0
    5.1194    5.1481   31.4026 C   0  0  2  0  0  0  0  0  0  0  0  0
    6.3879    4.5599   31.8827 N   0  0  0  0  0  0  0  0  0  0  0  0
    6.7209    8.0041   26.6825 C   0  0  0  0  0  0  0  0  0  0  0  0
    4.0905    2.0001   25.6067 C   0  0  2  0  0  0  0  0  0  0  0  0
    4.1332    1.9779   24.1794 O   0  0  0  0  0  0  0  0  0  0  0  0
    0.0037    0.0457   24.0865 C   0  0  2  0  0  0  0  0  0  0  0  0
   -0.2167    1.1645   23.1379 N   0  0  0  0  0  0  0  0  0  0  0  0
    4.0325    4.0387   31.2476 C   0  0  1  0  0  0  0  0  0  0  0  0
    3.7429    3.4537   32.5147 O   0  0  0  0  0  0  0  0  0  0  0  0
    6.6744    7.1899   28.0043 C   0  0  2  0  0  0  0  0  0  0  0  0
    7.9755    7.3583   28.6843 N   0  0  0  0  0  0  0  0  0  0  0  0
    2.8543    1.2690   26.1374 C   0  0  2  0  0  0  0  0  0  0  0  0
    1.7109    1.4293   25.2522 O   0  0  0  0  0  0  0  0  0  0  0  0
   -1.3027   -0.7778   24.3059 C   0  0  1  0  0  0  0  0  0  0  0  0
   -0.9503   -2.0556   24.8318 O   0  0  0  0  0  0  0  0  0  0  0  0
    2.7171    4.6000   30.6518 C   0  0  2  0  0  0  0  0  0  0  0  0
    1.8031    3.5265   30.4493 O   0  0  0  0  0  0  0  0  0  0  0  0
    6.3392    5.6723   27.7744 C   0  0  2  0  0  0  0  0  0  0  0  0
    2.6068    1.9833   27.4734 C   0  0  2  0  0  0  0  0  0  0  0  0
    3.0457    3.3423   27.2829 O   0  0  0  0  0  0  0  0  0  0  0  0
   -2.3185   -0.1115   25.2827 C   0  0  2  0  0  0  0  0  0  0  0  0
   -2.9254    0.9985   24.6192 O   0  0  0  0  0  0  0  0  0  0  0  0
    3.0018    5.3367   29.3123 C   0  0  2  0  0  0  0  0  0  0  0  0
    4.0252    6.3532   29.5336 O   0  0  0  0  0  0  0  0  0  0  0  0
    5.1255    5.4548   26.8000 C   0  0  2  0  0  0  0  0  0  0  0  0
    5.1158    4.0611   26.3951 O   0  0  0  0  0  0  0  0  0  0  0  0
    3.3650    1.3424   28.6494 C   0  0  0  0  0  0  0  0  0  0  0  0
    4.7547    1.6027   28.5562 O   0  0  0  0  0  0  0  0  0  0  0  0
   -1.6036    0.3644   26.5853 C   0  0  1  0  0  0  0  0  0  0  0  0
   -0.4473    1.1859   26.2381 O   0  0  0  0  0  0  0  0  0  0  0  0
    1.7832    6.0622   28.6993 C   0  0  0  0  0  0  0  0  0  0  0  0
    2.0256    7.4524   28.5649 O   0  0  0  0  0  0  0  0  0  0  0  0
    5.2093    6.3383   25.5167 C   0  0  1  0  0  0  0  0  0  0  0  0
    3.9927    6.2006   24.7841 O   0  0  0  0  0  0  0  0  0  0  0  0
   -2.5387    1.1761   27.5181 C   0  0  0  0  0  0  0  0  0  0  0  0
   -3.4039    0.3106   28.3399 N   0  0  0  0  0  0  0  0  0  0  0  0
  1  2  1  6  0  0  0
  1  7  1  0  0  0  0
  1 30  1  0  0  0  0
  3  4  1  6  0  0  0
  3  9  1  0  0  0  0
  3 39  1  0  0  0  0
  5 10  1  0  0  0  0
  5 26  1  0  0  0  0
  5 32  1  1  0  0  0
  6 12  1  0  0  0  0
  6 36  1  0  0  0  0
  6 19  1  6  0  0  0
  7  8  1  6  0  0  0
  7 14  1  0  0  0  0
  9 16  1  0  0  0  0
 10 11  1  6  0  0  0
 10 18  1  0  0  0  0
 12 13  1  6  0  0  0
 12 20  1  0  0  0  0
 14 15  1  1  0  0  0
 14 22  1  0  0  0  0
 16 17  1  6  0  0  0
 16 24  1  0  0  0  0
 18 19  1  6  0  0  0
 18 25  1  0  0  0  0
 20 21  1  1  0  0  0
 20 27  1  0  0  0  0
 22 23  1  6  0  0  0
 22 29  1  0  0  0  0
 24  2  1  1  0  0  0
 24 31  1  0  0  0  0
 25 26  1  0  0  0  0
 25 33  1  1  0  0  0
 27 28  1  6  0  0  0
 27 35  1  0  0  0  0
 29 30  1  0  0  0  0
 29 37  1  1  0  0  0
 31 32  1  6  0  0  0
 31 39  1  0  0  0  0
 33 34  1  0  0  0  0
 35 36  1  0  0  0  0
 35 41  1  1  0  0  0
 37 38  1  0  0  0  0
 39 40  1  1  0  0  0
 41 42  1  0  0  0  0
M  END
>  <CHROM.1>
-177.99243670,35.07095089,-171.65536406,-42.16173363,94.83493887,73.61215569
-60.29597443,170.90417183,164.48145908,-139.51137518,-60.01550310,160.22112967
71.72566400,56.31127020,120.17531792,149.46298324,176.53255425,164.35392100
81.23181929,-67.90139836,-58.09673058,179.64115565,2.82504131,3.55079086
27.33859607,0.32212198,0.74037865,1.58214878

>  <Name>
1fyp_lig

>  <RI>
0

>  <Rbt.Current_Directory>
/home/itssahil/PROJECTS/Mol_Feturizer/New_Systems/rnas/1fyp

>  <Rbt.Executable>
rbdock ($Id: //depot/dev/client3/rdock/2013.1/src/exe/rbdock.cxx#4 $)

>  <Rbt.Library>
libRbt.so (2013.1, Build901 2013/11/27)

>  <Rbt.Parameter_File>
/export/apps/rDock/src/rDock_2013.1_src/data/scripts/dock_solv.prm

>  <Rbt.Receptor>
prm/pocket_docking_8.prm

>  <SCORE>
-51.3582

>  <SCORE.INTER>
-46.2002

>  <SCORE.INTER.CONST>
1

>  <SCORE.INTER.POLAR>
-7.23882

>  <SCORE.INTER.ROT>
14

>  <SCORE.INTER.SOLV>
16.4857

>  <SCORE.INTER.VDW>
-25.0993

>  <SCORE.INTER.norm>
-1.10001

>  <SCORE.INTRA>
-5.15795

>  <SCORE.INTRA.DIHEDRAL>
-19.4749

>  <SCORE.INTRA.DIHEDRAL.0>
48.7173

>  <SCORE.INTRA.POLAR>
1.50224

>  <SCORE.INTRA.POLAR.0>
-1.54691

>  <SCORE.INTRA.REPUL>
0

>  <SCORE.INTRA.REPUL.0>
0

>  <SCORE.INTRA.SOLV>
-1.18451

>  <SCORE.INTRA.SOLV.lig_0>
-64.052

>  <SCORE.INTRA.VDW>
0.0641525

>  <SCORE.INTRA.VDW.0>
-7.0667

>  <SCORE.INTRA.norm>
-0.122808

>  <SCORE.RESTR>
0

>  <SCORE.RESTR.CAVITY>
0

>  <SCORE.RESTR.norm>
0

>  <SCORE.SYSTEM>
0

>  <SCORE.SYSTEM.CONST>
0

>  <SCORE.SYSTEM.DIHEDRAL>
0

>  <SCORE.SYSTEM.SOLV>
0

>  <SCORE.SYSTEM.norm>
0

>  <SCORE.heavy>
42

>  <SCORE.norm>
-1.22281

>  <RMSD>
3.727

$$$$
1fyp_lig
 OpenBabel11021811393D
libRbt.so/2013.1/901 2013/11/27
 42 45  0  0  0  0  0  0  0  0999 V2000
    9.0724    8.4727   28.4192 C   0  0  2  0  0  0  0  0  0  0  0  0
    8.0162    7.6411   27.8578 O   0  0  0  0  0  0  0  0  0  0  0  0
    6.3328    8.5119   24.0304 C   0  0  2  0  0  0  0  0  0  0  0  0
    6.0227    8.6344   22.5940 N   0  0  0  0  0  0  0  0  0  0  0  0
    5.3073    4.7157   26.1740 C   0  0  1  0  0  0  0  0  0  0  0  0
    1.7978    2.3432   26.5326 C   0  0  1  0  0  0  0  0  0  0  0  0
   10.3973    7.6657   28.6074 C   0  0  2  0  0  0  0  0  0  0  0  0
   10.7716    6.9526   27.3676 N   0  0  0  0  0  0  0  0  0  0  0  0
    7.7721    9.0008   24.2880 C   0  0  0  0  0  0  0  0  0  0  0  0
    5.4540    3.3658   26.8811 C   0  0  2  0  0  0  0  0  0  0  0  0
    5.8978    2.3826   25.9452 O   0  0  0  0  0  0  0  0  0  0  0  0
    1.5526    1.6986   27.9310 C   0  0  2  0  0  0  0  0  0  0  0  0
    2.4147    0.5163   28.1743 N   0  0  0  0  0  0  0  0  0  0  0  0
   10.2718    6.6595   29.7939 C   0  0  1  0  0  0  0  0  0  0  0  0
   11.5323    6.0472   30.0548 O   0  0  0  0  0  0  0  0  0  0  0  0
    8.1584    8.9253   25.7905 C   0  0  2  0  0  0  0  0  0  0  0  0
    9.5724    9.3364   25.9142 N   0  0  0  0  0  0  0  0  0  0  0  0
    4.0177    3.0922   27.3357 C   0  0  2  0  0  0  0  0  0  0  0  0
    3.2151    2.5131   26.2695 O   0  0  0  0  0  0  0  0  0  0  0  0
    0.0446    1.3508   28.1258 C   0  0  1  0  0  0  0  0  0  0  0  0
   -0.6776    2.5632   28.3306 O   0  0  0  0  0  0  0  0  0  0  0  0
    9.7842    7.3547   31.0898 C   0  0  2  0  0  0  0  0  0  0  0  0
    9.6014    6.3717   32.1043 O   0  0  0  0  0  0  0  0  0  0  0  0
    7.9181    7.5022   26.4112 C   0  0  2  0  0  0  0  0  0  0  0  0
    3.5167    4.5007   27.6843 C   0  0  2  0  0  0  0  0  0  0  0  0
    4.2025    5.3975   26.7892 O   0  0  0  0  0  0  0  0  0  0  0  0
   -0.5961    0.5992   26.9198 C   0  0  2  0  0  0  0  0  0  0  0  0
   -0.1104   -0.7442   26.9119 O   0  0  0  0  0  0  0  0  0  0  0  0
    8.4575    8.1216   30.8252 C   0  0  2  0  0  0  0  0  0  0  0  0
    8.6499    9.0378   29.7057 O   0  0  0  0  0  0  0  0  0  0  0  0
    6.5136    6.9024   26.0404 C   0  0  2  0  0  0  0  0  0  0  0  0
    6.5267    5.4879   26.3652 O   0  0  0  0  0  0  0  0  0  0  0  0
    3.7958    4.8956   29.1454 C   0  0  0  0  0  0  0  0  0  0  0  0
    3.1474    6.1123   29.4724 O   0  0  0  0  0  0  0  0  0  0  0  0
   -0.2435    1.3075   25.5750 C   0  0  1  0  0  0  0  0  0  0  0  0
    1.2011    1.5024   25.4874 O   0  0  0  0  0  0  0  0  0  0  0  0
    7.9526    8.9728   32.0116 C   0  0  0  0  0  0  0  0  0  0  0  0
    7.4878    8.1544   33.0716 O   0  0  0  0  0  0  0  0  0  0  0  0
    6.1668    7.0553   24.5268 C   0  0  1  0  0  0  0  0  0  0  0  0
    4.8169    6.6417   24.3209 O   0  0  0  0  0  0  0  0  0  0  0  0
   -0.7220    0.5093   24.3352 C   0  0  0  0  0  0  0  0  0  0  0  0
   -0.4163    1.1992   23.0689 N   0  0  0  0  0  0  0  0  0  0  0  0
  1  2  1  1  0  0  0
  1  7  1  0  0  0  0
  1 30  1  0  0  0  0
  3  4  1  6  0  0  0
  3  9  1  0  0  0  0
  3 39  1  0  0  0  0
  5 10  1  0  0  0  0
  5 26  1  0  0  0  0
  5 32  1  1  0  0  0
  6 12  1  0  0  0  0
  6 36  1  0  0  0  0
  6 19  1  6  0  0  0
  7  8  1  6  0  0  0
  7 14  1  0  0  0  0
  9 16  1  0  0  0  0
 10 11  1  6  0  0  0
 10 18  1  0  0  0  0
 12 13  1  6  0  0  0
 12 20  1  0  0  0  0
 14 15  1  1  0  0  0
 14 22  1  0  0  0  0
 16 17  1  6  0  0  0
 16 24  1  0  0  0  0
 18 19  1  6  0  0  0
 18 25  1  0  0  0  0
 20 21  1  6  0  0  0
 20 27  1  0  0  0  0
 22 23  1  1  0  0  0
 22 29  1  0  0  0  0
 24  2  1  1  0  0  0
 24 31  1  0  0  0  0
 25 26  1  0  0  0  0
 25 33  1  1  0  0  0
 27 28  1  6  0  0  0
 27 35  1  0  0  0  0
 29 30  1  0  0  0  0
 29 37  1  1  0  0  0
 31 32  1  6  0  0  0
 31 39  1  0  0  0  0
 33 34  1  0  0  0  0
 35 36  1  0  0  0  0
 35 41  1  6  0  0  0
 37 38  1  0  0  0  0
 39 40  1  1  0  0  0
 41 42  1  0  0  0  0
M  END
>  <CHROM.1>
-86.43723270,-42.10077422,31.10601404,38.67089168,84.73319211,105.98894827
-69.82736637,13.19859669,-173.49431562,-46.56899119,58.36708774,-164.24445487
-171.42195716,-178.72080425,-70.32565091,176.94898712,-166.65804721,-68.51846001
178.56504155,-75.51444152,96.76898122,-169.61763924,5.34631047,5.20048322
27.35270544,-0.06433188,-0.69227318,-1.29955514

>  <Name>
1fyp_lig

>  <RI>
0

>  <Rbt.Current_Directory>
/home/itssahil/PROJECTS/Mol_Feturizer/New_Systems/rnas/1fyp

>  <Rbt.Executable>
rbdock ($Id: //depot/dev/client3/rdock/2013.1/src/exe/rbdock.cxx#4 $)

>  <Rbt.Library>
libRbt.so (2013.1, Build901 2013/11/27)

>  <Rbt.Parameter_File>
/export/apps/rDock/src/rDock_2013.1_src/data/scripts/dock_solv.prm

>  <Rbt.Receptor>
prm/pocket_docking_3.prm

>  <SCORE>
-45.6027

>  <SCORE.INTER>
-40.6096

>  <SCORE.INTER.CONST>
1

>  <SCORE.INTER.POLAR>
-5.00913

>  <SCORE.INTER.ROT>
14

>  <SCORE.INTER.SOLV>
16.4994

>  <SCORE.INTER.VDW>
-28.8091

>  <SCORE.INTER.norm>
-0.966895

>  <SCORE.INTRA>
-5.30745

>  <SCORE.INTRA.DIHEDRAL>
-24.3133

>  <SCORE.INTRA.DIHEDRAL.0>
48.7173

>  <SCORE.INTRA.POLAR>
0.113933

>  <SCORE.INTRA.POLAR.0>
-1.54691

>  <SCORE.INTRA.REPUL>
0.00230282

>  <SCORE.INTRA.REPUL.0>
0

>  <SCORE.INTRA.SOLV>
-2.19104

>  <SCORE.INTRA.SOLV.lig_0>
-64.052

>  <SCORE.INTRA.VDW>
7.54585

>  <SCORE.INTRA.VDW.0>
-7.0667

>  <SCORE.INTRA.norm>
-0.126368

>  <SCORE.RESTR>
0.314306

>  <SCORE.RESTR.CAVITY>
0.314306

>  <SCORE.RESTR.norm>
0.00748347

>  <SCORE.SYSTEM>
0

>  <SCORE.SYSTEM.CONST>
0

>  <SCORE.SYSTEM.DIHEDRAL>
0

>  <SCORE.SYSTEM.SOLV>
0

>  <SCORE.SYSTEM.norm>
0

>  <SCORE.heavy>
42

>  <SCORE.norm>
-1.08578

>  <RMSD>
3.733

$$$$
1fyp_lig
 OpenBabel11021811393D
libRbt.so/2013.1/901 2013/11/27
 42 45  0  0  0  0  0  0  0  0999 V2000
    5.6864    5.9814   29.8749 C   0  0  2  0  0  0  0  0  0  0  0  0
    6.2916    4.9404   29.0549 O   0  0  0  0  0  0  0  0  0  0  0  0
    5.1841    6.8484   25.3979 C   0  0  2  0  0  0  0  0  0  0  0  0
    5.0424    7.3007   24.0015 N   0  0  0  0  0  0  0  0  0  0  0  0
    3.2277    3.0230   26.6885 C   0  0  1  0  0  0  0  0  0  0  0  0
   -0.2434    0.6493   25.4435 C   0  0  1  0  0  0  0  0  0  0  0  0
    5.6200    5.5596   31.3782 C   0  0  2  0  0  0  0  0  0  0  0  0
    6.9345    5.0852   31.8606 N   0  0  0  0  0  0  0  0  0  0  0  0
    6.6601    6.9656   25.8277 C   0  0  0  0  0  0  0  0  0  0  0  0
    3.3579    1.8469   25.7171 C   0  0  2  0  0  0  0  0  0  0  0  0
    3.2908    2.3276   24.3740 O   0  0  0  0  0  0  0  0  0  0  0  0
   -0.1930   -0.4355   24.3246 C   0  0  2  0  0  0  0  0  0  0  0  0
    0.1710    0.1256   23.0006 N   0  0  0  0  0  0  0  0  0  0  0  0
    4.5333    4.4616   31.6002 C   0  0  1  0  0  0  0  0  0  0  0  0
    4.3737    4.2022   32.9927 O   0  0  0  0  0  0  0  0  0  0  0  0
    6.8792    6.5299   27.3023 C   0  0  2  0  0  0  0  0  0  0  0  0
    8.3279    6.6029   27.5841 N   0  0  0  0  0  0  0  0  0  0  0  0
    2.1252    1.0103   26.0705 C   0  0  2  0  0  0  0  0  0  0  0  0
    0.9292    1.5038   25.4052 O   0  0  0  0  0  0  0  0  0  0  0  0
   -1.5360   -1.2259   24.2560 C   0  0  1  0  0  0  0  0  0  0  0  0
   -1.6071   -2.0976   25.3823 O   0  0  0  0  0  0  0  0  0  0  0  0
    3.1610    4.8827   31.0171 C   0  0  2  0  0  0  0  0  0  0  0  0
    2.2414    3.8056   31.1678 O   0  0  0  0  0  0  0  0  0  0  0  0
    6.3066    5.0990   27.6071 C   0  0  2  0  0  0  0  0  0  0  0  0
    2.0218    1.2149   27.5884 C   0  0  2  0  0  0  0  0  0  0  0  0
    2.5232    2.5412   27.8440 O   0  0  0  0  0  0  0  0  0  0  0  0
   -2.8066   -0.3228   24.2571 C   0  0  2  0  0  0  0  0  0  0  0  0
   -2.9152    0.3099   22.9810 O   0  0  0  0  0  0  0  0  0  0  0  0
    3.3073    5.2720   29.5187 C   0  0  2  0  0  0  0  0  0  0  0  0
    4.3382    6.2968   29.3892 O   0  0  0  0  0  0  0  0  0  0  0  0
    4.8535    4.8894   27.0459 C   0  0  2  0  0  0  0  0  0  0  0  0
    4.5582    3.4688   27.0770 O   0  0  0  0  0  0  0  0  0  0  0  0
    2.8285    0.1801   28.3927 C   0  0  0  0  0  0  0  0  0  0  0  0
    4.1951    0.5479   28.4616 O   0  0  0  0  0  0  0  0  0  0  0  0
   -2.7219    0.7512   25.3856 C   0  0  1  0  0  0  0  0  0  0  0  0
   -1.4528    1.4669   25.2874 O   0  0  0  0  0  0  0  0  0  0  0  0
    2.0283    5.8470   28.8701 C   0  0  0  0  0  0  0  0  0  0  0  0
    2.3297    6.5643   27.6851 O   0  0  0  0  0  0  0  0  0  0  0  0
    4.6893    5.3931   25.5783 C   0  0  1  0  0  0  0  0  0  0  0  0
    3.3104    5.3196   25.2192 O   0  0  0  0  0  0  0  0  0  0  0  0
   -3.8851    1.7742   25.3261 C   0  0  0  0  0  0  0  0  0  0  0  0
   -5.1479    1.2222   25.8494 N   0  0  0  0  0  0  0  0  0  0  0  0
  1  2  1  6  0  0  0
  1  7  1  0  0  0  0
  1 30  1  0  0  0  0
  3  4  1  6  0  0  0
  3  9  1  0  0  0  0
  3 39  1  0  0  0  0
  5 10  1  0  0  0  0
  5 26  1  0  0  0  0
  5 32  1  1  0  0  0
  6 12  1  0  0  0  0
  6 36  1  0  0  0  0
  6 19  1  6  0  0  0
  7  8  1  6  0  0  0
  7 14  1  0  0  0  0
  9 16  1  0  0  0  0
 10 11  1  6  0  0  0
 10 18  1  0  0  0  0
 12 13  1  6  0  0  0
 12 20  1  0  0  0  0
 14 15  1  1  0  0  0
 14 22  1  0  0  0  0
 16 17  1  6  0  0  0
 16 24  1  0  0  0  0
 18 19  1  6  0  0  0
 18 25  1  0  0  0  0
 20 21  1  1  0  0  0
 20 27  1  0  0  0  0
 22 23  1  6  0  0  0
 22 29  1  0  0  0  0
 24  2  1  1  0  0  0
 24 31  1  0  0  0  0
 25 26  1  0  0  0  0
 25 33  1  1  0  0  0
 27 28  1  6  0  0  0
 27 35  1  0  0  0  0
 29 30  1  0  0  0  0
 29 37  1  1  0  0  0
 31 32  1  6  0  0  0
 31 39  1  0  0  0  0
 33 34  1  0  0  0  0
 35 36  1  0  0  0  0
 35 41  1  6  0  0  0
 37 38  1  0  0  0  0
 39 40  1  1  0  0  0
 41 42  1  0  0  0  0
M  END
>  <CHROM.1>
173.49779604,50.24344887,78.10943868,-164.74872697,-10.45877381,-87.44199043
58.47824960,-140.05192629,168.09568123,-83.12950116,179.61265962,167.85918459
81.84204312,175.51267800,161.02115660,175.91276089,132.88793391,102.77539186
76.78817618,-175.31760724,-59.87117759,33.74818639,2.56323852,3.27108705
27.11988281,0.37543613,0.66550685,1.66801528

>  <Name>
1fyp_lig

>  <RI>
0

>  <Rbt.Current_Directory>
/home/itssahil/PROJECTS/Mol_Feturizer/New_Systems/rnas/1fyp

>  <Rbt.Executable>
rbdock ($Id: //depot/dev/client3/rdock/2013.1/src/exe/rbdock.cxx#4 $)

>  <Rbt.Library>
libRbt.so (2013.1, Build901 2013/11/27)

>  <Rbt.Parameter_File>
/export/apps/rDock/src/rDock_2013.1_src/data/scripts/dock_solv.prm

>  <Rbt.Receptor>
prm/blind_docking_100.prm

>  <SCORE>
-48.659

>  <SCORE.INTER>
-42.6415

>  <SCORE.INTER.CONST>
1

>  <SCORE.INTER.POLAR>
-5.21669

>  <SCORE.INTER.ROT>
14

>  <SCORE.INTER.SOLV>
16.6489

>  <SCORE.INTER.VDW>
-29.5216

>  <SCORE.INTER.norm>
-1.01527

>  <SCORE.INTRA>
-6.5582

>  <SCORE.INTRA.DIHEDRAL>
-16.9221

>  <SCORE.INTRA.DIHEDRAL.0>
48.7173

>  <SCORE.INTRA.POLAR>
-0.65806

>  <SCORE.INTRA.POLAR.0>
-1.54691

>  <SCORE.INTRA.REPUL>
0

>  <SCORE.INTRA.REPUL.0>
0

>  <SCORE.INTRA.SOLV>
1.10659

>  <SCORE.INTRA.SOLV.lig_0>
-64.052

>  <SCORE.INTRA.VDW>
3.58696

>  <SCORE.INTRA.VDW.0>
-7.0667

>  <SCORE.INTRA.norm>
-0.156148

>  <SCORE.RESTR>
0.540714

>  <SCORE.RESTR.CAVITY>
0.540714

>  <SCORE.RESTR.norm>
0.0128741

>  <SCORE.SYSTEM>
0

>  <SCORE.SYSTEM.CONST>
0

>  <SCORE.SYSTEM.DIHEDRAL>
0

>  <SCORE.SYSTEM.SOLV>
0

>  <SCORE.SYSTEM.norm>
0

>  <SCORE.heavy>
42

>  <SCORE.norm>
-1.15855

>  <RMSD>
3.754

$$$$
1fyp_lig
 OpenBabel11021811393D
libRbt.so/2013.1/901 2013/11/27
 42 45  0  0  0  0  0  0  0  0999 V2000
    6.0950    4.8595   29.0592 C   0  0  2  0  0  0  0  0  0  0  0  0
    6.0472    3.7887   28.0726 O   0  0  0  0  0  0  0  0  0  0  0  0
    4.5157    6.2561   24.9410 C   0  0  2  0  0  0  0  0  0  0  0  0
    4.1629    6.8916   23.6580 N   0  0  0  0  0  0  0  0  0  0  0  0
    2.3272    2.5594   26.5503 C   0  0  1  0  0  0  0  0  0  0  0  0
   -1.4011    0.1802   26.8950 C   0  0  1  0  0  0  0  0  0  0  0  0
    6.1818    4.2944   30.5136 C   0  0  2  0  0  0  0  0  0  0  0  0
    7.2661    3.2971   30.6376 N   0  0  0  0  0  0  0  0  0  0  0  0
    6.0490    6.1369   25.0498 C   0  0  0  0  0  0  0  0  0  0  0  0
    2.0662    1.0510   26.5318 C   0  0  2  0  0  0  0  0  0  0  0  0
    1.7045    0.6455   25.2111 O   0  0  0  0  0  0  0  0  0  0  0  0
   -2.5373    0.4446   25.8604 C   0  0  2  0  0  0  0  0  0  0  0  0
   -3.0179    1.8477   25.8855 N   0  0  0  0  0  0  0  0  0  0  0  0
    4.8194    3.6701   30.9498 C   0  0  1  0  0  0  0  0  0  0  0  0
    4.8648    3.3039   32.3266 O   0  0  0  0  0  0  0  0  0  0  0  0
    6.4950    5.4985   26.3936 C   0  0  2  0  0  0  0  0  0  0  0  0
    7.9656    5.3575   26.3603 N   0  0  0  0  0  0  0  0  0  0  0  0
    0.8831    0.9256   27.4955 C   0  0  2  0  0  0  0  0  0  0  0  0
   -0.3822    1.2122   26.8371 O   0  0  0  0  0  0  0  0  0  0  0  0
   -3.7131   -0.5614   26.0571 C   0  0  1  0  0  0  0  0  0  0  0  0
   -3.2991   -1.8410   25.5830 O   0  0  0  0  0  0  0  0  0  0  0  0
    3.6412    4.6541   30.7403 C   0  0  2  0  0  0  0  0  0  0  0  0
    2.4214    3.9954   31.0673 O   0  0  0  0  0  0  0  0  0  0  0  0
    5.7928    4.1222   26.6778 C   0  0  2  0  0  0  0  0  0  0  0  0
    1.2038    2.0032   28.5407 C   0  0  2  0  0  0  0  0  0  0  0  0
    1.9000    3.0469   27.8324 O   0  0  0  0  0  0  0  0  0  0  0  0
   -4.1771   -0.7163   27.5372 C   0  0  2  0  0  0  0  0  0  0  0  0
   -4.8941    0.4604   27.9139 O   0  0  0  0  0  0  0  0  0  0  0  0
    3.6138    5.1587   29.2696 C   0  0  2  0  0  0  0  0  0  0  0  0
    4.9164    5.7244   28.9337 O   0  0  0  0  0  0  0  0  0  0  0  0
    4.2417    4.1638   26.4277 C   0  0  2  0  0  0  0  0  0  0  0  0
    3.7542    2.7974   26.3868 O   0  0  0  0  0  0  0  0  0  0  0  0
    2.0716    1.4802   29.6992 C   0  0  0  0  0  0  0  0  0  0  0  0
    3.3298    1.0326   29.2257 O   0  0  0  0  0  0  0  0  0  0  0  0
   -2.9537   -0.9276   28.4821 C   0  0  1  0  0  0  0  0  0  0  0  0
   -1.9665    0.1228   28.2486 O   0  0  0  0  0  0  0  0  0  0  0  0
    2.5666    6.2572   28.9802 C   0  0  0  0  0  0  0  0  0  0  0  0
    1.2572    5.7175   28.9205 O   0  0  0  0  0  0  0  0  0  0  0  0
    3.8602    4.8615   25.0852 C   0  0  1  0  0  0  0  0  0  0  0  0
    2.4416    5.0031   25.0283 O   0  0  0  0  0  0  0  0  0  0  0  0
   -3.3486   -0.9262   29.9812 C   0  0  0  0  0  0  0  0  0  0  0  0
   -3.2484    0.4131   30.5887 N   0  0  0  0  0  0  0  0  0  0  0  0
  1  2  1  6  0  0  0
  1  7  1  0  0  0  0
  1 30  1  0  0  0  0
  3  4  1  6  0  0  0
  3  9  1  0  0  0  0
  3 39  1  0  0  0  0
  5 10  1  0  0  0  0
  5 26  1  0  0  0  0
  5 32  1  1  0  0  0
  6 12  1  0  0  0  0
  6 36  1  0  0  0  0
  6 19  1  1  0  0  0
  7  8  1  6  0  0  0
  7 14  1  0  0  0  0
  9 16  1  0  0  0  0
 10 11  1  6  0  0  0
 10 18  1  0  0  0  0
 12 13  1  1  0  0  0
 12 20  1  0  0  0  0
 14 15  1  1  0  0  0
 14 22  1  0  0  0  0
 16 17  1  6  0  0  0
 16 24  1  0  0  0  0
 18 19  1  6  0  0  0
 18 25  1  0  0  0  0
 20 21  1  1  0  0  0
 20 27  1  0  0  0  0
 22 23  1  6  0  0  0
 22 29  1  0  0  0  0
 24  2  1  1  0  0  0
 24 31  1  0  0  0  0
 25 26  1  0  0  0  0
 25 33  1  1  0  0  0
 27 28  1  1  0  0  0
 27 35  1  0  0  0  0
 29 30  1  0  0  0  0
 29 37  1  1  0  0  0
 31 32  1  6  0  0  0
 31 39  1  0  0  0  0
 33 34  1  0  0  0  0
 35 36  1  0  0  0  0
 35 41  1  1  0  0  0
 37 38  1  0  0  0  0
 39 40  1  1  0  0  0
 41 42  1  0  0  0  0
M  END
>  <CHROM.1>
172.20919817,35.48658275,-170.46234613,-178.62049892,88.13666752,160.81410934
62.51964280,71.73720031,123.56750556,-165.09869743,-55.13009023,65.53711731
62.00900859,174.22236411,-74.92786084,162.64553069,-177.57777558,63.57179564
-92.18260071,-50.23383831,73.66713904,168.79623709,1.96061124,2.81167130
27.78736433,-0.07786575,0.53807572,1.78832264

>  <Name>
1fyp_lig

>  <RI>
0

>  <Rbt.Current_Directory>
/home/itssahil/PROJECTS/Mol_Feturizer/New_Systems/rnas/1fyp

>  <Rbt.Executable>
rbdock ($Id: //depot/dev/client3/rdock/2013.1/src/exe/rbdock.cxx#4 $)

>  <Rbt.Library>
libRbt.so (2013.1, Build901 2013/11/27)

>  <Rbt.Parameter_File>
/export/apps/rDock/src/rDock_2013.1_src/data/scripts/dock_solv.prm

>  <Rbt.Receptor>
prm/pocket_docking_4.prm

>  <SCORE>
-40.7865

>  <SCORE.INTER>
-29.4353

>  <SCORE.INTER.CONST>
1

>  <SCORE.INTER.POLAR>
-2.59815

>  <SCORE.INTER.ROT>
14

>  <SCORE.INTER.SOLV>
16.7752

>  <SCORE.INTER.VDW>
-29.4881

>  <SCORE.INTER.norm>
-0.70084

>  <SCORE.INTRA>
-11.3512

>  <SCORE.INTRA.DIHEDRAL>
-26.2143

>  <SCORE.INTRA.DIHEDRAL.0>
48.7173

>  <SCORE.INTRA.POLAR>
0.191882

>  <SCORE.INTRA.POLAR.0>
-1.54691

>  <SCORE.INTRA.REPUL>
0.0661083

>  <SCORE.INTRA.REPUL.0>
0

>  <SCORE.INTRA.SOLV>
1.59419

>  <SCORE.INTRA.SOLV.lig_0>
-64.052

>  <SCORE.INTRA.VDW>
-0.0240585

>  <SCORE.INTRA.VDW.0>
-7.0667

>  <SCORE.INTRA.norm>
-0.270266

>  <SCORE.RESTR>
0

>  <SCORE.RESTR.CAVITY>
0

>  <SCORE.RESTR.norm>
0

>  <SCORE.SYSTEM>
0

>  <SCORE.SYSTEM.CONST>
0

>  <SCORE.SYSTEM.DIHEDRAL>
0

>  <SCORE.SYSTEM.SOLV>
0

>  <SCORE.SYSTEM.norm>
0

>  <SCORE.heavy>
42

>  <SCORE.norm>
-0.971106

>  <RMSD>
3.762

$$$$
1fyp_lig
 OpenBabel11021811393D
libRbt.so/2013.1/901 2013/11/27
 42 45  0  0  0  0  0  0  0  0999 V2000
    3.3491    4.7461   29.2802 C   0  0  2  0  0  0  0  0  0  0  0  0
    3.5825    5.9603   28.5097 O   0  0  0  0  0  0  0  0  0  0  0  0
    3.2553    6.4481   24.2794 C   0  0  2  0  0  0  0  0  0  0  0  0
    3.4744    6.5260   22.8232 N   0  0  0  0  0  0  0  0  0  0  0  0
    2.3033    2.5659   26.7732 C   0  0  1  0  0  0  0  0  0  0  0  0
   -0.7279    0.5652   26.6190 C   0  0  1  0  0  0  0  0  0  0  0  0
    3.4885    5.0064   30.8148 C   0  0  2  0  0  0  0  0  0  0  0  0
    2.6763    6.1670   31.2378 N   0  0  0  0  0  0  0  0  0  0  0  0
    4.3056    7.3141   25.0032 C   0  0  0  0  0  0  0  0  0  0  0  0
    2.1333    2.0451   28.2027 C   0  0  2  0  0  0  0  0  0  0  0  0
    2.8498    0.8188   28.3521 O   0  0  0  0  0  0  0  0  0  0  0  0
   -2.1892    0.5277   27.1614 C   0  0  2  0  0  0  0  0  0  0  0  0
   -2.3880   -0.5162   28.1964 N   0  0  0  0  0  0  0  0  0  0  0  0
    4.9836    5.2191   31.2093 C   0  0  1  0  0  0  0  0  0  0  0  0
    5.1119    5.2963   32.6268 O   0  0  0  0  0  0  0  0  0  0  0  0
    4.1171    7.3006   26.5448 C   0  0  2  0  0  0  0  0  0  0  0  0
    5.2155    8.0894   27.1408 N   0  0  0  0  0  0  0  0  0  0  0  0
    0.6209    1.8178   28.2759 C   0  0  2  0  0  0  0  0  0  0  0  0
    0.2390    0.5371   27.7010 O   0  0  0  0  0  0  0  0  0  0  0  0
   -3.2115    0.3709   25.9938 C   0  0  1  0  0  0  0  0  0  0  0  0
   -3.2874    1.6078   25.2883 O   0  0  0  0  0  0  0  0  0  0  0  0
    5.8845    4.0684   30.6950 C   0  0  2  0  0  0  0  0  0  0  0  0
    7.2424    4.3671   31.0045 O   0  0  0  0  0  0  0  0  0  0  0  0
    4.0654    5.8477   27.1402 C   0  0  2  0  0  0  0  0  0  0  0  0
    0.0800    2.9746   27.4240 C   0  0  2  0  0  0  0  0  0  0  0  0
    1.0766    3.2213   26.4131 O   0  0  0  0  0  0  0  0  0  0  0  0
   -2.8462   -0.7504   24.9744 C   0  0  2  0  0  0  0  0  0  0  0  0
   -3.0900   -2.0179   25.5866 O   0  0  0  0  0  0  0  0  0  0  0  0
    5.7007    3.8821   29.1621 C   0  0  2  0  0  0  0  0  0  0  0  0
    4.2836    3.6918   28.8700 O   0  0  0  0  0  0  0  0  0  0  0  0
    3.1179    4.8889   26.3319 C   0  0  2  0  0  0  0  0  0  0  0  0
    3.3979    3.5255   26.7434 O   0  0  0  0  0  0  0  0  0  0  0  0
   -0.1757    4.2552   28.2385 C   0  0  0  0  0  0  0  0  0  0  0  0
   -1.3165    4.1080   29.0659 O   0  0  0  0  0  0  0  0  0  0  0  0
   -1.3513   -0.6398   24.5415 C   0  0  1  0  0  0  0  0  0  0  0  0
   -0.5006   -0.5784   25.7268 O   0  0  0  0  0  0  0  0  0  0  0  0
    6.4428    2.6667   28.5628 C   0  0  0  0  0  0  0  0  0  0  0  0
    6.6142    2.8072   27.1627 O   0  0  0  0  0  0  0  0  0  0  0  0
    3.3245    4.9882   24.7886 C   0  0  1  0  0  0  0  0  0  0  0  0
    2.3139    4.2178   24.1396 O   0  0  0  0  0  0  0  0  0  0  0  0
   -0.8964   -1.8264   23.6536 C   0  0  0  0  0  0  0  0  0  0  0  0
   -1.0963   -1.5639   22.2169 N   0  0  0  0  0  0  0  0  0  0  0  0
  1  2  1  6  0  0  0
  1  7  1  0  0  0  0
  1 30  1  0  0  0  0
  3  4  1  6  0  0  0
  3  9  1  0  0  0  0
  3 39  1  0  0  0  0
  5 10  1  0  0  0  0
  5 26  1  0  0  0  0
  5 32  1  1  0  0  0
  6 12  1  0  0  0  0
  6 36  1  0  0  0  0
  6 19  1  1  0  0  0
  7  8  1  6  0  0  0
  7 14  1  0  0  0  0
  9 16  1  0  0  0  0
 10 11  1  6  0  0  0
 10 18  1  0  0  0  0
 12 13  1  1  0  0  0
 12 20  1  0  0  0  0
 14 15  1  1  0  0  0
 14 22  1  0  0  0  0
 16 17  1  1  0  0  0
 16 24  1  0  0  0  0
 18 19  1  6  0  0  0
 18 25  1  0  0  0  0
 20 21  1  6  0  0  0
 20 27  1  0  0  0  0
 22 23  1  6  0  0  0
 22 29  1  0  0  0  0
 24  2  1  1  0  0  0
 24 31  1  0  0  0  0
 25 26  1  0  0  0  0
 25 33  1  1  0  0  0
 27 28  1  1  0  0  0
 27 35  1  0  0  0  0
 29 30  1  0  0  0  0
 29 37  1  1  0  0  0
 31 32  1  1  0  0  0
 31 39  1  0  0  0  0
 33 34  1  0  0  0  0
 35 36  1  0  0  0  0
 35 41  1  6  0  0  0
 37 38  1  0  0  0  0
 39 40  1  6  0  0  0
 41 42  1  0  0  0  0
M  END
>  <CHROM.1>
153.63570099,175.92223038,62.75365804,-40.78687234,67.86539796,38.90370691
-63.70746986,53.22784630,-123.05158895,-87.56547361,-168.70581249,68.15345202
-72.50946211,175.71128503,-160.06542886,146.52144507,-119.32160153,-179.03659902
90.38795410,-175.93243965,-43.78514628,39.12720792,1.95354967,3.09289026
27.25719435,0.17310563,0.75871876,1.87100660

>  <Name>
1fyp_lig

>  <RI>
0

>  <Rbt.Current_Directory>
/home/itssahil/PROJECTS/Mol_Feturizer/New_Systems/rnas/1fyp

>  <Rbt.Executable>
rbdock ($Id: //depot/dev/client3/rdock/2013.1/src/exe/rbdock.cxx#4 $)

>  <Rbt.Library>
libRbt.so (2013.1, Build901 2013/11/27)

>  <Rbt.Parameter_File>
/export/apps/rDock/src/rDock_2013.1_src/data/scripts/dock_solv.prm

>  <Rbt.Receptor>
prm/pocket_docking_7.prm

>  <SCORE>
-55.8019

>  <SCORE.INTER>
-58.5944

>  <SCORE.INTER.CONST>
1

>  <SCORE.INTER.POLAR>
-8.64423

>  <SCORE.INTER.ROT>
14

>  <SCORE.INTER.SOLV>
19.6072

>  <SCORE.INTER.VDW>
-29.7179

>  <SCORE.INTER.norm>
-1.3951

>  <SCORE.INTRA>
2.72549

>  <SCORE.INTRA.DIHEDRAL>
-14.6093

>  <SCORE.INTRA.DIHEDRAL.0>
48.7173

>  <SCORE.INTRA.POLAR>
1.47021

>  <SCORE.INTRA.POLAR.0>
-1.54691

>  <SCORE.INTRA.REPUL>
0.0421134

>  <SCORE.INTRA.REPUL.0>
0

>  <SCORE.INTRA.SOLV>
-2.02733

>  <SCORE.INTRA.SOLV.lig_0>
-64.052

>  <SCORE.INTRA.VDW>
5.83454

>  <SCORE.INTRA.VDW.0>
-7.0667

>  <SCORE.INTRA.norm>
0.0648926

>  <SCORE.RESTR>
0.0670359

>  <SCORE.RESTR.CAVITY>
0.0670359

>  <SCORE.RESTR.norm>
0.00159609

>  <SCORE.SYSTEM>
0

>  <SCORE.SYSTEM.CONST>
0

>  <SCORE.SYSTEM.DIHEDRAL>
0

>  <SCORE.SYSTEM.SOLV>
0

>  <SCORE.SYSTEM.norm>
0

>  <SCORE.heavy>
42

>  <SCORE.norm>
-1.32862

>  <RMSD>
3.764

$$$$
1fyp_lig
 OpenBabel11021811393D
libRbt.so/2013.1/901 2013/11/27
 42 45  0  0  0  0  0  0  0  0999 V2000
    8.9984    7.5778   28.3675 C   0  0  2  0  0  0  0  0  0  0  0  0
    9.0488    8.6898   27.4276 O   0  0  0  0  0  0  0  0  0  0  0  0
    7.1748    9.4199   23.6599 C   0  0  2  0  0  0  0  0  0  0  0  0
    6.7640    9.4496   22.2440 N   0  0  0  0  0  0  0  0  0  0  0  0
    5.9493    6.2355   26.9414 C   0  0  1  0  0  0  0  0  0  0  0  0
    3.0010    3.3513   28.2042 C   0  0  1  0  0  0  0  0  0  0  0  0
    8.6260    8.0608   29.8062 C   0  0  2  0  0  0  0  0  0  0  0  0
    7.4135    8.9066   29.7909 N   0  0  0  0  0  0  0  0  0  0  0  0
    8.6804    9.7350   23.7638 C   0  0  0  0  0  0  0  0  0  0  0  0
    5.9143    4.7110   27.0772 C   0  0  2  0  0  0  0  0  0  0  0  0
    5.1781    4.1517   25.9888 O   0  0  0  0  0  0  0  0  0  0  0  0
    2.8413    2.8127   26.7497 C   0  0  2  0  0  0  0  0  0  0  0  0
    2.3822    3.8564   25.8009 N   0  0  0  0  0  0  0  0  0  0  0  0
    9.8157    8.8316   30.4594 C   0  0  1  0  0  0  0  0  0  0  0  0
    9.5214    9.1262   31.8226 O   0  0  0  0  0  0  0  0  0  0  0  0
    9.1781    9.7476   25.2350 C   0  0  2  0  0  0  0  0  0  0  0  0
   10.6378    9.9769   25.2159 N   0  0  0  0  0  0  0  0  0  0  0  0
    5.1694    4.5313   28.4028 C   0  0  2  0  0  0  0  0  0  0  0  0
    3.7273    4.6077   28.2263 O   0  0  0  0  0  0  0  0  0  0  0  0
    1.9042    1.5660   26.7186 C   0  0  1  0  0  0  0  0  0  0  0  0
    2.6082    0.4558   27.2712 O   0  0  0  0  0  0  0  0  0  0  0  0
   11.1310    8.0147   30.4047 C   0  0  2  0  0  0  0  0  0  0  0  0
   12.1923    8.8066   30.9292 O   0  0  0  0  0  0  0  0  0  0  0  0
    8.8139    8.4324   26.0134 C   0  0  2  0  0  0  0  0  0  0  0  0
    5.6769    5.7264   29.2217 C   0  0  2  0  0  0  0  0  0  0  0  0
    5.9291    6.7792   28.2709 O   0  0  0  0  0  0  0  0  0  0  0  0
    0.5769    1.7476   27.5155 C   0  0  2  0  0  0  0  0  0  0  0  0
   -0.2788    2.6231   26.7793 O   0  0  0  0  0  0  0  0  0  0  0  0
   11.4396    7.5850   28.9424 C   0  0  2  0  0  0  0  0  0  0  0  0
   10.2861    6.8751   28.3989 O   0  0  0  0  0  0  0  0  0  0  0  0
    7.3193    7.9929   25.8060 C   0  0  2  0  0  0  0  0  0  0  0  0
    7.1821    6.6252   26.2719 O   0  0  0  0  0  0  0  0  0  0  0  0
    6.9574    5.4130   30.0160 C   0  0  0  0  0  0  0  0  0  0  0  0
    6.9692    4.0617   30.4423 O   0  0  0  0  0  0  0  0  0  0  0  0
    0.8579    2.3353   28.9333 C   0  0  1  0  0  0  0  0  0  0  0  0
    1.6777    3.5377   28.8121 O   0  0  0  0  0  0  0  0  0  0  0  0
   12.6533    6.6417   28.7860 C   0  0  0  0  0  0  0  0  0  0  0  0
   12.8623    6.2924   27.4282 O   0  0  0  0  0  0  0  0  0  0  0  0
    6.8696    8.0504   24.3130 C   0  0  1  0  0  0  0  0  0  0  0  0
    5.4660    7.8026   24.2463 O   0  0  0  0  0  0  0  0  0  0  0  0
   -0.4409    2.6845   29.7041 C   0  0  0  0  0  0  0  0  0  0  0  0
   -1.1188    3.8732   29.1561 N   0  0  0  0  0  0  0  0  0  0  0  0
  1  2  1  6  0  0  0
  1  7  1  0  0  0  0
  1 30  1  0  0  0  0
  3  4  1  6  0  0  0
  3  9  1  0  0  0  0
  3 39  1  0  0  0  0
  5 10  1  0  0  0  0
  5 26  1  0  0  0  0
  5 32  1  1  0  0  0
  6 12  1  0  0  0  0
  6 36  1  0  0  0  0
  6 19  1  6  0  0  0
  7  8  1  6  0  0  0
  7 14  1  0  0  0  0
  9 16  1  0  0  0  0
 10 11  1  6  0  0  0
 10 18  1  0  0  0  0
 12 13  1  6  0  0  0
 12 20  1  0  0  0  0
 14 15  1  1  0  0  0
 14 22  1  0  0  0  0
 16 17  1  6  0  0  0
 16 24  1  0  0  0  0
 18 19  1  6  0  0  0
 18 25  1  0  0  0  0
 20 21  1  1  0  0  0
 20 27  1  0  0  0  0
 22 23  1  6  0  0  0
 22 29  1  0  0  0  0
 24  2  1  1  0  0  0
 24 31  1  0  0  0  0
 25 26  1  0  0  0  0
 25 33  1  6  0  0  0
 27 28  1  6  0  0  0
 27 35  1  0  0  0  0
 29 30  1  0  0  0  0
 29 37  1  1  0  0  0
 31 32  1  6  0  0  0
 31 39  1  0  0  0  0
 33 34  1  0  0  0  0
 35 36  1  0  0  0  0
 35 41  1  6  0  0  0
 37 38  1  0  0  0  0
 39 40  1  1  0  0  0
 41 42  1  0  0  0  0
M  END
>  <CHROM.1>
-154.19755757,-170.27925085,166.61517904,-56.39552417,56.59532646,162.98174501
60.68430659,-55.68999287,101.41839382,-92.18397226,-63.99663551,178.87111220
-33.25503417,66.61959253,179.68370784,143.48451179,168.39561268,91.31878831
-71.94128357,-55.71914053,74.70572905,42.63399577,6.36684093,6.12407931,27.60505602
-0.21667880,0.52929657,1.99735105

>  <Name>
1fyp_lig

>  <RI>
0

>  <Rbt.Current_Directory>
/home/itssahil/PROJECTS/Mol_Feturizer/New_Systems/rnas/1fyp

>  <Rbt.Executable>
rbdock ($Id: //depot/dev/client3/rdock/2013.1/src/exe/rbdock.cxx#4 $)

>  <Rbt.Library>
libRbt.so (2013.1, Build901 2013/11/27)

>  <Rbt.Parameter_File>
/export/apps/rDock/src/rDock_2013.1_src/data/scripts/dock_solv.prm

>  <Rbt.Receptor>
prm/pocket_docking_5.prm

>  <SCORE>
-53.101

>  <SCORE.INTER>
-42.1268

>  <SCORE.INTER.CONST>
1

>  <SCORE.INTER.POLAR>
-4.76629

>  <SCORE.INTER.ROT>
14

>  <SCORE.INTER.SOLV>
15.2747

>  <SCORE.INTER.VDW>
-30.2218

>  <SCORE.INTER.norm>
-1.00302

>  <SCORE.INTRA>
-10.9742

>  <SCORE.INTRA.DIHEDRAL>
-20.6984

>  <SCORE.INTRA.DIHEDRAL.0>
48.7173

>  <SCORE.INTRA.POLAR>
-0.354499

>  <SCORE.INTRA.POLAR.0>
-1.54691

>  <SCORE.INTRA.REPUL>
0

>  <SCORE.INTRA.REPUL.0>
0

>  <SCORE.INTRA.SOLV>
-0.698806

>  <SCORE.INTRA.SOLV.lig_0>
-64.052

>  <SCORE.INTRA.VDW>
0.929675

>  <SCORE.INTRA.VDW.0>
-7.0667

>  <SCORE.INTRA.norm>
-0.261291

>  <SCORE.RESTR>
0

>  <SCORE.RESTR.CAVITY>
0

>  <SCORE.RESTR.norm>
0

>  <SCORE.SYSTEM>
0

>  <SCORE.SYSTEM.CONST>
0

>  <SCORE.SYSTEM.DIHEDRAL>
0

>  <SCORE.SYSTEM.SOLV>
0

>  <SCORE.SYSTEM.norm>
0

>  <SCORE.heavy>
42

>  <SCORE.norm>
-1.26431

>  <RMSD>
3.814

$$$$
1fyp_lig
 OpenBabel11021811393D
libRbt.so/2013.1/901 2013/11/27
 42 45  0  0  0  0  0  0  0  0999 V2000
    5.9558    5.3886   29.0430 C   0  0  2  0  0  0  0  0  0  0  0  0
    6.2769    4.4159   28.0071 O   0  0  0  0  0  0  0  0  0  0  0  0
    5.1296    7.0339   24.8337 C   0  0  2  0  0  0  0  0  0  0  0  0
    4.9340    7.7313   23.5493 N   0  0  0  0  0  0  0  0  0  0  0  0
    2.8014    3.2881   25.7300 C   0  0  1  0  0  0  0  0  0  0  0  0
   -0.7433    1.1474   24.1626 C   0  0  1  0  0  0  0  0  0  0  0  0
    5.7359    4.6986   30.4278 C   0  0  2  0  0  0  0  0  0  0  0  0
    6.8579    3.7954   30.7610 N   0  0  0  0  0  0  0  0  0  0  0  0
    6.6384    6.9082   25.1245 C   0  0  0  0  0  0  0  0  0  0  0  0
    2.6346    1.9375   25.0287 C   0  0  2  0  0  0  0  0  0  0  0  0
    2.5990    2.1352   23.6148 O   0  0  0  0  0  0  0  0  0  0  0  0
   -2.2222    1.6148   24.3226 C   0  0  2  0  0  0  0  0  0  0  0  0
   -2.5524    1.9993   25.7166 N   0  0  0  0  0  0  0  0  0  0  0  0
    4.3856    3.9162   30.4512 C   0  0  1  0  0  0  0  0  0  0  0  0
    4.1234    3.4272   31.7641 O   0  0  0  0  0  0  0  0  0  0  0  0
    6.9191    6.2048   26.4806 C   0  0  2  0  0  0  0  0  0  0  0  0
    8.3833    6.0642   26.6217 N   0  0  0  0  0  0  0  0  0  0  0  0
    1.2753    1.4741   25.5598 C   0  0  2  0  0  0  0  0  0  0  0  0
    0.1746    2.0641   24.8135 O   0  0  0  0  0  0  0  0  0  0  0  0
   -3.2082    0.5328   23.7840 C   0  0  1  0  0  0  0  0  0  0  0  0
   -3.1472    0.5328   22.3592 O   0  0  0  0  0  0  0  0  0  0  0  0
    3.1964    4.8060   30.0103 C   0  0  2  0  0  0  0  0  0  0  0  0
    2.0144    4.0126   29.9631 O   0  0  0  0  0  0  0  0  0  0  0  0
    6.1942    4.8170   26.6094 C   0  0  2  0  0  0  0  0  0  0  0  0
    1.2954    2.0033   27.0007 C   0  0  2  0  0  0  0  0  0  0  0  0
    2.0733    3.2155   26.9663 O   0  0  0  0  0  0  0  0  0  0  0  0
   -2.9039   -0.9116   24.2852 C   0  0  2  0  0  0  0  0  0  0  0  0
   -3.2822   -1.0045   25.6595 O   0  0  0  0  0  0  0  0  0  0  0  0
    3.4840    5.4428   28.6210 C   0  0  2  0  0  0  0  0  0  0  0  0
    4.7582    6.1523   28.6747 O   0  0  0  0  0  0  0  0  0  0  0  0
    4.6855    4.8721   26.1726 C   0  0  2  0  0  0  0  0  0  0  0  0
    4.2137    3.5097   26.0061 O   0  0  0  0  0  0  0  0  0  0  0  0
    1.9109    1.0078   28.0001 C   0  0  0  0  0  0  0  0  0  0  0  0
    1.7310    1.4538   29.3329 O   0  0  0  0  0  0  0  0  0  0  0  0
   -1.3893   -1.2479   24.1192 C   0  0  1  0  0  0  0  0  0  0  0  0
   -0.5833   -0.1960   24.7327 O   0  0  0  0  0  0  0  0  0  0  0  0
    2.4282    6.4654   28.1450 C   0  0  0  0  0  0  0  0  0  0  0  0
    1.1474    5.8684   28.0323 O   0  0  0  0  0  0  0  0  0  0  0  0
    4.4684    5.6345   24.8286 C   0  0  1  0  0  0  0  0  0  0  0  0
    3.0668    5.7800   24.6044 O   0  0  0  0  0  0  0  0  0  0  0  0
   -1.0068   -2.6111   24.7505 C   0  0  0  0  0  0  0  0  0  0  0  0
   -0.1925   -3.4421   23.8453 N   0  0  0  0  0  0  0  0  0  0  0  0
  1  2  1  6  0  0  0
  1  7  1  0  0  0  0
  1 30  1  0  0  0  0
  3  4  1  6  0  0  0
  3  9  1  0  0  0  0
  3 39  1  0  0  0  0
  5 10  1  0  0  0  0
  5 26  1  0  0  0  0
  5 32  1  1  0  0  0
  6 12  1  0  0  0  0
  6 36  1  0  0  0  0
  6 19  1  1  0  0  0
  7  8  1  6  0  0  0
  7 14  1  0  0  0  0
  9 16  1  0  0  0  0
 10 11  1  6  0  0  0
 10 18  1  0  0  0  0
 12 13  1  1  0  0  0
 12 20  1  0  0  0  0
 14 15  1  1  0  0  0
 14 22  1  0  0  0  0
 16 17  1  6  0  0  0
 16 24  1  0  0  0  0
 18 19  1  6  0  0  0
 18 25  1  0  0  0  0
 20 21  1  6  0  0  0
 20 27  1  0  0  0  0
 22 23  1  6  0  0  0
 22 29  1  0  0  0  0
 24  2  1  1  0  0  0
 24 31  1  0  0  0  0
 25 26  1  0  0  0  0
 25 33  1  1  0  0  0
 27 28  1  1  0  0  0
 27 35  1  0  0  0  0
 29 30  1  0  0  0  0
 29 37  1  1  0  0  0
 31 32  1  6  0  0  0
 31 39  1  0  0  0  0
 33 34  1  0  0  0  0
 35 36  1  0  0  0  0
 35 41  1  1  0  0  0
 37 38  1  0  0  0  0
 39 40  1  1  0  0  0
 41 42  1  0  0  0  0
M  END
>  <CHROM.1>
165.12904075,46.60498412,67.11350644,-16.07849916,-71.12352166,-154.84259057
-177.18540142,-59.43628366,121.21281463,138.46297414,48.78448098,-70.67381394
-171.45849006,-63.11597314,-60.13653326,174.01169250,156.30909468,-179.78817867
132.46592994,-58.23923201,-64.86541302,-154.76397711,2.35991381,3.12094623
26.50117742,0.17623517,0.73506846,1.84429214

>  <Name>
1fyp_lig

>  <RI>
0

>  <Rbt.Current_Directory>
/home/itssahil/PROJECTS/Mol_Feturizer/New_Systems/rnas/1fyp

>  <Rbt.Executable>
rbdock ($Id: //depot/dev/client3/rdock/2013.1/src/exe/rbdock.cxx#4 $)

>  <Rbt.Library>
libRbt.so (2013.1, Build901 2013/11/27)

>  <Rbt.Parameter_File>
/export/apps/rDock/src/rDock_2013.1_src/data/scripts/dock_solv.prm

>  <Rbt.Receptor>
prm/blind_docking_80.prm

>  <SCORE>
-42.2439

>  <SCORE.INTER>
-34.3849

>  <SCORE.INTER.CONST>
1

>  <SCORE.INTER.POLAR>
-3.87034

>  <SCORE.INTER.ROT>
14

>  <SCORE.INTER.SOLV>
16.7602

>  <SCORE.INTER.VDW>
-28.5422

>  <SCORE.INTER.norm>
-0.818687

>  <SCORE.INTRA>
-8.63659

>  <SCORE.INTRA.DIHEDRAL>
-20.4205

>  <SCORE.INTRA.DIHEDRAL.0>
48.7173

>  <SCORE.INTRA.POLAR>
-0.738267

>  <SCORE.INTRA.POLAR.0>
-1.54691

>  <SCORE.INTRA.REPUL>
0

>  <SCORE.INTRA.REPUL.0>
0

>  <SCORE.INTRA.SOLV>
0.822765

>  <SCORE.INTRA.SOLV.lig_0>
-64.052

>  <SCORE.INTRA.VDW>
3.67236

>  <SCORE.INTRA.VDW.0>
-7.0667

>  <SCORE.INTRA.norm>
-0.205633

>  <SCORE.RESTR>
0.777578

>  <SCORE.RESTR.CAVITY>
0.777578

>  <SCORE.RESTR.norm>
0.0185138

>  <SCORE.SYSTEM>
0

>  <SCORE.SYSTEM.CONST>
0

>  <SCORE.SYSTEM.DIHEDRAL>
0

>  <SCORE.SYSTEM.SOLV>
0

>  <SCORE.SYSTEM.norm>
0

>  <SCORE.heavy>
42

>  <SCORE.norm>
-1.00581

>  <RMSD>
3.849

$$$$
1fyp_lig
 OpenBabel11021811393D
libRbt.so/2013.1/901 2013/11/27
 42 45  0  0  0  0  0  0  0  0999 V2000
    2.9633    4.7521   29.0542 C   0  0  2  0  0  0  0  0  0  0  0  0
    2.9767    5.9220   28.1862 O   0  0  0  0  0  0  0  0  0  0  0  0
    3.1740    6.5788   23.9707 C   0  0  2  0  0  0  0  0  0  0  0  0
    3.5650    6.6925   22.5534 N   0  0  0  0  0  0  0  0  0  0  0  0
    1.7544    2.6482   26.0122 C   0  0  1  0  0  0  0  0  0  0  0  0
   -1.5519    0.0383   26.0166 C   0  0  1  0  0  0  0  0  0  0  0  0
    3.3842    5.1177   30.5141 C   0  0  2  0  0  0  0  0  0  0  0  0
    2.6084    6.2685   31.0236 N   0  0  0  0  0  0  0  0  0  0  0  0
    4.1865    7.3451   24.8451 C   0  0  0  0  0  0  0  0  0  0  0  0
    1.8819    1.4168   26.9127 C   0  0  2  0  0  0  0  0  0  0  0  0
    2.5799    0.3851   26.2143 O   0  0  0  0  0  0  0  0  0  0  0  0
   -2.0238   -0.7718   27.2625 C   0  0  2  0  0  0  0  0  0  0  0  0
   -1.1823   -1.9658   27.5200 N   0  0  0  0  0  0  0  0  0  0  0  0
    4.9137    5.4182   30.5932 C   0  0  1  0  0  0  0  0  0  0  0  0
    5.3109    5.5932   31.9509 O   0  0  0  0  0  0  0  0  0  0  0  0
    3.8201    7.2906   26.3535 C   0  0  2  0  0  0  0  0  0  0  0  0
    4.8901    7.9810   27.1032 N   0  0  0  0  0  0  0  0  0  0  0  0
    0.4151    1.0407   27.1393 C   0  0  2  0  0  0  0  0  0  0  0  0
   -0.1165    0.2530   26.0377 O   0  0  0  0  0  0  0  0  0  0  0  0
   -3.5304   -1.1558   27.1375 C   0  0  1  0  0  0  0  0  0  0  0  0
   -4.3159    0.0159   27.3465 O   0  0  0  0  0  0  0  0  0  0  0  0
    5.7582    4.2750   29.9764 C   0  0  2  0  0  0  0  0  0  0  0  0
    7.1322    4.6499   29.9946 O   0  0  0  0  0  0  0  0  0  0  0  0
    3.6069    5.8246   26.8767 C   0  0  2  0  0  0  0  0  0  0  0  0
   -0.2646    2.4159   27.1968 C   0  0  2  0  0  0  0  0  0  0  0  0
    0.4974    3.2708   26.3225 O   0  0  0  0  0  0  0  0  0  0  0  0
   -3.9196   -1.7639   25.7560 C   0  0  2  0  0  0  0  0  0  0  0  0
   -3.3980   -3.0916   25.6809 O   0  0  0  0  0  0  0  0  0  0  0  0
    5.2901    3.9814   28.5228 C   0  0  2  0  0  0  0  0  0  0  0  0
    3.8556    3.7133   28.5272 O   0  0  0  0  0  0  0  0  0  0  0  0
    2.7002    4.9618   25.9261 C   0  0  2  0  0  0  0  0  0  0  0  0
    2.8428    3.5689   26.3082 O   0  0  0  0  0  0  0  0  0  0  0  0
   -0.3038    3.0103   28.6159 C   0  0  0  0  0  0  0  0  0  0  0  0
   -1.4096    3.8832   28.7674 O   0  0  0  0  0  0  0  0  0  0  0  0
   -3.3538   -0.8959   24.5894 C   0  0  1  0  0  0  0  0  0  0  0  0
   -1.9239   -0.6771   24.7898 O   0  0  0  0  0  0  0  0  0  0  0  0
    5.9659    2.7616   27.8576 C   0  0  0  0  0  0  0  0  0  0  0  0
    5.4580    1.5445   28.3776 O   0  0  0  0  0  0  0  0  0  0  0  0
    3.0902    5.1007   24.4217 C   0  0  1  0  0  0  0  0  0  0  0  0
    2.1146    4.4244   23.6302 O   0  0  0  0  0  0  0  0  0  0  0  0
   -3.5761   -1.5445   23.1991 C   0  0  0  0  0  0  0  0  0  0  0  0
   -4.9951   -1.5484   22.7998 N   0  0  0  0  0  0  0  0  0  0  0  0
  1  2  1  6  0  0  0
  1  7  1  0  0  0  0
  1 30  1  0  0  0  0
  3  4  1  6  0  0  0
  3  9  1  0  0  0  0
  3 39  1  0  0  0  0
  5 10  1  0  0  0  0
  5 26  1  0  0  0  0
  5 32  1  1  0  0  0
  6 12  1  0  0  0  0
  6 36  1  0  0  0  0
  6 19  1  1  0  0  0
  7  8  1  6  0  0  0
  7 14  1  0  0  0  0
  9 16  1  0  0  0  0
 10 11  1  6  0  0  0
 10 18  1  0  0  0  0
 12 13  1  6  0  0  0
 12 20  1  0  0  0  0
 14 15  1  1  0  0  0
 14 22  1  0  0  0  0
 16 17  1  1  0  0  0
 16 24  1  0  0  0  0
 18 19  1  6  0  0  0
 18 25  1  0  0  0  0
 20 21  1  6  0  0  0
 20 27  1  0  0  0  0
 22 23  1  6  0  0  0
 22 29  1  0  0  0  0
 24  2  1  1  0  0  0
 24 31  1  0  0  0  0
 25 26  1  0  0  0  0
 25 33  1  1  0  0  0
 27 28  1  1  0  0  0
 27 35  1  0  0  0  0
 29 30  1  0  0  0  0
 29 37  1  1  0  0  0
 31 32  1  1  0  0  0
 31 39  1  0  0  0  0
 33 34  1  0  0  0  0
 35 36  1  0  0  0  0
 35 41  1  6  0  0  0
 37 38  1  0  0  0  0
 39 40  1  6  0  0  0
 41 42  1  0  0  0  0
M  END
>  <CHROM.1>
133.61964704,-164.69572366,176.64053847,58.39255010,81.94433975,94.62753796
-68.03400091,178.98870888,-169.27516691,-62.91797857,69.84523634,-174.36949990
-152.39706286,67.55094015,74.53916295,154.41976763,-159.80516899,59.95083591
69.72577592,-86.34776599,-55.39956758,157.57724551,1.44535602,2.80572656
26.96278746,-0.03967697,0.75495957,2.02407202

>  <Name>
1fyp_lig

>  <RI>
0

>  <Rbt.Current_Directory>
/home/itssahil/PROJECTS/Mol_Feturizer/New_Systems/rnas/1fyp

>  <Rbt.Executable>
rbdock ($Id: //depot/dev/client3/rdock/2013.1/src/exe/rbdock.cxx#4 $)

>  <Rbt.Library>
libRbt.so (2013.1, Build901 2013/11/27)

>  <Rbt.Parameter_File>
/export/apps/rDock/src/rDock_2013.1_src/data/scripts/dock_solv.prm

>  <Rbt.Receptor>
prm/blind_docking_80.prm

>  <SCORE>
-67.8157

>  <SCORE.INTER>
-62.6312

>  <SCORE.INTER.CONST>
1

>  <SCORE.INTER.POLAR>
-9.33327

>  <SCORE.INTER.ROT>
14

>  <SCORE.INTER.SOLV>
21.7636

>  <SCORE.INTER.VDW>
-30.8311

>  <SCORE.INTER.norm>
-1.49122

>  <SCORE.INTRA>
-5.40612

>  <SCORE.INTRA.DIHEDRAL>
-23.8651

>  <SCORE.INTRA.DIHEDRAL.0>
48.7173

>  <SCORE.INTRA.POLAR>
1.54691

>  <SCORE.INTRA.POLAR.0>
-1.54691

>  <SCORE.INTRA.REPUL>
0.019471

>  <SCORE.INTRA.REPUL.0>
0

>  <SCORE.INTRA.SOLV>
-2.85011

>  <SCORE.INTRA.SOLV.lig_0>
-64.052

>  <SCORE.INTRA.VDW>
2.59462

>  <SCORE.INTRA.VDW.0>
-7.0667

>  <SCORE.INTRA.norm>
-0.128717

>  <SCORE.RESTR>
0.221549

>  <SCORE.RESTR.CAVITY>
0.221549

>  <SCORE.RESTR.norm>
0.00527498

>  <SCORE.SYSTEM>
0

>  <SCORE.SYSTEM.CONST>
0

>  <SCORE.SYSTEM.DIHEDRAL>
0

>  <SCORE.SYSTEM.SOLV>
0

>  <SCORE.SYSTEM.norm>
0

>  <SCORE.heavy>
42

>  <SCORE.norm>
-1.61466

>  <RMSD>
3.850

$$$$
1fyp_lig
 OpenBabel11021811393D
libRbt.so/2013.1/901 2013/11/27
 42 45  0  0  0  0  0  0  0  0999 V2000
    4.5161    8.4592   25.3378 C   0  0  2  0  0  0  0  0  0  0  0  0
    3.9775    7.1207   25.1364 O   0  0  0  0  0  0  0  0  0  0  0  0
    3.0681    6.4098   29.2484 C   0  0  2  0  0  0  0  0  0  0  0  0
    2.4863    5.9921   30.5374 N   0  0  0  0  0  0  0  0  0  0  0  0
    3.4769    3.5368   25.9386 C   0  0  1  0  0  0  0  0  0  0  0  0
    0.8802    0.1185   25.1818 C   0  0  1  0  0  0  0  0  0  0  0  0
    5.1912    9.0060   24.0389 C   0  0  2  0  0  0  0  0  0  0  0  0
    4.2930    8.8753   22.8719 N   0  0  0  0  0  0  0  0  0  0  0  0
    1.9931    7.1293   28.4096 C   0  0  0  0  0  0  0  0  0  0  0  0
    4.0633    2.1889   25.5108 C   0  0  2  0  0  0  0  0  0  0  0  0
    4.2376    2.1726   24.0935 O   0  0  0  0  0  0  0  0  0  0  0  0
    0.1542   -0.2553   23.8535 C   0  0  2  0  0  0  0  0  0  0  0  0
   -0.2598    0.9366   23.0735 N   0  0  0  0  0  0  0  0  0  0  0  0
    6.5437    8.2764   23.7656 C   0  0  1  0  0  0  0  0  0  0  0  0
    7.2221    8.8913   22.6732 O   0  0  0  0  0  0  0  0  0  0  0  0
    2.5456    7.6228   27.0445 C   0  0  2  0  0  0  0  0  0  0  0  0
    1.4228    8.2207   26.2925 N   0  0  0  0  0  0  0  0  0  0  0  0
    2.9643    1.2161   25.9470 C   0  0  2  0  0  0  0  0  0  0  0  0
    1.8968    1.1309   24.9623 O   0  0  0  0  0  0  0  0  0  0  0  0
   -1.0551   -1.2014   24.1285 C   0  0  1  0  0  0  0  0  0  0  0  0
   -0.5531   -2.4949   24.4576 O   0  0  0  0  0  0  0  0  0  0  0  0
    7.4748    8.3062   25.0035 C   0  0  2  0  0  0  0  0  0  0  0  0
    8.6469    7.5474   24.7221 O   0  0  0  0  0  0  0  0  0  0  0  0
    3.2447    6.4820   26.2211 C   0  0  2  0  0  0  0  0  0  0  0  0
    2.4544    1.8659   27.2409 C   0  0  2  0  0  0  0  0  0  0  0  0
    2.6155    3.2862   27.0607 O   0  0  0  0  0  0  0  0  0  0  0  0
   -1.9823   -0.7282   25.2888 C   0  0  2  0  0  0  0  0  0  0  0  0
   -2.7422    0.3929   24.8346 O   0  0  0  0  0  0  0  0  0  0  0  0
    6.7380    7.7341   26.2477 C   0  0  2  0  0  0  0  0  0  0  0  0
    5.4866    8.4604   26.4384 O   0  0  0  0  0  0  0  0  0  0  0  0
    4.2383    5.6245   27.0858 C   0  0  2  0  0  0  0  0  0  0  0  0
    4.5611    4.4209   26.3418 O   0  0  0  0  0  0  0  0  0  0  0  0
    3.2210    1.4010   28.4919 C   0  0  0  0  0  0  0  0  0  0  0  0
    3.2753   -0.0135   28.5544 O   0  0  0  0  0  0  0  0  0  0  0  0
   -1.1427   -0.3371   26.5444 C   0  0  1  0  0  0  0  0  0  0  0  0
   -0.0980    0.6084   26.1608 O   0  0  0  0  0  0  0  0  0  0  0  0
    7.5215    7.8472   27.5745 C   0  0  0  0  0  0  0  0  0  0  0  0
    6.8872    7.1173   28.6110 O   0  0  0  0  0  0  0  0  0  0  0  0
    3.6391    5.2042   28.4638 C   0  0  1  0  0  0  0  0  0  0  0  0
    4.6631    4.5835   29.2396 O   0  0  0  0  0  0  0  0  0  0  0  0
   -2.0055    0.2914   27.6686 C   0  0  0  0  0  0  0  0  0  0  0  0
   -2.4859   -0.7109   28.6369 N   0  0  0  0  0  0  0  0  0  0  0  0
  1  2  1  6  0  0  0
  1  7  1  0  0  0  0
  1 30  1  0  0  0  0
  3  4  1  1  0  0  0
  3  9  1  0  0  0  0
  3 39  1  0  0  0  0
  5 10  1  0  0  0  0
  5 26  1  0  0  0  0
  5 32  1  1  0  0  0
  6 12  1  0  0  0  0
  6 36  1  0  0  0  0
  6 19  1  6  0  0  0
  7  8  1  6  0  0  0
  7 14  1  0  0  0  0
  9 16  1  0  0  0  0
 10 11  1  6  0  0  0
 10 18  1  0  0  0  0
 12 13  1  1  0  0  0
 12 20  1  0  0  0  0
 14 15  1  6  0  0  0
 14 22  1  0  0  0  0
 16 17  1  6  0  0  0
 16 24  1  0  0  0  0
 18 19  1  6  0  0  0
 18 25  1  0  0  0  0
 20 21  1  1  0  0  0
 20 27  1  0  0  0  0
 22 23  1  6  0  0  0
 22 29  1  0  0  0  0
 24  2  1  6  0  0  0
 24 31  1  0  0  0  0
 25 26  1  0  0  0  0
 25 33  1  1  0  0  0
 27 28  1  6  0  0  0
 27 35  1  0  0  0  0
 29 30  1  0  0  0  0
 29 37  1  1  0  0  0
 31 32  1  6  0  0  0
 31 39  1  0  0  0  0
 33 34  1  0  0  0  0
 35 36  1  0  0  0  0
 35 41  1  1  0  0  0
 37 38  1  0  0  0  0
 39 40  1  1  0  0  0
 41 42  1  0  0  0  0
M  END
>  <CHROM.1>
-176.59085440,30.56979933,46.58920201,61.55368038,115.35411258,65.57587100
172.16935135,-140.81790033,172.53226098,-157.53182783,-18.01008534,173.64049443
-51.27525632,-35.60113155,-170.48176737,-58.05677936,-165.24028187,68.63701824
92.37795301,58.78361836,73.10290121,-175.44701436,2.95011982,4.09436611,26.15937442
-0.10698049,-0.90471150,-1.71786473

>  <Name>
1fyp_lig

>  <RI>
0

>  <Rbt.Current_Directory>
/home/itssahil/PROJECTS/Mol_Feturizer/New_Systems/rnas/1fyp

>  <Rbt.Executable>
rbdock ($Id: //depot/dev/client3/rdock/2013.1/src/exe/rbdock.cxx#4 $)

>  <Rbt.Library>
libRbt.so (2013.1, Build901 2013/11/27)

>  <Rbt.Parameter_File>
/export/apps/rDock/src/rDock_2013.1_src/data/scripts/dock_solv.prm

>  <Rbt.Receptor>
prm/pocket_docking_4.prm

>  <SCORE>
-59.5072

>  <SCORE.INTER>
-57.6541

>  <SCORE.INTER.CONST>
1

>  <SCORE.INTER.POLAR>
-8.57715

>  <SCORE.INTER.ROT>
14

>  <SCORE.INTER.SOLV>
22.4041

>  <SCORE.INTER.VDW>
-30.2469

>  <SCORE.INTER.norm>
-1.37272

>  <SCORE.INTRA>
-2.21539

>  <SCORE.INTRA.DIHEDRAL>
-18.8581

>  <SCORE.INTRA.DIHEDRAL.0>
48.7173

>  <SCORE.INTRA.POLAR>
0.641828

>  <SCORE.INTRA.POLAR.0>
-1.54691

>  <SCORE.INTRA.REPUL>
0

>  <SCORE.INTRA.REPUL.0>
0

>  <SCORE.INTRA.SOLV>
-2.41601

>  <SCORE.INTRA.SOLV.lig_0>
-64.052

>  <SCORE.INTRA.VDW>
6.23948

>  <SCORE.INTRA.VDW.0>
-7.0667

>  <SCORE.INTRA.norm>
-0.0527473

>  <SCORE.RESTR>
0.362248

>  <SCORE.RESTR.CAVITY>
0.362248

>  <SCORE.RESTR.norm>
0.00862496

>  <SCORE.SYSTEM>
0

>  <SCORE.SYSTEM.CONST>
0

>  <SCORE.SYSTEM.DIHEDRAL>
0

>  <SCORE.SYSTEM.SOLV>
0

>  <SCORE.SYSTEM.norm>
0

>  <SCORE.heavy>
42

>  <SCORE.norm>
-1.41684

>  <RMSD>
3.857

$$$$
1fyp_lig
 OpenBabel11021811393D
libRbt.so/2013.1/901 2013/11/27
 42 45  0  0  0  0  0  0  0  0999 V2000
    5.5081    5.2531   28.5719 C   0  0  2  0  0  0  0  0  0  0  0  0
    5.7116    4.3253   27.4673 O   0  0  0  0  0  0  0  0  0  0  0  0
    4.9952    7.2669   24.4549 C   0  0  2  0  0  0  0  0  0  0  0  0
    4.9514    8.0797   23.2253 N   0  0  0  0  0  0  0  0  0  0  0  0
    2.3942    3.4310   25.5790 C   0  0  1  0  0  0  0  0  0  0  0  0
   -1.4590    1.2472   26.0866 C   0  0  1  0  0  0  0  0  0  0  0  0
    5.5309    4.5163   29.9498 C   0  0  2  0  0  0  0  0  0  0  0  0
    6.7293    3.6604   30.0805 N   0  0  0  0  0  0  0  0  0  0  0  0
    6.4637    7.0189   24.8537 C   0  0  0  0  0  0  0  0  0  0  0  0
    1.9679    2.1393   24.8766 C   0  0  2  0  0  0  0  0  0  0  0  0
    1.3085    2.4580   23.6506 O   0  0  0  0  0  0  0  0  0  0  0  0
   -1.8444    1.3456   27.5943 C   0  0  2  0  0  0  0  0  0  0  0  0
   -0.6672    1.2549   28.4921 N   0  0  0  0  0  0  0  0  0  0  0  0
    4.2357    3.6684   30.1487 C   0  0  1  0  0  0  0  0  0  0  0  0
    4.1969    3.1321   31.4687 O   0  0  0  0  0  0  0  0  0  0  0  0
    6.5856    6.1887   26.1607 C   0  0  2  0  0  0  0  0  0  0  0  0
    8.0216    5.9412   26.4060 N   0  0  0  0  0  0  0  0  0  0  0  0
    0.9929    1.5372   25.8921 C   0  0  2  0  0  0  0  0  0  0  0  0
   -0.3377    2.1125   25.7696 O   0  0  0  0  0  0  0  0  0  0  0  0
   -2.9224    0.2802   27.9629 C   0  0  1  0  0  0  0  0  0  0  0  0
   -4.1708    0.6868   27.4063 O   0  0  0  0  0  0  0  0  0  0  0  0
    2.9552    4.5105   29.9213 C   0  0  2  0  0  0  0  0  0  0  0  0
    1.8160    3.6617   30.0248 O   0  0  0  0  0  0  0  0  0  0  0  0
    5.7725    4.8455   26.1082 C   0  0  2  0  0  0  0  0  0  0  0  0
    1.6328    1.9371   27.2289 C   0  0  2  0  0  0  0  0  0  0  0  0
    2.2869    3.1990   26.9927 O   0  0  0  0  0  0  0  0  0  0  0  0
   -2.6019   -1.1549   27.4454 C   0  0  2  0  0  0  0  0  0  0  0  0
   -1.5458   -1.6986   28.2390 O   0  0  0  0  0  0  0  0  0  0  0  0
    3.0010    5.1976   28.5270 C   0  0  2  0  0  0  0  0  0  0  0  0
    4.2359    5.9669   28.4133 O   0  0  0  0  0  0  0  0  0  0  0  0
    4.3125    5.0354   25.5581 C   0  0  2  0  0  0  0  0  0  0  0  0
    3.7779    3.7253   25.2350 O   0  0  0  0  0  0  0  0  0  0  0  0
    2.6492    0.9027   27.7444 C   0  0  0  0  0  0  0  0  0  0  0  0
    2.6399    0.8477   29.1602 O   0  0  0  0  0  0  0  0  0  0  0  0
   -2.1842   -1.1214   25.9425 C   0  0  1  0  0  0  0  0  0  0  0  0
   -1.1189   -0.1411   25.7513 O   0  0  0  0  0  0  0  0  0  0  0  0
    1.8410    6.1797   28.2494 C   0  0  0  0  0  0  0  0  0  0  0  0
    1.9746    7.3642   29.0166 O   0  0  0  0  0  0  0  0  0  0  0  0
    4.2563    5.9192   24.2735 C   0  0  1  0  0  0  0  0  0  0  0  0
    2.8900    6.1743   23.9512 O   0  0  0  0  0  0  0  0  0  0  0  0
   -1.7010   -2.5006   25.4252 C   0  0  0  0  0  0  0  0  0  0  0  0
   -1.3225   -2.4667   24.0009 N   0  0  0  0  0  0  0  0  0  0  0  0
  1  2  1  6  0  0  0
  1  7  1  0  0  0  0
  1 30  1  0  0  0  0
  3  4  1  6  0  0  0
  3  9  1  0  0  0  0
  3 39  1  0  0  0  0
  5 10  1  0  0  0  0
  5 26  1  0  0  0  0
  5 32  1  1  0  0  0
  6 12  1  0  0  0  0
  6 36  1  0  0  0  0
  6 19  1  1  0  0  0
  7  8  1  6  0  0  0
  7 14  1  0  0  0  0
  9 16  1  0  0  0  0
 10 11  1  6  0  0  0
 10 18  1  0  0  0  0
 12 13  1  1  0  0  0
 12 20  1  0  0  0  0
 14 15  1  1  0  0  0
 14 22  1  0  0  0  0
 16 17  1  6  0  0  0
 16 24  1  0  0  0  0
 18 19  1  6  0  0  0
 18 25  1  0  0  0  0
 20 21  1  6  0  0  0
 20 27  1  0  0  0  0
 22 23  1  6  0  0  0
 22 29  1  0  0  0  0
 24  2  1  1  0  0  0
 24 31  1  0  0  0  0
 25 26  1  0  0  0  0
 25 33  1  6  0  0  0
 27 28  1  1  0  0  0
 27 35  1  0  0  0  0
 29 30  1  0  0  0  0
 29 37  1  1  0  0  0
 31 32  1  6  0  0  0
 31 39  1  0  0  0  0
 33 34  1  0  0  0  0
 35 36  1  0  0  0  0
 35 41  1  1  0  0  0
 37 38  1  0  0  0  0
 39 40  1  1  0  0  0
 41 42  1  0  0  0  0
M  END
>  <CHROM.1>
-177.63250970,39.81944557,70.71461397,-84.41876397,165.72819246,137.59805132
63.74774226,-58.92280935,148.14396713,90.32046825,-179.44671002,165.14374327
-146.59841778,71.50014770,71.68505010,138.70886237,167.50695910,-46.02028996
179.33535662,55.37271462,-55.53430941,61.13935428,2.21297138,3.13176640,27.00205760
-0.12623583,0.71834566,1.78620578

>  <Name>
1fyp_lig

>  <RI>
0

>  <Rbt.Current_Directory>
/home/itssahil/PROJECTS/Mol_Feturizer/New_Systems/rnas/1fyp

>  <Rbt.Executable>
rbdock ($Id: //depot/dev/client3/rdock/2013.1/src/exe/rbdock.cxx#4 $)

>  <Rbt.Library>
libRbt.so (2013.1, Build901 2013/11/27)

>  <Rbt.Parameter_File>
/export/apps/rDock/src/rDock_2013.1_src/data/scripts/dock_solv.prm

>  <Rbt.Receptor>
prm/pocket_docking_4.prm

>  <SCORE>
-42.7672

>  <SCORE.INTER>
-35.5347

>  <SCORE.INTER.CONST>
1

>  <SCORE.INTER.POLAR>
-3.94309

>  <SCORE.INTER.ROT>
14

>  <SCORE.INTER.SOLV>
18.1584

>  <SCORE.INTER.VDW>
-29.5323

>  <SCORE.INTER.norm>
-0.846063

>  <SCORE.INTRA>
-7.52062

>  <SCORE.INTRA.DIHEDRAL>
-22.0299

>  <SCORE.INTRA.DIHEDRAL.0>
48.7173

>  <SCORE.INTRA.POLAR>
0.325181

>  <SCORE.INTRA.POLAR.0>
-1.54691

>  <SCORE.INTRA.REPUL>
0.123947

>  <SCORE.INTRA.REPUL.0>
0

>  <SCORE.INTRA.SOLV>
0.434577

>  <SCORE.INTRA.SOLV.lig_0>
-64.052

>  <SCORE.INTRA.VDW>
1.55172

>  <SCORE.INTRA.VDW.0>
-7.0667

>  <SCORE.INTRA.norm>
-0.179062

>  <SCORE.RESTR>
0.288124

>  <SCORE.RESTR.CAVITY>
0.288124

>  <SCORE.RESTR.norm>
0.0068601

>  <SCORE.SYSTEM>
0

>  <SCORE.SYSTEM.CONST>
0

>  <SCORE.SYSTEM.DIHEDRAL>
0

>  <SCORE.SYSTEM.SOLV>
0

>  <SCORE.SYSTEM.norm>
0

>  <SCORE.heavy>
42

>  <SCORE.norm>
-1.01827

>  <RMSD>
3.872

$$$$
1fyp_lig
 OpenBabel11021811393D
libRbt.so/2013.1/901 2013/11/27
 42 45  0  0  0  0  0  0  0  0999 V2000
    5.6829    5.3152   29.1691 C   0  0  2  0  0  0  0  0  0  0  0  0
    5.8652    4.5222   27.9606 O   0  0  0  0  0  0  0  0  0  0  0  0
    4.9754    7.7435   25.3013 C   0  0  2  0  0  0  0  0  0  0  0  0
    4.8811    8.6868   24.1718 N   0  0  0  0  0  0  0  0  0  0  0  0
    2.5308    3.7750   25.7546 C   0  0  1  0  0  0  0  0  0  0  0  0
   -1.2982    1.4897   25.5435 C   0  0  1  0  0  0  0  0  0  0  0  0
    5.4730    4.4070   30.4234 C   0  0  2  0  0  0  0  0  0  0  0  0
    6.5267    3.3745   30.5203 N   0  0  0  0  0  0  0  0  0  0  0  0
    6.4573    7.5308   25.6696 C   0  0  0  0  0  0  0  0  0  0  0  0
    2.2708    2.4119   25.1082 C   0  0  2  0  0  0  0  0  0  0  0  0
    1.8761    2.5962   23.7482 O   0  0  0  0  0  0  0  0  0  0  0  0
   -2.3198    1.8927   26.6504 C   0  0  2  0  0  0  0  0  0  0  0  0
   -1.6680    2.1853   27.9503 N   0  0  0  0  0  0  0  0  0  0  0  0
    4.0622    3.7401   30.3973 C   0  0  1  0  0  0  0  0  0  0  0  0
    3.8241    3.0452   31.6188 O   0  0  0  0  0  0  0  0  0  0  0  0
    6.6310    6.5657   26.8740 C   0  0  2  0  0  0  0  0  0  0  0  0
    8.0796    6.3693   27.0899 N   0  0  0  0  0  0  0  0  0  0  0  0
    1.1127    1.8785   25.9559 C   0  0  2  0  0  0  0  0  0  0  0  0
   -0.1692    2.4011   25.5084 O   0  0  0  0  0  0  0  0  0  0  0  0
   -3.4297    0.8075   26.8038 C   0  0  1  0  0  0  0  0  0  0  0  0
   -4.3034    0.8905   25.6799 O   0  0  0  0  0  0  0  0  0  0  0  0
    2.9350    4.7839   30.1966 C   0  0  2  0  0  0  0  0  0  0  0  0
    1.6871    4.1057   30.0883 O   0  0  0  0  0  0  0  0  0  0  0  0
    5.8903    5.1954   26.6693 C   0  0  2  0  0  0  0  0  0  0  0  0
    1.4588    2.4192   27.3503 C   0  0  2  0  0  0  0  0  0  0  0  0
    2.1359    3.6722   27.1320 O   0  0  0  0  0  0  0  0  0  0  0  0
   -2.8861   -0.6507   26.8924 C   0  0  2  0  0  0  0  0  0  0  0  0
   -2.2879   -0.8352   28.1764 O   0  0  0  0  0  0  0  0  0  0  0  0
    3.2074    5.6353   28.9242 C   0  0  2  0  0  0  0  0  0  0  0  0
    4.5400    6.2229   29.0183 O   0  0  0  0  0  0  0  0  0  0  0  0
    4.4190    5.3680   26.1442 C   0  0  2  0  0  0  0  0  0  0  0  0
    3.9530    4.0762   25.6744 O   0  0  0  0  0  0  0  0  0  0  0  0
    2.3563    1.4671   28.1606 C   0  0  0  0  0  0  0  0  0  0  0  0
    2.4205    0.1906   27.5489 O   0  0  0  0  0  0  0  0  0  0  0  0
   -1.8401   -0.9213   25.7668 C   0  0  1  0  0  0  0  0  0  0  0  0
   -0.8194    0.1230   25.7843 O   0  0  0  0  0  0  0  0  0  0  0  0
    2.2228    6.8054   28.7036 C   0  0  0  0  0  0  0  0  0  0  0  0
    0.9166    6.3328   28.4210 O   0  0  0  0  0  0  0  0  0  0  0  0
    4.3082    6.3873   24.9681 C   0  0  1  0  0  0  0  0  0  0  0  0
    2.9283    6.6037   24.6765 O   0  0  0  0  0  0  0  0  0  0  0  0
   -1.1521   -2.3032   25.9093 C   0  0  0  0  0  0  0  0  0  0  0  0
   -0.5321   -2.7561   24.6510 N   0  0  0  0  0  0  0  0  0  0  0  0
  1  2  1  6  0  0  0
  1  7  1  0  0  0  0
  1 30  1  0  0  0  0
  3  4  1  6  0  0  0
  3  9  1  0  0  0  0
  3 39  1  0  0  0  0
  5 10  1  0  0  0  0
  5 26  1  0  0  0  0
  5 32  1  1  0  0  0
  6 12  1  0  0  0  0
  6 36  1  0  0  0  0
  6 19  1  1  0  0  0
  7  8  1  6  0  0  0
  7 14  1  0  0  0  0
  9 16  1  0  0  0  0
 10 11  1  6  0  0  0
 10 18  1  0  0  0  0
 12 13  1  1  0  0  0
 12 20  1  0  0  0  0
 14 15  1  1  0  0  0
 14 22  1  0  0  0  0
 16 17  1  6  0  0  0
 16 24  1  0  0  0  0
 18 19  1  6  0  0  0
 18 25  1  0  0  0  0
 20 21  1  6  0  0  0
 20 27  1  0  0  0  0
 22 23  1  6  0  0  0
 22 29  1  0  0  0  0
 24  2  1  1  0  0  0
 24 31  1  0  0  0  0
 25 26  1  0  0  0  0
 25 33  1  6  0  0  0
 27 28  1  1  0  0  0
 27 35  1  0  0  0  0
 29 30  1  0  0  0  0
 29 37  1  1  0  0  0
 31 32  1  6  0  0  0
 31 39  1  0  0  0  0
 33 34  1  0  0  0  0
 35 36  1  0  0  0  0
 35 41  1  1  0  0  0
 37 38  1  0  0  0  0
 39 40  1  1  0  0  0
 41 42  1  0  0  0  0
M  END
>  <CHROM.1>
171.61757451,36.90986465,-61.98752010,176.44339177,-179.65127026,174.69985438
63.66366026,-41.15619178,142.00776267,110.20119600,-57.13810137,169.94492826
-12.59614516,81.14692462,-66.77837463,150.26736130,175.74933999,88.15494159
160.50406593,-166.08902451,167.57038605,-154.39977940,2.18699891,3.39532648
27.11904728,-0.14818071,0.70777344,1.98109407

>  <Name>
1fyp_lig

>  <RI>
0

>  <Rbt.Current_Directory>
/home/itssahil/PROJECTS/Mol_Feturizer/New_Systems/rnas/1fyp

>  <Rbt.Executable>
rbdock ($Id: //depot/dev/client3/rdock/2013.1/src/exe/rbdock.cxx#4 $)

>  <Rbt.Library>
libRbt.so (2013.1, Build901 2013/11/27)

>  <Rbt.Parameter_File>
/export/apps/rDock/src/rDock_2013.1_src/data/scripts/dock_solv.prm

>  <Rbt.Receptor>
prm/blind_docking_60.prm

>  <SCORE>
-52.5536

>  <SCORE.INTER>
-50.4797

>  <SCORE.INTER.CONST>
1

>  <SCORE.INTER.POLAR>
-6.66653

>  <SCORE.INTER.ROT>
14

>  <SCORE.INTER.SOLV>
16.8539

>  <SCORE.INTER.VDW>
-29.9826

>  <SCORE.INTER.norm>
-1.2019

>  <SCORE.INTRA>
-2.07392

>  <SCORE.INTRA.DIHEDRAL>
-14.9307

>  <SCORE.INTRA.DIHEDRAL.0>
48.7173

>  <SCORE.INTRA.POLAR>
1.20169

>  <SCORE.INTRA.POLAR.0>
-1.54691

>  <SCORE.INTRA.REPUL>
0.0224426

>  <SCORE.INTRA.REPUL.0>
0

>  <SCORE.INTRA.SOLV>
-0.155254

>  <SCORE.INTRA.SOLV.lig_0>
-64.052

>  <SCORE.INTRA.VDW>
1.27107

>  <SCORE.INTRA.VDW.0>
-7.0667

>  <SCORE.INTRA.norm>
-0.0493791

>  <SCORE.RESTR>
0

>  <SCORE.RESTR.CAVITY>
0

>  <SCORE.RESTR.norm>
0

>  <SCORE.SYSTEM>
0

>  <SCORE.SYSTEM.CONST>
0

>  <SCORE.SYSTEM.DIHEDRAL>
0

>  <SCORE.SYSTEM.SOLV>
0

>  <SCORE.SYSTEM.norm>
0

>  <SCORE.heavy>
42

>  <SCORE.norm>
-1.25128

>  <RMSD>
3.913

$$$$
1fyp_lig
 OpenBabel11021811393D
libRbt.so/2013.1/901 2013/11/27
 42 45  0  0  0  0  0  0  0  0999 V2000
    5.5374    5.2519   28.9119 C   0  0  2  0  0  0  0  0  0  0  0  0
    5.7541    4.2750   27.8531 O   0  0  0  0  0  0  0  0  0  0  0  0
    5.0489    7.0813   24.7118 C   0  0  2  0  0  0  0  0  0  0  0  0
    5.0049    7.8362   23.4458 N   0  0  0  0  0  0  0  0  0  0  0  0
    2.4010    3.3452   26.0040 C   0  0  1  0  0  0  0  0  0  0  0  0
   -1.5440    1.2648   26.1663 C   0  0  1  0  0  0  0  0  0  0  0  0
    5.5503    4.5795   30.3225 C   0  0  2  0  0  0  0  0  0  0  0  0
    6.7503    3.7351   30.5032 N   0  0  0  0  0  0  0  0  0  0  0  0
    6.5175    6.8337   25.1105 C   0  0  0  0  0  0  0  0  0  0  0  0
    1.9167    2.1076   25.2441 C   0  0  2  0  0  0  0  0  0  0  0  0
    1.2672    2.5120   24.0382 O   0  0  0  0  0  0  0  0  0  0  0  0
   -2.3403    1.4053   27.4995 C   0  0  2  0  0  0  0  0  0  0  0  0
   -1.4641    1.3628   28.6956 N   0  0  0  0  0  0  0  0  0  0  0  0
    4.2562    3.7368   30.5487 C   0  0  1  0  0  0  0  0  0  0  0  0
    4.2073    3.2618   31.8918 O   0  0  0  0  0  0  0  0  0  0  0  0
    6.6400    6.0641   26.4540 C   0  0  2  0  0  0  0  0  0  0  0  0
    8.0749    5.8103   26.6997 N   0  0  0  0  0  0  0  0  0  0  0  0
    0.9204    1.5006   26.2357 C   0  0  2  0  0  0  0  0  0  0  0  0
   -0.3845    2.1377   26.1480 O   0  0  0  0  0  0  0  0  0  0  0  0
   -3.4714    0.3348   27.5866 C   0  0  1  0  0  0  0  0  0  0  0  0
   -4.5143    0.7029   26.6863 O   0  0  0  0  0  0  0  0  0  0  0  0
    2.9750    4.5626   30.2714 C   0  0  2  0  0  0  0  0  0  0  0  0
    1.8378    3.7153   30.4038 O   0  0  0  0  0  0  0  0  0  0  0  0
    5.8102    4.7302   26.4707 C   0  0  2  0  0  0  0  0  0  0  0  0
    1.5820    1.8091   27.5861 C   0  0  2  0  0  0  0  0  0  0  0  0
    2.2891    3.0514   27.4058 O   0  0  0  0  0  0  0  0  0  0  0  0
   -3.0083   -1.1107   27.2318 C   0  0  2  0  0  0  0  0  0  0  0  0
   -2.2159   -1.6112   28.3098 O   0  0  0  0  0  0  0  0  0  0  0  0
    3.0311    5.1849   28.8473 C   0  0  2  0  0  0  0  0  0  0  0  0
    4.2644    5.9528   28.7092 O   0  0  0  0  0  0  0  0  0  0  0  0
    4.3481    4.9126   25.9236 C   0  0  2  0  0  0  0  0  0  0  0  0
    3.7949    3.5957   25.6663 O   0  0  0  0  0  0  0  0  0  0  0  0
    2.5546    0.7087   28.0465 C   0  0  0  0  0  0  0  0  0  0  0  0
    2.9669    0.9266   29.3845 O   0  0  0  0  0  0  0  0  0  0  0  0
   -2.1832   -1.1187   25.9075 C   0  0  1  0  0  0  0  0  0  0  0  0
   -1.1138   -0.1278   25.9900 O   0  0  0  0  0  0  0  0  0  0  0  0
    1.8704    6.1488   28.5144 C   0  0  0  0  0  0  0  0  0  0  0  0
    1.9266    7.3180   29.3140 O   0  0  0  0  0  0  0  0  0  0  0  0
    4.2921    5.7360   24.5994 C   0  0  1  0  0  0  0  0  0  0  0  0
    2.9264    5.9929   24.2760 O   0  0  0  0  0  0  0  0  0  0  0  0
   -1.5645   -2.5057   25.5968 C   0  0  0  0  0  0  0  0  0  0  0  0
   -0.7435   -2.4946   24.3726 N   0  0  0  0  0  0  0  0  0  0  0  0
  1  2  1  6  0  0  0
  1  7  1  0  0  0  0
  1 30  1  0  0  0  0
  3  4  1  6  0  0  0
  3  9  1  0  0  0  0
  3 39  1  0  0  0  0
  5 10  1  0  0  0  0
  5 26  1  0  0  0  0
  5 32  1  6  0  0  0
  6 12  1  0  0  0  0
  6 36  1  0  0  0  0
  6 19  1  1  0  0  0
  7  8  1  6  0  0  0
  7 14  1  0  0  0  0
  9 16  1  0  0  0  0
 10 11  1  6  0  0  0
 10 18  1  0  0  0  0
 12 13  1  1  0  0  0
 12 20  1  0  0  0  0
 14 15  1  1  0  0  0
 14 22  1  0  0  0  0
 16 17  1  6  0  0  0
 16 24  1  0  0  0  0
 18 19  1  1  0  0  0
 18 25  1  0  0  0  0
 20 21  1  6  0  0  0
 20 27  1  0  0  0  0
 22 23  1  6  0  0  0
 22 29  1  0  0  0  0
 24  2  1  1  0  0  0
 24 31  1  0  0  0  0
 25 26  1  0  0  0  0
 25 33  1  6  0  0  0
 27 28  1  1  0  0  0
 27 35  1  0  0  0  0
 29 30  1  0  0  0  0
 29 37  1  1  0  0  0
 31 32  1  6  0  0  0
 31 39  1  0  0  0  0
 33 34  1  0  0  0  0
 35 36  1  0  0  0  0
 35 41  1  1  0  0  0
 37 38  1  0  0  0  0
 39 40  1  1  0  0  0
 41 42  1  0  0  0  0
M  END
>  <CHROM.1>
-178.33430520,41.34751659,-160.25039105,-121.42192368,169.05811061,-61.10020291
-78.11762068,-169.79887972,136.28080797,109.78335339,-58.32927965,169.82477099
-170.30789729,144.03478223,66.47336414,140.20162617,161.27398665,55.35853102
-177.79078404,-172.03774342,69.66081550,98.98948838,2.16737740,3.09631005
27.24491360,-0.06785513,0.69070690,1.77878837

>  <Name>
1fyp_lig

>  <RI>
0

>  <Rbt.Current_Directory>
/home/itssahil/PROJECTS/Mol_Feturizer/New_Systems/rnas/1fyp

>  <Rbt.Executable>
rbdock ($Id: //depot/dev/client3/rdock/2013.1/src/exe/rbdock.cxx#4 $)

>  <Rbt.Library>
libRbt.so (2013.1, Build901 2013/11/27)

>  <Rbt.Parameter_File>
/export/apps/rDock/src/rDock_2013.1_src/data/scripts/dock_solv.prm

>  <Rbt.Receptor>
prm/pocket_docking_6.prm

>  <SCORE>
-59.0838

>  <SCORE.INTER>
-58.3339

>  <SCORE.INTER.CONST>
1

>  <SCORE.INTER.POLAR>
-7.59528

>  <SCORE.INTER.ROT>
14

>  <SCORE.INTER.SOLV>
19.2229

>  <SCORE.INTER.VDW>
-32.9126

>  <SCORE.INTER.norm>
-1.3889

>  <SCORE.INTRA>
-0.749961

>  <SCORE.INTRA.DIHEDRAL>
-13.7152

>  <SCORE.INTRA.DIHEDRAL.0>
48.7173

>  <SCORE.INTRA.POLAR>
1.46947

>  <SCORE.INTRA.POLAR.0>
-1.54691

>  <SCORE.INTRA.REPUL>
0

>  <SCORE.INTRA.REPUL.0>
0

>  <SCORE.INTRA.SOLV>
-0.000639264

>  <SCORE.INTRA.SOLV.lig_0>
-64.052

>  <SCORE.INTRA.VDW>
1.11176

>  <SCORE.INTRA.VDW.0>
-7.0667

>  <SCORE.INTRA.norm>
-0.0178562

>  <SCORE.RESTR>
0

>  <SCORE.RESTR.CAVITY>
0

>  <SCORE.RESTR.norm>
0

>  <SCORE.SYSTEM>
0

>  <SCORE.SYSTEM.CONST>
0

>  <SCORE.SYSTEM.DIHEDRAL>
0

>  <SCORE.SYSTEM.SOLV>
0

>  <SCORE.SYSTEM.norm>
0

>  <SCORE.heavy>
42

>  <SCORE.norm>
-1.40676

>  <RMSD>
3.927

$$$$
1fyp_lig
 OpenBabel11021811393D
libRbt.so/2013.1/901 2013/11/27
 42 45  0  0  0  0  0  0  0  0999 V2000
    4.6791    5.3507   29.8760 C   0  0  2  0  0  0  0  0  0  0  0  0
    5.3464    4.7085   28.7514 O   0  0  0  0  0  0  0  0  0  0  0  0
    4.1721    7.7015   25.9400 C   0  0  2  0  0  0  0  0  0  0  0  0
    4.0533    8.6366   24.8060 N   0  0  0  0  0  0  0  0  0  0  0  0
    2.8198    3.2093   25.9579 C   0  0  1  0  0  0  0  0  0  0  0  0
   -0.3371    0.1572   25.4993 C   0  0  1  0  0  0  0  0  0  0  0  0
    4.4026    4.3367   31.0324 C   0  0  2  0  0  0  0  0  0  0  0  0
    5.6248    3.5863   31.3914 N   0  0  0  0  0  0  0  0  0  0  0  0
    5.5575    7.8651   26.5966 C   0  0  0  0  0  0  0  0  0  0  0  0
    3.0609    1.8332   25.3319 C   0  0  2  0  0  0  0  0  0  0  0  0
    2.9022    1.9190   23.9153 O   0  0  0  0  0  0  0  0  0  0  0  0
   -1.1284   -0.1670   24.1955 C   0  0  2  0  0  0  0  0  0  0  0  0
   -1.5622    1.0531   23.4720 N   0  0  0  0  0  0  0  0  0  0  0  0
    3.2560    3.3509   30.6453 C   0  0  1  0  0  0  0  0  0  0  0  0
    2.9076    2.5387   31.7636 O   0  0  0  0  0  0  0  0  0  0  0  0
    5.7426    6.9264   27.8200 C   0  0  2  0  0  0  0  0  0  0  0  0
    7.1217    7.1036   28.3204 N   0  0  0  0  0  0  0  0  0  0  0  0
    1.9444    0.9998   25.9670 C   0  0  2  0  0  0  0  0  0  0  0  0
    0.6816    1.1639   25.2635 O   0  0  0  0  0  0  0  0  0  0  0  0
   -2.3360   -1.1069   24.4976 C   0  0  1  0  0  0  0  0  0  0  0  0
   -1.8364   -2.4158   24.7638 O   0  0  0  0  0  0  0  0  0  0  0  0
    1.9877    4.1014   30.1673 C   0  0  2  0  0  0  0  0  0  0  0  0
    1.0168    3.1499   29.7424 O   0  0  0  0  0  0  0  0  0  0  0  0
    5.4427    5.4211   27.4847 C   0  0  2  0  0  0  0  0  0  0  0  0
    1.8582    1.5990   27.3777 C   0  0  2  0  0  0  0  0  0  0  0  0
    2.2076    2.9899   27.2389 O   0  0  0  0  0  0  0  0  0  0  0  0
   -3.2025   -0.6589   25.7136 C   0  0  2  0  0  0  0  0  0  0  0  0
   -3.9677    0.4845   25.3293 O   0  0  0  0  0  0  0  0  0  0  0  0
    2.3416    5.0770   29.0092 C   0  0  2  0  0  0  0  0  0  0  0  0
    3.4180    5.9624   29.4417 O   0  0  0  0  0  0  0  0  0  0  0  0
    4.1084    5.2285   26.6769 C   0  0  2  0  0  0  0  0  0  0  0  0
    4.0988    3.8819   26.1355 O   0  0  0  0  0  0  0  0  0  0  0  0
    2.8017    0.9142   28.3824 C   0  0  0  0  0  0  0  0  0  0  0  0
    4.1321    1.3737   28.2199 O   0  0  0  0  0  0  0  0  0  0  0  0
   -2.3009   -0.3165   26.9400 C   0  0  1  0  0  0  0  0  0  0  0  0
   -1.2626    0.6280   26.5371 O   0  0  0  0  0  0  0  0  0  0  0  0
    1.1799    5.9856   28.5486 C   0  0  0  0  0  0  0  0  0  0  0  0
    1.5304    6.7216   27.3890 O   0  0  0  0  0  0  0  0  0  0  0  0
    3.9629    6.2346   25.4932 C   0  0  1  0  0  0  0  0  0  0  0  0
    2.6582    6.0979   24.9321 O   0  0  0  0  0  0  0  0  0  0  0  0
   -3.1025    0.2871   28.1216 C   0  0  0  0  0  0  0  0  0  0  0  0
   -2.2289    0.8781   29.1514 N   0  0  0  0  0  0  0  0  0  0  0  0
  1  2  1  6  0  0  0
  1  7  1  0  0  0  0
  1 30  1  0  0  0  0
  3  4  1  6  0  0  0
  3  9  1  0  0  0  0
  3 39  1  0  0  0  0
  5 10  1  0  0  0  0
  5 26  1  0  0  0  0
  5 32  1  1  0  0  0
  6 12  1  0  0  0  0
  6 36  1  0  0  0  0
  6 19  1  6  0  0  0
  7  8  1  6  0  0  0
  7 14  1  0  0  0  0
  9 16  1  0  0  0  0
 10 11  1  6  0  0  0
 10 18  1  0  0  0  0
 12 13  1  1  0  0  0
 12 20  1  0  0  0  0
 14 15  1  1  0  0  0
 14 22  1  0  0  0  0
 16 17  1  6  0  0  0
 16 24  1  0  0  0  0
 18 19  1  6  0  0  0
 18 25  1  0  0  0  0
 20 21  1  1  0  0  0
 20 27  1  0  0  0  0
 22 23  1  6  0  0  0
 22 29  1  0  0  0  0
 24  2  1  1  0  0  0
 24 31  1  0  0  0  0
 25 26  1  0  0  0  0
 25 33  1  1  0  0  0
 27 28  1  6  0  0  0
 27 35  1  0  0  0  0
 29 30  1  0  0  0  0
 29 37  1  1  0  0  0
 31 32  1  6  0  0  0
 31 39  1  0  0  0  0
 33 34  1  0  0  0  0
 35 36  1  0  0  0  0
 35 41  1  1  0  0  0
 37 38  1  0  0  0  0
 39 40  1  1  0  0  0
 41 42  1  0  0  0  0
M  END
>  <CHROM.1>
167.74527453,39.58711801,-31.54844788,139.24781815,-56.52792673,14.63580965
-179.70667350,75.19087594,162.26423176,-142.23602798,-59.43167634,-178.90769634
78.50935791,74.26686615,-172.71019631,149.15494365,178.00365086,-61.47284018
-167.44218696,-178.85351528,-56.78743600,59.67300335,1.97514291,3.20214746
27.22811454,0.03893590,0.79409677,1.88991044

>  <Name>
1fyp_lig

>  <RI>
0

>  <Rbt.Current_Directory>
/home/itssahil/PROJECTS/Mol_Feturizer/New_Systems/rnas/1fyp

>  <Rbt.Executable>
rbdock ($Id: //depot/dev/client3/rdock/2013.1/src/exe/rbdock.cxx#4 $)

>  <Rbt.Library>
libRbt.so (2013.1, Build901 2013/11/27)

>  <Rbt.Parameter_File>
/export/apps/rDock/src/rDock_2013.1_src/data/scripts/dock_solv.prm

>  <Rbt.Receptor>
prm/blind_docking_60.prm

>  <SCORE>
-49.316

>  <SCORE.INTER>
-40.8923

>  <SCORE.INTER.CONST>
1

>  <SCORE.INTER.POLAR>
-6.12502

>  <SCORE.INTER.ROT>
14

>  <SCORE.INTER.SOLV>
11.8416

>  <SCORE.INTER.VDW>
-23.7253

>  <SCORE.INTER.norm>
-0.973625

>  <SCORE.INTRA>
-8.771

>  <SCORE.INTRA.DIHEDRAL>
-27.0854

>  <SCORE.INTRA.DIHEDRAL.0>
48.7173

>  <SCORE.INTRA.POLAR>
0.382284

>  <SCORE.INTRA.POLAR.0>
-1.54691

>  <SCORE.INTRA.REPUL>
0.31205

>  <SCORE.INTRA.REPUL.0>
0

>  <SCORE.INTRA.SOLV>
2.54867

>  <SCORE.INTRA.SOLV.lig_0>
-64.052

>  <SCORE.INTRA.VDW>
0.637355

>  <SCORE.INTRA.VDW.0>
-7.0667

>  <SCORE.INTRA.norm>
-0.208833

>  <SCORE.RESTR>
0.34726

>  <SCORE.RESTR.CAVITY>
0.34726

>  <SCORE.RESTR.norm>
0.00826809

>  <SCORE.SYSTEM>
0

>  <SCORE.SYSTEM.CONST>
0

>  <SCORE.SYSTEM.DIHEDRAL>
0

>  <SCORE.SYSTEM.SOLV>
0

>  <SCORE.SYSTEM.norm>
0

>  <SCORE.heavy>
42

>  <SCORE.norm>
-1.17419

>  <RMSD>
3.928

$$$$
1fyp_lig
 OpenBabel11021811393D
libRbt.so/2013.1/901 2013/11/27
 42 45  0  0  0  0  0  0  0  0999 V2000
    9.2352    6.4432   27.1148 C   0  0  2  0  0  0  0  0  0  0  0  0
    8.7864    7.5728   26.3118 O   0  0  0  0  0  0  0  0  0  0  0  0
    5.2854    8.3423   23.9898 C   0  0  2  0  0  0  0  0  0  0  0  0
    4.2239    8.3887   22.9673 N   0  0  0  0  0  0  0  0  0  0  0  0
    5.4344    4.8857   26.8339 C   0  0  1  0  0  0  0  0  0  0  0  0
    2.6332    3.3115   29.0682 C   0  0  1  0  0  0  0  0  0  0  0  0
    8.9595    6.6764   28.6353 C   0  0  2  0  0  0  0  0  0  0  0  0
    7.5561    7.0772   28.8705 N   0  0  0  0  0  0  0  0  0  0  0  0
    6.6430    8.6661   23.3348 C   0  0  0  0  0  0  0  0  0  0  0  0
    5.6720    3.3762   26.9264 C   0  0  2  0  0  0  0  0  0  0  0  0
    5.0712    2.7289   25.8041 O   0  0  0  0  0  0  0  0  0  0  0  0
    2.8883    2.5482   30.4036 C   0  0  2  0  0  0  0  0  0  0  0  0
    2.9714    1.0792   30.2153 N   0  0  0  0  0  0  0  0  0  0  0  0
    9.9336    7.7470   29.2193 C   0  0  1  0  0  0  0  0  0  0  0  0
    9.7784    7.8334   30.6336 O   0  0  0  0  0  0  0  0  0  0  0  0
    7.8075    8.6617   24.3627 C   0  0  2  0  0  0  0  0  0  0  0  0
    9.0638    8.9012   23.6225 N   0  0  0  0  0  0  0  0  0  0  0  0
    4.9447    3.0233   28.2268 C   0  0  2  0  0  0  0  0  0  0  0  0
    3.5164    2.8451   28.0151 O   0  0  0  0  0  0  0  0  0  0  0  0
    1.8154    2.9233   31.4719 C   0  0  1  0  0  0  0  0  0  0  0  0
    2.0821    4.2444   31.9379 O   0  0  0  0  0  0  0  0  0  0  0  0
   11.4133    7.4119   28.9056 C   0  0  2  0  0  0  0  0  0  0  0  0
   12.2405    8.4692   29.3814 O   0  0  0  0  0  0  0  0  0  0  0  0
    7.8781    7.3334   25.1986 C   0  0  2  0  0  0  0  0  0  0  0  0
    5.2115    4.2633   29.0914 C   0  0  2  0  0  0  0  0  0  0  0  0
    5.2892    5.3741   28.1771 O   0  0  0  0  0  0  0  0  0  0  0  0
    0.3493    2.8790   30.9441 C   0  0  2  0  0  0  0  0  0  0  0  0
   -0.0359    1.5123   30.7876 O   0  0  0  0  0  0  0  0  0  0  0  0
   11.6090    7.2097   27.3762 C   0  0  2  0  0  0  0  0  0  0  0  0
   10.6667    6.2007   26.9028 O   0  0  0  0  0  0  0  0  0  0  0  0
    6.4783    6.8867   25.7565 C   0  0  2  0  0  0  0  0  0  0  0  0
    6.5901    5.5118   26.2078 O   0  0  0  0  0  0  0  0  0  0  0  0
    6.5109    4.1597   29.9096 C   0  0  0  0  0  0  0  0  0  0  0  0
    6.5853    5.1962   30.8729 O   0  0  0  0  0  0  0  0  0  0  0  0
    0.2273    3.6324   29.5833 C   0  0  1  0  0  0  0  0  0  0  0  0
    1.2363    3.1323   28.6536 O   0  0  0  0  0  0  0  0  0  0  0  0
   13.0173    6.7292   26.9603 C   0  0  0  0  0  0  0  0  0  0  0  0
   13.3212    5.4685   27.5328 O   0  0  0  0  0  0  0  0  0  0  0  0
    5.3447    6.9618   24.6870 C   0  0  1  0  0  0  0  0  0  0  0  0
    4.0943    6.7054   25.3245 O   0  0  0  0  0  0  0  0  0  0  0  0
   -1.1742    3.4797   28.9387 C   0  0  0  0  0  0  0  0  0  0  0  0
   -1.5189    2.0724   28.6673 N   0  0  0  0  0  0  0  0  0  0  0  0
  1  2  1  6  0  0  0
  1  7  1  0  0  0  0
  1 30  1  0  0  0  0
  3  4  1  6  0  0  0
  3  9  1  0  0  0  0
  3 39  1  0  0  0  0
  5 10  1  0  0  0  0
  5 26  1  0  0  0  0
  5 32  1  1  0  0  0
  6 12  1  0  0  0  0
  6 36  1  0  0  0  0
  6 19  1  6  0  0  0
  7  8  1  6  0  0  0
  7 14  1  0  0  0  0
  9 16  1  0  0  0  0
 10 11  1  6  0  0  0
 10 18  1  0  0  0  0
 12 13  1  6  0  0  0
 12 20  1  0  0  0  0
 14 15  1  1  0  0  0
 14 22  1  0  0  0  0
 16 17  1  6  0  0  0
 16 24  1  0  0  0  0
 18 19  1  6  0  0  0
 18 25  1  0  0  0  0
 20 21  1  6  0  0  0
 20 27  1  0  0  0  0
 22 23  1  6  0  0  0
 22 29  1  0  0  0  0
 24  2  1  1  0  0  0
 24 31  1  0  0  0  0
 25 26  1  0  0  0  0
 25 33  1  6  0  0  0
 27 28  1  6  0  0  0
 27 35  1  0  0  0  0
 29 30  1  0  0  0  0
 29 37  1  1  0  0  0
 31 32  1  6  0  0  0
 31 39  1  0  0  0  0
 33 34  1  0  0  0  0
 35 36  1  0  0  0  0
 35 41  1  6  0  0  0
 37 38  1  0  0  0  0
 39 40  1  1  0  0  0
 41 42  1  0  0  0  0
M  END
>  <CHROM.1>
-126.17707757,-168.81711308,57.64182909,-63.97276374,-163.86988462,111.18227847
-174.27149875,-35.81633018,-143.22428525,-61.97410127,-176.12867432,68.23351169
-168.81191906,59.66349558,61.22211951,176.92898658,167.02913928,-176.79712594
-59.74532661,-178.79535332,-58.80777109,155.70154888,5.94733652,5.40924539
27.83536682,-0.45465967,0.30579274,2.05207899

>  <Name>
1fyp_lig

>  <RI>
0

>  <Rbt.Current_Directory>
/home/itssahil/PROJECTS/Mol_Feturizer/New_Systems/rnas/1fyp

>  <Rbt.Executable>
rbdock ($Id: //depot/dev/client3/rdock/2013.1/src/exe/rbdock.cxx#4 $)

>  <Rbt.Library>
libRbt.so (2013.1, Build901 2013/11/27)

>  <Rbt.Parameter_File>
/export/apps/rDock/src/rDock_2013.1_src/data/scripts/dock_solv.prm

>  <Rbt.Receptor>
prm/pocket_docking_7.prm

>  <SCORE>
-42.3168

>  <SCORE.INTER>
-30.645

>  <SCORE.INTER.CONST>
1

>  <SCORE.INTER.POLAR>
-2.26712

>  <SCORE.INTER.ROT>
14

>  <SCORE.INTER.SOLV>
15.0446

>  <SCORE.INTER.VDW>
-30.8212

>  <SCORE.INTER.norm>
-0.729644

>  <SCORE.INTRA>
-11.6718

>  <SCORE.INTRA.DIHEDRAL>
-29.0442

>  <SCORE.INTRA.DIHEDRAL.0>
48.7173

>  <SCORE.INTRA.POLAR>
-0.243917

>  <SCORE.INTRA.POLAR.0>
-1.54691

>  <SCORE.INTRA.REPUL>
0

>  <SCORE.INTRA.REPUL.0>
0

>  <SCORE.INTRA.SOLV>
0.0171821

>  <SCORE.INTRA.SOLV.lig_0>
-64.052

>  <SCORE.INTRA.VDW>
3.67108

>  <SCORE.INTRA.VDW.0>
-7.0667

>  <SCORE.INTRA.norm>
-0.277899

>  <SCORE.RESTR>
0

>  <SCORE.RESTR.CAVITY>
0

>  <SCORE.RESTR.norm>
0

>  <SCORE.SYSTEM>
0

>  <SCORE.SYSTEM.CONST>
0

>  <SCORE.SYSTEM.DIHEDRAL>
0

>  <SCORE.SYSTEM.SOLV>
0

>  <SCORE.SYSTEM.norm>
0

>  <SCORE.heavy>
42

>  <SCORE.norm>
-1.00754

>  <RMSD>
3.943

$$$$
1fyp_lig
 OpenBabel11021811393D
libRbt.so/2013.1/901 2013/11/27
 42 45  0  0  0  0  0  0  0  0999 V2000
    5.3321    5.7499   29.0227 C   0  0  2  0  0  0  0  0  0  0  0  0
    4.3696    6.1948   28.0237 O   0  0  0  0  0  0  0  0  0  0  0  0
    4.0756    7.3532   23.9234 C   0  0  2  0  0  0  0  0  0  0  0  0
    4.2499    7.5502   22.4724 N   0  0  0  0  0  0  0  0  0  0  0  0
    1.9248    3.7020   25.7138 C   0  0  1  0  0  0  0  0  0  0  0  0
   -1.2946    0.9357   24.3754 C   0  0  1  0  0  0  0  0  0  0  0  0
    5.9752    4.3813   28.6284 C   0  0  2  0  0  0  0  0  0  0  0  0
    6.4966    4.4124   27.2454 N   0  0  0  0  0  0  0  0  0  0  0  0
    5.3978    7.6764   24.6474 C   0  0  0  0  0  0  0  0  0  0  0  0
    2.0859    2.5379   24.7327 C   0  0  2  0  0  0  0  0  0  0  0  0
    1.8859    3.0071   23.3987 O   0  0  0  0  0  0  0  0  0  0  0  0
   -2.3956    0.9464   25.4793 C   0  0  2  0  0  0  0  0  0  0  0  0
   -1.8324    1.0573   26.8471 N   0  0  0  0  0  0  0  0  0  0  0  0
    4.9495    3.2166   28.7944 C   0  0  1  0  0  0  0  0  0  0  0  0
    5.5926    1.9617   28.5856 O   0  0  0  0  0  0  0  0  0  0  0  0
    5.2790    7.5159   26.1877 C   0  0  2  0  0  0  0  0  0  0  0  0
    6.6125    7.7684   26.7721 N   0  0  0  0  0  0  0  0  0  0  0  0
    0.9552    1.6019   25.1682 C   0  0  2  0  0  0  0  0  0  0  0  0
   -0.3212    1.9910   24.5886 O   0  0  0  0  0  0  0  0  0  0  0  0
   -3.3261   -0.2986   25.3483 C   0  0  1  0  0  0  0  0  0  0  0  0
   -4.1718   -0.1153   24.2148 O   0  0  0  0  0  0  0  0  0  0  0  0
    4.3060    3.2119   30.2037 C   0  0  2  0  0  0  0  0  0  0  0  0
    3.3167    2.1887   30.2598 O   0  0  0  0  0  0  0  0  0  0  0  0
    4.7229    6.1095   26.6132 C   0  0  2  0  0  0  0  0  0  0  0  0
    0.9401    1.8018   26.6902 C   0  0  2  0  0  0  0  0  0  0  0  0
    1.3449    3.1663   26.9141 O   0  0  0  0  0  0  0  0  0  0  0  0
   -2.5639   -1.6473   25.1750 C   0  0  2  0  0  0  0  0  0  0  0  0
   -1.9786   -2.0025   26.4288 O   0  0  0  0  0  0  0  0  0  0  0  0
    3.6768    4.5995   30.5150 C   0  0  2  0  0  0  0  0  0  0  0  0
    4.6898    5.6348   30.3370 O   0  0  0  0  0  0  0  0  0  0  0  0
    3.4590    5.6757   25.7859 C   0  0  2  0  0  0  0  0  0  0  0  0
    3.2368    4.2591   26.0106 O   0  0  0  0  0  0  0  0  0  0  0  0
    1.8847    0.8409   27.4339 C   0  0  0  0  0  0  0  0  0  0  0  0
    3.2250    1.2950   27.3636 O   0  0  0  0  0  0  0  0  0  0  0  0
   -1.4589   -1.5225   24.0806 C   0  0  1  0  0  0  0  0  0  0  0  0
   -0.6147   -0.3655   24.3656 O   0  0  0  0  0  0  0  0  0  0  0  0
    3.1314    4.7568   31.9520 C   0  0  0  0  0  0  0  0  0  0  0  0
    1.9612    3.9808   32.1465 O   0  0  0  0  0  0  0  0  0  0  0  0
    3.6260    5.9092   24.2522 C   0  0  1  0  0  0  0  0  0  0  0  0
    2.3787    5.6497   23.6098 O   0  0  0  0  0  0  0  0  0  0  0  0
   -0.5675   -2.7872   23.9838 C   0  0  0  0  0  0  0  0  0  0  0  0
   -1.2869   -3.9410   23.4144 N   0  0  0  0  0  0  0  0  0  0  0  0
  1  2  1  6  0  0  0
  1  7  1  0  0  0  0
  1 30  1  0  0  0  0
  3  4  1  6  0  0  0
  3  9  1  0  0  0  0
  3 39  1  0  0  0  0
  5 10  1  0  0  0  0
  5 26  1  0  0  0  0
  5 32  1  1  0  0  0
  6 12  1  0  0  0  0
  6 36  1  0  0  0  0
  6 19  1  1  0  0  0
  7  8  1  6  0  0  0
  7 14  1  0  0  0  0
  9 16  1  0  0  0  0
 10 11  1  6  0  0  0
 10 18  1  0  0  0  0
 12 13  1  1  0  0  0
 12 20  1  0  0  0  0
 14 15  1  1  0  0  0
 14 22  1  0  0  0  0
 16 17  1  1  0  0  0
 16 24  1  0  0  0  0
 18 19  1  6  0  0  0
 18 25  1  0  0  0  0
 20 21  1  6  0  0  0
 20 27  1  0  0  0  0
 22 23  1  6  0  0  0
 22 29  1  0  0  0  0
 24  2  1  1  0  0  0
 24 31  1  0  0  0  0
 25 26  1  0  0  0  0
 25 33  1  1  0  0  0
 27 28  1  1  0  0  0
 27 35  1  0  0  0  0
 29 30  1  0  0  0  0
 29 37  1  1  0  0  0
 31 32  1  6  0  0  0
 31 39  1  0  0  0  0
 33 34  1  0  0  0  0
 35 36  1  0  0  0  0
 35 41  1  1  0  0  0
 37 38  1  0  0  0  0
 39 40  1  6  0  0  0
 41 42  1  0  0  0  0
M  END
>  <CHROM.1>
-45.16573291,-95.60204430,-54.93845698,105.88172795,23.83757120,88.09746851
63.04278670,-172.79973266,151.83618380,102.11854770,48.91469221,77.33950885
79.51467681,-49.19902962,-70.69979700,160.98620903,124.52502894,-97.55145485
70.49958454,-69.92064742,63.04978072,-121.70291974,2.12178537,2.96625654
26.47748189,-0.00081792,0.82819140,1.96490416

>  <Name>
1fyp_lig

>  <RI>
0

>  <Rbt.Current_Directory>
/home/itssahil/PROJECTS/Mol_Feturizer/New_Systems/rnas/1fyp

>  <Rbt.Executable>
rbdock ($Id: //depot/dev/client3/rdock/2013.1/src/exe/rbdock.cxx#4 $)

>  <Rbt.Library>
libRbt.so (2013.1, Build901 2013/11/27)

>  <Rbt.Parameter_File>
/export/apps/rDock/src/rDock_2013.1_src/data/scripts/dock_solv.prm

>  <Rbt.Receptor>
prm/blind_docking_60.prm

>  <SCORE>
-44.0964

>  <SCORE.INTER>
-48.2063

>  <SCORE.INTER.CONST>
1

>  <SCORE.INTER.POLAR>
-6.85122

>  <SCORE.INTER.ROT>
14

>  <SCORE.INTER.SOLV>
16.8378

>  <SCORE.INTER.VDW>
-27.8461

>  <SCORE.INTER.norm>
-1.14777

>  <SCORE.INTRA>
3.35528

>  <SCORE.INTRA.DIHEDRAL>
-4.93905

>  <SCORE.INTRA.DIHEDRAL.0>
48.7173

>  <SCORE.INTRA.POLAR>
0.227184

>  <SCORE.INTRA.POLAR.0>
-1.54691

>  <SCORE.INTRA.REPUL>
0

>  <SCORE.INTRA.REPUL.0>
0

>  <SCORE.INTRA.SOLV>
2.60653

>  <SCORE.INTRA.SOLV.lig_0>
-64.052

>  <SCORE.INTRA.VDW>
3.74911

>  <SCORE.INTRA.VDW.0>
-7.0667

>  <SCORE.INTRA.norm>
0.0798876

>  <SCORE.RESTR>
0.754613

>  <SCORE.RESTR.CAVITY>
0.754613

>  <SCORE.RESTR.norm>
0.017967

>  <SCORE.SYSTEM>
0

>  <SCORE.SYSTEM.CONST>
0

>  <SCORE.SYSTEM.DIHEDRAL>
0

>  <SCORE.SYSTEM.SOLV>
0

>  <SCORE.SYSTEM.norm>
0

>  <SCORE.heavy>
42

>  <SCORE.norm>
-1.04992

>  <RMSD>
3.969

$$$$
1fyp_lig
 OpenBabel11021811393D
libRbt.so/2013.1/901 2013/11/27
 42 45  0  0  0  0  0  0  0  0999 V2000
    5.3805    5.1447   28.1774 C   0  0  2  0  0  0  0  0  0  0  0  0
    5.2855    4.1925   27.0789 O   0  0  0  0  0  0  0  0  0  0  0  0
    3.5299    6.9951   24.3763 C   0  0  2  0  0  0  0  0  0  0  0  0
    3.0746    7.7658   23.2045 N   0  0  0  0  0  0  0  0  0  0  0  0
    1.5463    3.0970   26.1551 C   0  0  1  0  0  0  0  0  0  0  0  0
   -2.2002    0.8716   26.6177 C   0  0  1  0  0  0  0  0  0  0  0  0
    5.5132    4.4183   29.5546 C   0  0  2  0  0  0  0  0  0  0  0  0
    6.5902    3.4059   29.5254 N   0  0  0  0  0  0  0  0  0  0  0  0
    5.0632    6.8419   24.3252 C   0  0  0  0  0  0  0  0  0  0  0  0
    0.9836    1.8214   25.5227 C   0  0  2  0  0  0  0  0  0  0  0  0
    0.0718    2.1681   24.4796 O   0  0  0  0  0  0  0  0  0  0  0  0
   -2.1600   -0.4093   27.5059 C   0  0  2  0  0  0  0  0  0  0  0  0
   -0.8220   -1.0494   27.5256 N   0  0  0  0  0  0  0  0  0  0  0  0
    4.1606    3.7581   29.9678 C   0  0  1  0  0  0  0  0  0  0  0  0
    4.2513    3.2385   31.2920 O   0  0  0  0  0  0  0  0  0  0  0  0
    5.6169    6.0606   25.5480 C   0  0  2  0  0  0  0  0  0  0  0  0
    7.0739    5.9013   25.3599 N   0  0  0  0  0  0  0  0  0  0  0  0
    0.2558    1.1790   26.7067 C   0  0  2  0  0  0  0  0  0  0  0  0
   -1.0724    1.7425   26.8940 O   0  0  0  0  0  0  0  0  0  0  0  0
   -3.2662   -1.4203   27.0732 C   0  0  1  0  0  0  0  0  0  0  0  0
   -4.5313   -0.9174   27.4976 O   0  0  0  0  0  0  0  0  0  0  0  0
    2.9866    4.7677   29.9141 C   0  0  2  0  0  0  0  0  0  0  0  0
    1.7721    4.0847   30.2096 O   0  0  0  0  0  0  0  0  0  0  0  0
    4.9101    4.6730   25.7562 C   0  0  2  0  0  0  0  0  0  0  0  0
    1.1692    1.5472   27.8842 C   0  0  2  0  0  0  0  0  0  0  0  0
    1.7502    2.8228   27.5505 O   0  0  0  0  0  0  0  0  0  0  0  0
   -3.3322   -1.6723   25.5363 C   0  0  2  0  0  0  0  0  0  0  0  0
   -2.2113   -2.4734   25.1589 O   0  0  0  0  0  0  0  0  0  0  0  0
    2.9119    5.4353   28.5116 C   0  0  2  0  0  0  0  0  0  0  0  0
    4.2078    6.0264   28.1937 O   0  0  0  0  0  0  0  0  0  0  0  0
    3.3439    4.7640   25.6611 C   0  0  2  0  0  0  0  0  0  0  0  0
    2.8207    3.4168   25.5279 O   0  0  0  0  0  0  0  0  0  0  0  0
    2.2783    0.5099   28.1344 C   0  0  0  0  0  0  0  0  0  0  0  0
    3.5597    1.1059   28.0324 O   0  0  0  0  0  0  0  0  0  0  0  0
   -3.3185   -0.3232   24.7527 C   0  0  1  0  0  0  0  0  0  0  0  0
   -2.1924    0.4922   25.1995 O   0  0  0  0  0  0  0  0  0  0  0  0
    1.8672    6.5667   28.3866 C   0  0  0  0  0  0  0  0  0  0  0  0
    1.6366    6.9071   27.0300 O   0  0  0  0  0  0  0  0  0  0  0  0
    2.8561    5.6032   24.4395 C   0  0  1  0  0  0  0  0  0  0  0  0
    1.4423    5.7715   24.5333 O   0  0  0  0  0  0  0  0  0  0  0  0
   -3.2204   -0.5236   23.2186 C   0  0  0  0  0  0  0  0  0  0  0  0
   -4.4663   -1.0577   22.6396 N   0  0  0  0  0  0  0  0  0  0  0  0
  1  2  1  6  0  0  0
  1  7  1  0  0  0  0
  1 30  1  0  0  0  0
  3  4  1  6  0  0  0
  3  9  1  0  0  0  0
  3 39  1  0  0  0  0
  5 10  1  0  0  0  0
  5 26  1  0  0  0  0
  5 32  1  6  0  0  0
  6 12  1  0  0  0  0
  6 36  1  0  0  0  0
  6 19  1  6  0  0  0
  7  8  1  6  0  0  0
  7 14  1  0  0  0  0
  9 16  1  0  0  0  0
 10 11  1  6  0  0  0
 10 18  1  0  0  0  0
 12 13  1  6  0  0  0
 12 20  1  0  0  0  0
 14 15  1  1  0  0  0
 14 22  1  0  0  0  0
 16 17  1  6  0  0  0
 16 24  1  0  0  0  0
 18 19  1  1  0  0  0
 18 25  1  0  0  0  0
 20 21  1  6  0  0  0
 20 27  1  0  0  0  0
 22 23  1  6  0  0  0
 22 29  1  0  0  0  0
 24  2  1  1  0  0  0
 24 31  1  0  0  0  0
 25 26  1  0  0  0  0
 25 33  1  6  0  0  0
 27 28  1  6  0  0  0
 27 35  1  0  0  0  0
 29 30  1  0  0  0  0
 29 37  1  1  0  0  0
 31 32  1  6  0  0  0
 31 39  1  0  0  0  0
 33 34  1  0  0  0  0
 35 36  1  0  0  0  0
 35 41  1  6  0  0  0
 37 38  1  0  0  0  0
 39 40  1  1  0  0  0
 41 42  1  0  0  0  0
M  END
>  <CHROM.1>
168.74539788,38.82866150,-56.87546245,-64.80774353,-65.16087900,135.71072054
-169.22886523,-162.37541212,111.69140653,58.54936872,-56.69793132,-67.15820659
121.11084996,72.56402161,-166.29130348,145.13939473,161.65230229,-83.02466342
71.48091858,172.07738810,-56.61770271,56.11164120,1.53164578,2.91629226,26.68509584
-0.20798775,0.68589474,2.12977375

>  <Name>
1fyp_lig

>  <RI>
0

>  <Rbt.Current_Directory>
/home/itssahil/PROJECTS/Mol_Feturizer/New_Systems/rnas/1fyp

>  <Rbt.Executable>
rbdock ($Id: //depot/dev/client3/rdock/2013.1/src/exe/rbdock.cxx#4 $)

>  <Rbt.Library>
libRbt.so (2013.1, Build901 2013/11/27)

>  <Rbt.Parameter_File>
/export/apps/rDock/src/rDock_2013.1_src/data/scripts/dock_solv.prm

>  <Rbt.Receptor>
prm/blind_docking_80.prm

>  <SCORE>
-37.6256

>  <SCORE.INTER>
-27.9299

>  <SCORE.INTER.CONST>
1

>  <SCORE.INTER.POLAR>
-5.74425

>  <SCORE.INTER.ROT>
14

>  <SCORE.INTER.SOLV>
14.3856

>  <SCORE.INTER.VDW>
-17.201

>  <SCORE.INTER.norm>
-0.664997

>  <SCORE.INTRA>
-9.69568

>  <SCORE.INTRA.DIHEDRAL>
-19.5656

>  <SCORE.INTRA.DIHEDRAL.0>
48.7173

>  <SCORE.INTRA.POLAR>
-0.630964

>  <SCORE.INTRA.POLAR.0>
-1.54691

>  <SCORE.INTRA.REPUL>
0.0341618

>  <SCORE.INTRA.REPUL.0>
0

>  <SCORE.INTRA.SOLV>
2.59305

>  <SCORE.INTRA.SOLV.lig_0>
-64.052

>  <SCORE.INTRA.VDW>
0.765072

>  <SCORE.INTRA.VDW.0>
-7.0667

>  <SCORE.INTRA.norm>
-0.230849

>  <SCORE.RESTR>
0

>  <SCORE.RESTR.CAVITY>
0

>  <SCORE.RESTR.norm>
0

>  <SCORE.SYSTEM>
0

>  <SCORE.SYSTEM.CONST>
0

>  <SCORE.SYSTEM.DIHEDRAL>
0

>  <SCORE.SYSTEM.SOLV>
0

>  <SCORE.SYSTEM.norm>
0

>  <SCORE.heavy>
42

>  <SCORE.norm>
-0.895847

>  <RMSD>
3.969

$$$$
1fyp_lig
 OpenBabel11021811393D
libRbt.so/2013.1/901 2013/11/27
 42 45  0  0  0  0  0  0  0  0999 V2000
    7.4536    6.4792   28.9749 C   0  0  2  0  0  0  0  0  0  0  0  0
    6.2152    7.1934   28.6942 O   0  0  0  0  0  0  0  0  0  0  0  0
    2.5630    7.1420   26.4808 C   0  0  2  0  0  0  0  0  0  0  0  0
    1.4653    6.8852   25.5303 N   0  0  0  0  0  0  0  0  0  0  0  0
    3.1815    4.2256   29.7551 C   0  0  1  0  0  0  0  0  0  0  0  0
    0.8874    2.6402   30.1338 C   0  0  1  0  0  0  0  0  0  0  0  0
    8.0307    6.8626   30.3756 C   0  0  2  0  0  0  0  0  0  0  0  0
    7.0015    6.7440   31.4303 N   0  0  0  0  0  0  0  0  0  0  0  0
    3.8480    7.4835   25.7003 C   0  0  0  0  0  0  0  0  0  0  0  0
    3.7234    2.9393   30.3840 C   0  0  2  0  0  0  0  0  0  0  0  0
    3.5138    1.8458   29.4896 O   0  0  0  0  0  0  0  0  0  0  0  0
   -0.6551    2.7170   30.3479 C   0  0  2  0  0  0  0  0  0  0  0  0
   -1.2025    1.5031   31.0016 N   0  0  0  0  0  0  0  0  0  0  0  0
    8.6229    8.3065   30.3568 C   0  0  1  0  0  0  0  0  0  0  0  0
    9.2850    8.5825   31.5885 O   0  0  0  0  0  0  0  0  0  0  0  0
    5.0431    7.7934   26.6426 C   0  0  2  0  0  0  0  0  0  0  0  0
    6.2342    8.0259   25.7994 N   0  0  0  0  0  0  0  0  0  0  0  0
    2.8500    2.8097   31.6349 C   0  0  2  0  0  0  0  0  0  0  0  0
    1.5668    2.1928   31.3358 O   0  0  0  0  0  0  0  0  0  0  0  0
   -1.3883    3.0173   29.0043 C   0  0  1  0  0  0  0  0  0  0  0  0
   -1.1620    4.3824   28.6595 O   0  0  0  0  0  0  0  0  0  0  0  0
    9.6348    8.4993   29.1995 C   0  0  2  0  0  0  0  0  0  0  0  0
   10.0660    9.8567   29.1801 O   0  0  0  0  0  0  0  0  0  0  0  0
    5.2993    6.6571   27.6968 C   0  0  2  0  0  0  0  0  0  0  0  0
    2.6606    4.2758   32.0485 C   0  0  2  0  0  0  0  0  0  0  0  0
    2.6701    5.0365   30.8250 O   0  0  0  0  0  0  0  0  0  0  0  0
   -0.9207    2.1290   27.8118 C   0  0  2  0  0  0  0  0  0  0  0  0
   -1.4377    0.8103   27.9976 O   0  0  0  0  0  0  0  0  0  0  0  0
    8.9829    8.1124   27.8417 C   0  0  2  0  0  0  0  0  0  0  0  0
    8.4515    6.7565   27.9355 O   0  0  0  0  0  0  0  0  0  0  0  0
    3.9831    6.1731   28.4064 C   0  0  2  0  0  0  0  0  0  0  0  0
    4.2708    4.9249   29.0887 O   0  0  0  0  0  0  0  0  0  0  0  0
    3.7633    4.7825   32.9951 C   0  0  0  0  0  0  0  0  0  0  0  0
    5.0369    4.6925   32.3808 O   0  0  0  0  0  0  0  0  0  0  0  0
    0.6368    2.0902   27.7272 C   0  0  1  0  0  0  0  0  0  0  0  0
    1.1895    1.7229   29.0280 O   0  0  0  0  0  0  0  0  0  0  0  0
    9.9447    8.1278   26.6327 C   0  0  0  0  0  0  0  0  0  0  0  0
   11.0586    7.2785   26.8500 O   0  0  0  0  0  0  0  0  0  0  0  0
    2.8086    5.9279   27.4088 C   0  0  1  0  0  0  0  0  0  0  0  0
    1.6215    5.6606   28.1538 O   0  0  0  0  0  0  0  0  0  0  0  0
    1.1531    1.0929   26.6586 C   0  0  0  0  0  0  0  0  0  0  0  0
    2.6251    1.0401   26.6021 N   0  0  0  0  0  0  0  0  0  0  0  0
  1  2  1  6  0  0  0
  1  7  1  0  0  0  0
  1 30  1  0  0  0  0
  3  4  1  6  0  0  0
  3  9  1  0  0  0  0
  3 39  1  0  0  0  0
  5 10  1  0  0  0  0
  5 26  1  0  0  0  0
  5 32  1  1  0  0  0
  6 12  1  0  0  0  0
  6 36  1  0  0  0  0
  6 19  1  1  0  0  0
  7  8  1  1  0  0  0
  7 14  1  0  0  0  0
  9 16  1  0  0  0  0
 10 11  1  6  0  0  0
 10 18  1  0  0  0  0
 12 13  1  6  0  0  0
 12 20  1  0  0  0  0
 14 15  1  1  0  0  0
 14 22  1  0  0  0  0
 16 17  1  6  0  0  0
 16 24  1  0  0  0  0
 18 19  1  6  0  0  0
 18 25  1  0  0  0  0
 20 21  1  6  0  0  0
 20 27  1  0  0  0  0
 22 23  1  6  0  0  0
 22 29  1  0  0  0  0
 24  2  1  1  0  0  0
 24 31  1  0  0  0  0
 25 26  1  0  0  0  0
 25 33  1  1  0  0  0
 27 28  1  1  0  0  0
 27 35  1  0  0  0  0
 29 30  1  0  0  0  0
 29 37  1  6  0  0  0
 31 32  1  6  0  0  0
 31 39  1  0  0  0  0
 33 34  1  0  0  0  0
 35 36  1  0  0  0  0
 35 41  1  6  0  0  0
 37 38  1  0  0  0  0
 39 40  1  1  0  0  0
 41 42  1  0  0  0  0
M  END
>  <CHROM.1>
-158.83617557,-124.98668544,-70.63683961,62.24973021,72.18410102,-41.65350905
-177.05235097,92.34040236,-43.21541825,-142.46294053,58.56170342,-67.83480513
60.13581226,-63.13923463,56.49782747,-176.10711706,179.38330203,-175.63974001
-178.82600513,177.15286358,-60.28727460,161.85771830,4.08858385,5.12424236
28.95504681,-0.24099839,0.54390924,1.92887965

>  <Name>
1fyp_lig

>  <RI>
0

>  <Rbt.Current_Directory>
/home/itssahil/PROJECTS/Mol_Feturizer/New_Systems/rnas/1fyp

>  <Rbt.Executable>
rbdock ($Id: //depot/dev/client3/rdock/2013.1/src/exe/rbdock.cxx#4 $)

>  <Rbt.Library>
libRbt.so (2013.1, Build901 2013/11/27)

>  <Rbt.Parameter_File>
/export/apps/rDock/src/rDock_2013.1_src/data/scripts/dock_solv.prm

>  <Rbt.Receptor>
prm/pocket_docking_5.prm

>  <SCORE>
-50.0924

>  <SCORE.INTER>
-38.3322

>  <SCORE.INTER.CONST>
1

>  <SCORE.INTER.POLAR>
-4.60642

>  <SCORE.INTER.ROT>
14

>  <SCORE.INTER.SOLV>
12.4661

>  <SCORE.INTER.VDW>
-27.2888

>  <SCORE.INTER.norm>
-0.912671

>  <SCORE.INTRA>
-11.7602

>  <SCORE.INTRA.DIHEDRAL>
-29.1805

>  <SCORE.INTRA.DIHEDRAL.0>
48.7173

>  <SCORE.INTRA.POLAR>
-1.04841

>  <SCORE.INTRA.POLAR.0>
-1.54691

>  <SCORE.INTRA.REPUL>
0.0118244

>  <SCORE.INTRA.REPUL.0>
0

>  <SCORE.INTRA.SOLV>
2.27972

>  <SCORE.INTRA.SOLV.lig_0>
-64.052

>  <SCORE.INTRA.VDW>
5.19567

>  <SCORE.INTRA.VDW.0>
-7.0667

>  <SCORE.INTRA.norm>
-0.280005

>  <SCORE.RESTR>
0

>  <SCORE.RESTR.CAVITY>
0

>  <SCORE.RESTR.norm>
0

>  <SCORE.SYSTEM>
0

>  <SCORE.SYSTEM.CONST>
0

>  <SCORE.SYSTEM.DIHEDRAL>
0

>  <SCORE.SYSTEM.SOLV>
0

>  <SCORE.SYSTEM.norm>
0

>  <SCORE.heavy>
42

>  <SCORE.norm>
-1.19268

>  <RMSD>
4.003

$$$$
1fyp_lig
 OpenBabel11021811393D
libRbt.so/2013.1/901 2013/11/27
 42 45  0  0  0  0  0  0  0  0999 V2000
    6.4260    4.7721   29.2111 C   0  0  2  0  0  0  0  0  0  0  0  0
    6.3582    3.6629   28.2690 O   0  0  0  0  0  0  0  0  0  0  0  0
    4.5447    5.9424   25.1455 C   0  0  2  0  0  0  0  0  0  0  0  0
    4.0940    6.5144   23.8633 N   0  0  0  0  0  0  0  0  0  0  0  0
    2.6056    2.2087   26.7818 C   0  0  1  0  0  0  0  0  0  0  0  0
   -1.3219    0.3809   27.5675 C   0  0  1  0  0  0  0  0  0  0  0  0
    6.4560    4.2665   30.6894 C   0  0  2  0  0  0  0  0  0  0  0  0
    7.4961    3.2336   30.8819 N   0  0  0  0  0  0  0  0  0  0  0  0
    6.0856    5.8993   25.1745 C   0  0  0  0  0  0  0  0  0  0  0  0
    2.4133    0.6996   26.9534 C   0  0  2  0  0  0  0  0  0  0  0  0
    2.2274    0.0937   25.6736 O   0  0  0  0  0  0  0  0  0  0  0  0
   -1.3878   -1.1530   27.8396 C   0  0  2  0  0  0  0  0  0  0  0  0
   -0.9516   -1.9594   26.6735 N   0  0  0  0  0  0  0  0  0  0  0  0
    5.0597    3.7152   31.1170 C   0  0  1  0  0  0  0  0  0  0  0  0
    5.0582    3.4065   32.5086 O   0  0  0  0  0  0  0  0  0  0  0  0
    6.6327    5.3309   26.5124 C   0  0  2  0  0  0  0  0  0  0  0  0
    8.1046    5.2580   26.4036 N   0  0  0  0  0  0  0  0  0  0  0  0
    1.1312    0.6397   27.7884 C   0  0  2  0  0  0  0  0  0  0  0  0
   -0.0587    0.7567   26.9596 O   0  0  0  0  0  0  0  0  0  0  0  0
   -2.8121   -1.5718   28.3180 C   0  0  1  0  0  0  0  0  0  0  0  0
   -2.9916   -1.1190   29.6583 O   0  0  0  0  0  0  0  0  0  0  0  0
    3.9273    4.7349   30.8373 C   0  0  2  0  0  0  0  0  0  0  0  0
    2.6747    4.1390   31.1608 O   0  0  0  0  0  0  0  0  0  0  0  0
    6.0144    3.9341   26.8799 C   0  0  2  0  0  0  0  0  0  0  0  0
    1.2802    1.8692   28.6954 C   0  0  2  0  0  0  0  0  0  0  0  0
    2.0099    2.8435   27.9246 O   0  0  0  0  0  0  0  0  0  0  0  0
   -3.9706   -0.9950   27.4490 C   0  0  2  0  0  0  0  0  0  0  0  0
   -3.9960   -1.6945   26.2038 O   0  0  0  0  0  0  0  0  0  0  0  0
    3.9545    5.1770   29.3466 C   0  0  2  0  0  0  0  0  0  0  0  0
    5.2864    5.6765   29.0202 O   0  0  0  0  0  0  0  0  0  0  0  0
    4.4521    3.8939   26.7134 C   0  0  2  0  0  0  0  0  0  0  0  0
    4.0305    2.5055   26.7444 O   0  0  0  0  0  0  0  0  0  0  0  0
    2.0270    1.5646   30.0062 C   0  0  0  0  0  0  0  0  0  0  0  0
    3.1296    0.7061   29.7716 O   0  0  0  0  0  0  0  0  0  0  0  0
   -3.7718    0.5332   27.2047 C   0  0  1  0  0  0  0  0  0  0  0  0
   -2.4281    0.7764   26.6870 O   0  0  0  0  0  0  0  0  0  0  0  0
    2.9595    6.3025   28.9856 C   0  0  0  0  0  0  0  0  0  0  0  0
    1.6270    5.9305   29.2950 O   0  0  0  0  0  0  0  0  0  0  0  0
    3.9666    4.5246   25.3713 C   0  0  1  0  0  0  0  0  0  0  0  0
    2.5418    4.5973   25.3871 O   0  0  0  0  0  0  0  0  0  0  0  0
   -4.8094    1.1203   26.2138 C   0  0  0  0  0  0  0  0  0  0  0  0
   -4.3813    0.9927   24.8090 N   0  0  0  0  0  0  0  0  0  0  0  0
  1  2  1  6  0  0  0
  1  7  1  0  0  0  0
  1 30  1  0  0  0  0
  3  4  1  6  0  0  0
  3  9  1  0  0  0  0
  3 39  1  0  0  0  0
  5 10  1  0  0  0  0
  5 26  1  0  0  0  0
  5 32  1  1  0  0  0
  6 12  1  0  0  0  0
  6 36  1  0  0  0  0
  6 19  1  6  0  0  0
  7  8  1  6  0  0  0
  7 14  1  0  0  0  0
  9 16  1  0  0  0  0
 10 11  1  6  0  0  0
 10 18  1  0  0  0  0
 12 13  1  6  0  0  0
 12 20  1  0  0  0  0
 14 15  1  1  0  0  0
 14 22  1  0  0  0  0
 16 17  1  6  0  0  0
 16 24  1  0  0  0  0
 18 19  1  6  0  0  0
 18 25  1  0  0  0  0
 20 21  1  1  0  0  0
 20 27  1  0  0  0  0
 22 23  1  6  0  0  0
 22 29  1  0  0  0  0
 24  2  1  1  0  0  0
 24 31  1  0  0  0  0
 25 26  1  0  0  0  0
 25 33  1  1  0  0  0
 27 28  1  6  0  0  0
 27 35  1  0  0  0  0
 29 30  1  0  0  0  0
 29 37  1  1  0  0  0
 31 32  1  6  0  0  0
 31 39  1  0  0  0  0
 33 34  1  0  0  0  0
 35 36  1  0  0  0  0
 35 41  1  6  0  0  0
 37 38  1  0  0  0  0
 39 40  1  1  0  0  0
 41 42  1  0  0  0  0
M  END
>  <CHROM.1>
165.98215805,34.54463664,-71.89983997,-64.72591416,78.15478080,-67.44621379
-77.58455900,-55.86039705,164.86943402,-68.16458192,-62.42116260,61.30133797
41.15429479,-158.57797758,-57.62885740,172.18606810,-174.29309494,-82.86738178
-86.91239212,-178.91287141,54.02473319,-86.14845599,2.16354372,2.60571359
27.82338518,-0.06363969,0.55989636,1.91721465

>  <Name>
1fyp_lig

>  <RI>
0

>  <Rbt.Current_Directory>
/home/itssahil/PROJECTS/Mol_Feturizer/New_Systems/rnas/1fyp

>  <Rbt.Executable>
rbdock ($Id: //depot/dev/client3/rdock/2013.1/src/exe/rbdock.cxx#4 $)

>  <Rbt.Library>
libRbt.so (2013.1, Build901 2013/11/27)

>  <Rbt.Parameter_File>
/export/apps/rDock/src/rDock_2013.1_src/data/scripts/dock_solv.prm

>  <Rbt.Receptor>
prm/pocket_docking_6.prm

>  <SCORE>
-47.0487

>  <SCORE.INTER>
-38.2703

>  <SCORE.INTER.CONST>
1

>  <SCORE.INTER.POLAR>
-4.18477

>  <SCORE.INTER.ROT>
14

>  <SCORE.INTER.SOLV>
22.1251

>  <SCORE.INTER.VDW>
-31.8727

>  <SCORE.INTER.norm>
-0.911198

>  <SCORE.INTRA>
-8.87112

>  <SCORE.INTRA.DIHEDRAL>
-30.3948

>  <SCORE.INTRA.DIHEDRAL.0>
48.7173

>  <SCORE.INTRA.POLAR>
0.67999

>  <SCORE.INTRA.POLAR.0>
-1.54691

>  <SCORE.INTRA.REPUL>
0.0539482

>  <SCORE.INTRA.REPUL.0>
0

>  <SCORE.INTRA.SOLV>
0.91251

>  <SCORE.INTRA.SOLV.lig_0>
-64.052

>  <SCORE.INTRA.VDW>
3.28833

>  <SCORE.INTRA.VDW.0>
-7.0667

>  <SCORE.INTRA.norm>
-0.211217

>  <SCORE.RESTR>
0.092703

>  <SCORE.RESTR.CAVITY>
0.092703

>  <SCORE.RESTR.norm>
0.00220721

>  <SCORE.SYSTEM>
0

>  <SCORE.SYSTEM.CONST>
0

>  <SCORE.SYSTEM.DIHEDRAL>
0

>  <SCORE.SYSTEM.SOLV>
0

>  <SCORE.SYSTEM.norm>
0

>  <SCORE.heavy>
42

>  <SCORE.norm>
-1.12021

>  <RMSD>
4.014

$$$$
1fyp_lig
 OpenBabel11021811393D
libRbt.so/2013.1/901 2013/11/27
 42 45  0  0  0  0  0  0  0  0999 V2000
    4.9838    5.3467   29.8838 C   0  0  2  0  0  0  0  0  0  0  0  0
    5.5733    4.5700   28.8014 O   0  0  0  0  0  0  0  0  0  0  0  0
    4.6350    7.4754   25.8149 C   0  0  2  0  0  0  0  0  0  0  0  0
    4.5771    8.3356   24.6186 N   0  0  0  0  0  0  0  0  0  0  0  0
    2.7713    3.2151   26.1306 C   0  0  1  0  0  0  0  0  0  0  0  0
   -0.5063    0.4967   24.8179 C   0  0  1  0  0  0  0  0  0  0  0  0
    4.6485    4.4472   31.1170 C   0  0  2  0  0  0  0  0  0  0  0  0
    5.8121    3.6262   31.5141 N   0  0  0  0  0  0  0  0  0  0  0  0
    6.0566    7.5195   26.4100 C   0  0  0  0  0  0  0  0  0  0  0  0
    2.8061    1.9547   25.2624 C   0  0  2  0  0  0  0  0  0  0  0  0
    2.5531    2.3056   23.9014 O   0  0  0  0  0  0  0  0  0  0  0  0
   -1.5979    1.0629   23.8593 C   0  0  2  0  0  0  0  0  0  0  0  0
   -2.2620    2.2736   24.4010 N   0  0  0  0  0  0  0  0  0  0  0  0
    3.4174    3.5345   30.8213 C   0  0  1  0  0  0  0  0  0  0  0  0
    3.0263    2.8388   32.0022 O   0  0  0  0  0  0  0  0  0  0  0  0
    6.1836    6.6540   27.6934 C   0  0  2  0  0  0  0  0  0  0  0  0
    7.5939    6.7013   28.1321 N   0  0  0  0  0  0  0  0  0  0  0  0
    1.6522    1.1374   25.8496 C   0  0  2  0  0  0  0  0  0  0  0  0
    0.3674    1.5485   25.3047 O   0  0  0  0  0  0  0  0  0  0  0  0
   -2.6393   -0.0384   23.4909 C   0  0  1  0  0  0  0  0  0  0  0  0
   -2.0285   -0.9554   22.5856 O   0  0  0  0  0  0  0  0  0  0  0  0
    2.2055    4.3507   30.3061 C   0  0  2  0  0  0  0  0  0  0  0  0
    1.1514    3.4546   29.9676 O   0  0  0  0  0  0  0  0  0  0  0  0
    5.6976    5.1750   27.4823 C   0  0  2  0  0  0  0  0  0  0  0  0
    1.7405    1.4826   27.3427 C   0  0  2  0  0  0  0  0  0  0  0  0
    2.2352    2.8342   27.4079 O   0  0  0  0  0  0  0  0  0  0  0  0
   -3.1737   -0.8435   24.7141 C   0  0  2  0  0  0  0  0  0  0  0  0
   -4.0642   -0.0071   25.4544 O   0  0  0  0  0  0  0  0  0  0  0  0
    2.6146    5.2054   29.0731 C   0  0  2  0  0  0  0  0  0  0  0  0
    3.7686    6.0275   29.4226 O   0  0  0  0  0  0  0  0  0  0  0  0
    4.3168    5.0855   26.7369 C   0  0  2  0  0  0  0  0  0  0  0  0
    4.1285    3.7147   26.2987 O   0  0  0  0  0  0  0  0  0  0  0  0
    2.6718    0.5400   28.1256 C   0  0  0  0  0  0  0  0  0  0  0  0
    2.6905    0.8768   29.5018 O   0  0  0  0  0  0  0  0  0  0  0  0
   -1.9970   -1.3159   25.6233 C   0  0  1  0  0  0  0  0  0  0  0  0
   -1.1457   -0.1767   25.9550 O   0  0  0  0  0  0  0  0  0  0  0  0
    1.5222    6.1711   28.5620 C   0  0  0  0  0  0  0  0  0  0  0  0
    0.2912    5.4970   28.3626 O   0  0  0  0  0  0  0  0  0  0  0  0
    4.2386    6.0157   25.4867 C   0  0  1  0  0  0  0  0  0  0  0  0
    2.9043    5.9954   24.9819 O   0  0  0  0  0  0  0  0  0  0  0  0
   -2.4852   -1.9813   26.9356 C   0  0  0  0  0  0  0  0  0  0  0  0
   -1.3830   -2.5900   27.7022 N   0  0  0  0  0  0  0  0  0  0  0  0
  1  2  1  6  0  0  0
  1  7  1  0  0  0  0
  1 30  1  0  0  0  0
  3  4  1  6  0  0  0
  3  9  1  0  0  0  0
  3 39  1  0  0  0  0
  5 10  1  0  0  0  0
  5 26  1  0  0  0  0
  5 32  1  1  0  0  0
  6 12  1  0  0  0  0
  6 36  1  0  0  0  0
  6 19  1  1  0  0  0
  7  8  1  6  0  0  0
  7 14  1  0  0  0  0
  9 16  1  0  0  0  0
 10 11  1  6  0  0  0
 10 18  1  0  0  0  0
 12 13  1  1  0  0  0
 12 20  1  0  0  0  0
 14 15  1  1  0  0  0
 14 22  1  0  0  0  0
 16 17  1  6  0  0  0
 16 24  1  0  0  0  0
 18 19  1  6  0  0  0
 18 25  1  0  0  0  0
 20 21  1  6  0  0  0
 20 27  1  0  0  0  0
 22 23  1  6  0  0  0
 22 29  1  0  0  0  0
 24  2  1  1  0  0  0
 24 31  1  0  0  0  0
 25 26  1  0  0  0  0
 25 33  1  1  0  0  0
 27 28  1  1  0  0  0
 27 35  1  0  0  0  0
 29 30  1  0  0  0  0
 29 37  1  1  0  0  0
 31 32  1  6  0  0  0
 31 39  1  0  0  0  0
 33 34  1  0  0  0  0
 35 36  1  0  0  0  0
 35 41  1  1  0  0  0
 37 38  1  0  0  0  0
 39 40  1  1  0  0  0
 41 42  1  0  0  0  0
M  END
>  <CHROM.1>
167.52490505,42.01551717,-167.47853615,-90.87918134,-62.65785965,-147.81649647
-176.10135150,-51.75006994,131.06298687,-161.22468946,-55.54390382,-76.30895558
-178.39199812,68.04853912,-51.11820329,153.15764748,162.10708898,60.88476269
172.12295015,72.57947776,164.99934705,-156.89728460,2.00145172,3.06899446
27.10047571,0.04910299,0.78947308,1.98260151

>  <Name>
1fyp_lig

>  <RI>
0

>  <Rbt.Current_Directory>
/home/itssahil/PROJECTS/Mol_Feturizer/New_Systems/rnas/1fyp

>  <Rbt.Executable>
rbdock ($Id: //depot/dev/client3/rdock/2013.1/src/exe/rbdock.cxx#4 $)

>  <Rbt.Library>
libRbt.so (2013.1, Build901 2013/11/27)

>  <Rbt.Parameter_File>
/export/apps/rDock/src/rDock_2013.1_src/data/scripts/dock_solv.prm

>  <Rbt.Receptor>
prm/blind_docking_60.prm

>  <SCORE>
-49.9394

>  <SCORE.INTER>
-41.2635

>  <SCORE.INTER.CONST>
1

>  <SCORE.INTER.POLAR>
-5.53697

>  <SCORE.INTER.ROT>
14

>  <SCORE.INTER.SOLV>
16.4031

>  <SCORE.INTER.VDW>
-27.4535

>  <SCORE.INTER.norm>
-0.982463

>  <SCORE.INTRA>
-9.20237

>  <SCORE.INTRA.DIHEDRAL>
-25.6828

>  <SCORE.INTRA.DIHEDRAL.0>
48.7173

>  <SCORE.INTRA.POLAR>
0.41481

>  <SCORE.INTRA.POLAR.0>
-1.54691

>  <SCORE.INTRA.REPUL>
0

>  <SCORE.INTRA.REPUL.0>
0

>  <SCORE.INTRA.SOLV>
0.812766

>  <SCORE.INTRA.SOLV.lig_0>
-64.052

>  <SCORE.INTRA.VDW>
1.8223

>  <SCORE.INTRA.VDW.0>
-7.0667

>  <SCORE.INTRA.norm>
-0.219104

>  <SCORE.RESTR>
0.526485

>  <SCORE.RESTR.CAVITY>
0.526485

>  <SCORE.RESTR.norm>
0.0125353

>  <SCORE.SYSTEM>
0

>  <SCORE.SYSTEM.CONST>
0

>  <SCORE.SYSTEM.DIHEDRAL>
0

>  <SCORE.SYSTEM.SOLV>
0

>  <SCORE.SYSTEM.norm>
0

>  <SCORE.heavy>
42

>  <SCORE.norm>
-1.18903

>  <RMSD>
4.030

$$$$
1fyp_lig
 OpenBabel11021811393D
libRbt.so/2013.1/901 2013/11/27
 42 45  0  0  0  0  0  0  0  0999 V2000
    9.8756    8.8286   27.9264 C   0  0  2  0  0  0  0  0  0  0  0  0
    8.6642    8.0984   27.5780 O   0  0  0  0  0  0  0  0  0  0  0  0
    6.4866    8.6980   23.9531 C   0  0  2  0  0  0  0  0  0  0  0  0
    5.9857    8.7121   22.5663 N   0  0  0  0  0  0  0  0  0  0  0  0
    5.7028    5.1597   26.6785 C   0  0  1  0  0  0  0  0  0  0  0  0
    2.5979    2.2369   27.4373 C   0  0  1  0  0  0  0  0  0  0  0  0
   11.1263    7.8918   27.9345 C   0  0  2  0  0  0  0  0  0  0  0  0
   11.2194    7.1107   26.6827 N   0  0  0  0  0  0  0  0  0  0  0  0
    7.9533    9.1727   23.9735 C   0  0  0  0  0  0  0  0  0  0  0  0
    5.8155    3.7606   26.0673 C   0  0  2  0  0  0  0  0  0  0  0  0
    5.2849    3.7749   24.7415 O   0  0  0  0  0  0  0  0  0  0  0  0
    1.1266    2.4641   26.9740 C   0  0  2  0  0  0  0  0  0  0  0  0
    0.7907    3.9009   26.8220 N   0  0  0  0  0  0  0  0  0  0  0  0
   11.0973    6.9361   29.1682 C   0  0  1  0  0  0  0  0  0  0  0  0
   12.3161    6.2015   29.2498 O   0  0  0  0  0  0  0  0  0  0  0  0
    8.5394    9.2090   25.4114 C   0  0  2  0  0  0  0  0  0  0  0  0
    9.9619    9.5961   25.3094 N   0  0  0  0  0  0  0  0  0  0  0  0
    4.9354    2.9349   27.0095 C   0  0  2  0  0  0  0  0  0  0  0  0
    3.5267    3.0378   26.6610 O   0  0  0  0  0  0  0  0  0  0  0  0
    0.1256    1.7458   27.9307 C   0  0  1  0  0  0  0  0  0  0  0  0
    0.1997    0.3416   27.6932 O   0  0  0  0  0  0  0  0  0  0  0  0
   10.9005    7.7127   30.4942 C   0  0  2  0  0  0  0  0  0  0  0  0
   10.7893    6.7817   31.5664 O   0  0  0  0  0  0  0  0  0  0  0  0
    8.3687    7.8462   26.1742 C   0  0  2  0  0  0  0  0  0  0  0  0
    5.2055    3.5991   28.3668 C   0  0  2  0  0  0  0  0  0  0  0  0
    5.4590    4.9889   28.0839 O   0  0  0  0  0  0  0  0  0  0  0  0
    0.3985    1.9995   29.4443 C   0  0  2  0  0  0  0  0  0  0  0  0
    0.0058    3.3365   29.7587 O   0  0  0  0  0  0  0  0  0  0  0  0
    9.6315    8.6079   30.4128 C   0  0  2  0  0  0  0  0  0  0  0  0
    9.7281    9.4689   29.2384 O   0  0  0  0  0  0  0  0  0  0  0  0
    6.9197    7.2512   26.0465 C   0  0  2  0  0  0  0  0  0  0  0  0
    6.9600    5.8673   26.4823 O   0  0  0  0  0  0  0  0  0  0  0  0
    6.4036    2.9837   29.1116 C   0  0  0  0  0  0  0  0  0  0  0  0
    6.5847    3.6010   30.3740 O   0  0  0  0  0  0  0  0  0  0  0  0
    1.9079    1.7886   29.7781 C   0  0  1  0  0  0  0  0  0  0  0  0
    2.7277    2.5746   28.8601 O   0  0  0  0  0  0  0  0  0  0  0  0
    9.4152    9.5387   31.6269 C   0  0  0  0  0  0  0  0  0  0  0  0
    8.2756   10.3624   31.4477 O   0  0  0  0  0  0  0  0  0  0  0  0
    6.3722    7.2902   24.5859 C   0  0  1  0  0  0  0  0  0  0  0  0
    5.0020    6.8926   24.5983 O   0  0  0  0  0  0  0  0  0  0  0  0
    2.2592    2.1845   31.2351 C   0  0  0  0  0  0  0  0  0  0  0  0
    2.4226    3.6403   31.3993 N   0  0  0  0  0  0  0  0  0  0  0  0
  1  2  1  1  0  0  0
  1  7  1  0  0  0  0
  1 30  1  0  0  0  0
  3  4  1  6  0  0  0
  3  9  1  0  0  0  0
  3 39  1  0  0  0  0
  5 10  1  0  0  0  0
  5 26  1  0  0  0  0
  5 32  1  1  0  0  0
  6 12  1  0  0  0  0
  6 36  1  0  0  0  0
  6 19  1  6  0  0  0
  7  8  1  6  0  0  0
  7 14  1  0  0  0  0
  9 16  1  0  0  0  0
 10 11  1  6  0  0  0
 10 18  1  0  0  0  0
 12 13  1  1  0  0  0
 12 20  1  0  0  0  0
 14 15  1  1  0  0  0
 14 22  1  0  0  0  0
 16 17  1  6  0  0  0
 16 24  1  0  0  0  0
 18 19  1  6  0  0  0
 18 25  1  0  0  0  0
 20 21  1  1  0  0  0
 20 27  1  0  0  0  0
 22 23  1  1  0  0  0
 22 29  1  0  0  0  0
 24  2  1  1  0  0  0
 24 31  1  0  0  0  0
 25 26  1  0  0  0  0
 25 33  1  6  0  0  0
 27 28  1  6  0  0  0
 27 35  1  0  0  0  0
 29 30  1  0  0  0  0
 29 37  1  1  0  0  0
 31 32  1  6  0  0  0
 31 39  1  0  0  0  0
 33 34  1  0  0  0  0
 35 36  1  0  0  0  0
 35 41  1  1  0  0  0
 37 38  1  0  0  0  0
 39 40  1  1  0  0  0
 41 42  1  0  0  0  0
M  END
>  <CHROM.1>
-81.91162436,-48.54064401,35.55006521,106.70567839,63.28911776,-10.27809099
66.11981413,143.06358043,176.60906606,178.98782534,161.66550740,-178.69157234
-178.12742427,158.71727364,177.30317067,169.53112628,136.02514998,176.42243178
-79.87604988,70.75203948,-55.90804257,77.72599692,6.16639435,5.66936372,27.81015093
-0.22791850,0.59815832,1.90293867

>  <Name>
1fyp_lig

>  <RI>
0

>  <Rbt.Current_Directory>
/home/itssahil/PROJECTS/Mol_Feturizer/New_Systems/rnas/1fyp

>  <Rbt.Executable>
rbdock ($Id: //depot/dev/client3/rdock/2013.1/src/exe/rbdock.cxx#4 $)

>  <Rbt.Library>
libRbt.so (2013.1, Build901 2013/11/27)

>  <Rbt.Parameter_File>
/export/apps/rDock/src/rDock_2013.1_src/data/scripts/dock_solv.prm

>  <Rbt.Receptor>
prm/pocket_docking_7.prm

>  <SCORE>
-44.6814

>  <SCORE.INTER>
-39.3671

>  <SCORE.INTER.CONST>
1

>  <SCORE.INTER.POLAR>
-4.9069

>  <SCORE.INTER.ROT>
14

>  <SCORE.INTER.SOLV>
15.2342

>  <SCORE.INTER.VDW>
-27.8998

>  <SCORE.INTER.norm>
-0.937311

>  <SCORE.INTRA>
-5.3143

>  <SCORE.INTRA.DIHEDRAL>
-25.5654

>  <SCORE.INTRA.DIHEDRAL.0>
48.7173

>  <SCORE.INTRA.POLAR>
0.513489

>  <SCORE.INTRA.POLAR.0>
-1.54691

>  <SCORE.INTRA.REPUL>
0.00329913

>  <SCORE.INTRA.REPUL.0>
0

>  <SCORE.INTRA.SOLV>
-0.772194

>  <SCORE.INTRA.SOLV.lig_0>
-64.052

>  <SCORE.INTRA.VDW>
6.09213

>  <SCORE.INTRA.VDW.0>
-7.0667

>  <SCORE.INTRA.norm>
-0.126531

>  <SCORE.RESTR>
0

>  <SCORE.RESTR.CAVITY>
0

>  <SCORE.RESTR.norm>
0

>  <SCORE.SYSTEM>
0

>  <SCORE.SYSTEM.CONST>
0

>  <SCORE.SYSTEM.DIHEDRAL>
0

>  <SCORE.SYSTEM.SOLV>
0

>  <SCORE.SYSTEM.norm>
0

>  <SCORE.heavy>
42

>  <SCORE.norm>
-1.06384

>  <RMSD>
4.055

$$$$
1fyp_lig
 OpenBabel11021811393D
libRbt.so/2013.1/901 2013/11/27
 42 45  0  0  0  0  0  0  0  0999 V2000
    2.7519    4.8939   28.3619 C   0  0  2  0  0  0  0  0  0  0  0  0
    4.0190    5.5293   28.0257 O   0  0  0  0  0  0  0  0  0  0  0  0
    3.9146    7.1094   24.0592 C   0  0  2  0  0  0  0  0  0  0  0  0
    4.1543    7.4537   22.6456 N   0  0  0  0  0  0  0  0  0  0  0  0
    1.6799    3.3114   25.3200 C   0  0  1  0  0  0  0  0  0  0  0  0
   -1.3577    0.2960   24.0954 C   0  0  1  0  0  0  0  0  0  0  0  0
    2.2010    5.4052   29.7320 C   0  0  2  0  0  0  0  0  0  0  0  0
    2.1792    6.8825   29.7836 N   0  0  0  0  0  0  0  0  0  0  0  0
    5.2055    7.3412   24.8696 C   0  0  0  0  0  0  0  0  0  0  0  0
    1.7774    1.7921   25.1598 C   0  0  2  0  0  0  0  0  0  0  0  0
    2.0775    1.4739   23.8003 O   0  0  0  0  0  0  0  0  0  0  0  0
   -2.7416    0.7003   23.5017 C   0  0  2  0  0  0  0  0  0  0  0  0
   -3.4122    1.7641   24.2884 N   0  0  0  0  0  0  0  0  0  0  0  0
    3.0410    4.8343   30.9171 C   0  0  1  0  0  0  0  0  0  0  0  0
    2.4342    5.1779   32.1603 O   0  0  0  0  0  0  0  0  0  0  0  0
    5.0175    7.0233   26.3783 C   0  0  2  0  0  0  0  0  0  0  0  0
    6.3255    7.1991   27.0431 N   0  0  0  0  0  0  0  0  0  0  0  0
    0.3619    1.3455   25.5359 C   0  0  2  0  0  0  0  0  0  0  0  0
   -0.5573    1.4639   24.4145 O   0  0  0  0  0  0  0  0  0  0  0  0
   -3.6617   -0.5485   23.3367 C   0  0  1  0  0  0  0  0  0  0  0  0
   -3.1853   -1.3205   22.2364 O   0  0  0  0  0  0  0  0  0  0  0  0
    3.1701    3.2922   30.8416 C   0  0  2  0  0  0  0  0  0  0  0  0
    4.0213    2.8448   31.8924 O   0  0  0  0  0  0  0  0  0  0  0  0
    4.4339    5.5866   26.6307 C   0  0  2  0  0  0  0  0  0  0  0  0
   -0.0064    2.3427   26.6434 C   0  0  2  0  0  0  0  0  0  0  0  0
    0.6767    3.5682   26.3157 O   0  0  0  0  0  0  0  0  0  0  0  0
   -3.7147   -1.4703   24.5926 C   0  0  2  0  0  0  0  0  0  0  0  0
   -4.4890   -0.8196   25.6013 O   0  0  0  0  0  0  0  0  0  0  0  0
    3.7372    2.8647   29.4582 C   0  0  2  0  0  0  0  0  0  0  0  0
    2.9056    3.4352   28.4034 O   0  0  0  0  0  0  0  0  0  0  0  0
    3.2051    5.2549   25.7087 C   0  0  2  0  0  0  0  0  0  0  0  0
    2.9639    3.8253   25.7751 O   0  0  0  0  0  0  0  0  0  0  0  0
    0.4073    1.8652   28.0467 C   0  0  0  0  0  0  0  0  0  0  0  0
    1.0871    0.6239   27.9779 O   0  0  0  0  0  0  0  0  0  0  0  0
   -2.2777   -1.7663   25.1236 C   0  0  1  0  0  0  0  0  0  0  0  0
   -1.5540   -0.5111   25.3059 O   0  0  0  0  0  0  0  0  0  0  0  0
    3.7743    1.3392   29.2156 C   0  0  0  0  0  0  0  0  0  0  0  0
    2.8149    0.6674   30.0142 O   0  0  0  0  0  0  0  0  0  0  0  0
    3.4414    5.6442   24.2163 C   0  0  1  0  0  0  0  0  0  0  0  0
    2.2222    5.4665   23.4968 O   0  0  0  0  0  0  0  0  0  0  0  0
   -2.2841   -2.5456   26.4637 C   0  0  0  0  0  0  0  0  0  0  0  0
   -2.8318   -1.7484   27.5761 N   0  0  0  0  0  0  0  0  0  0  0  0
  1  2  1  1  0  0  0
  1  7  1  0  0  0  0
  1 30  1  0  0  0  0
  3  4  1  6  0  0  0
  3  9  1  0  0  0  0
  3 39  1  0  0  0  0
  5 10  1  0  0  0  0
  5 26  1  0  0  0  0
  5 32  1  1  0  0  0
  6 12  1  0  0  0  0
  6 36  1  0  0  0  0
  6 19  1  1  0  0  0
  7  8  1  6  0  0  0
  7 14  1  0  0  0  0
  9 16  1  0  0  0  0
 10 11  1  6  0  0  0
 10 18  1  0  0  0  0
 12 13  1  1  0  0  0
 12 20  1  0  0  0  0
 14 15  1  1  0  0  0
 14 22  1  0  0  0  0
 16 17  1  1  0  0  0
 16 24  1  0  0  0  0
 18 19  1  6  0  0  0
 18 25  1  0  0  0  0
 20 21  1  6  0  0  0
 20 27  1  0  0  0  0
 22 23  1  1  0  0  0
 22 29  1  0  0  0  0
 24  2  1  1  0  0  0
 24 31  1  0  0  0  0
 25 26  1  0  0  0  0
 25 33  1  1  0  0  0
 27 28  1  1  0  0  0
 27 35  1  0  0  0  0
 29 30  1  0  0  0  0
 29 37  1  1  0  0  0
 31 32  1  6  0  0  0
 31 39  1  0  0  0  0
 33 34  1  0  0  0  0
 35 36  1  0  0  0  0
 35 41  1  1  0  0  0
 37 38  1  0  0  0  0
 39 40  1  6  0  0  0
 41 42  1  0  0  0  0
M  END
>  <CHROM.1>
-157.11668134,137.47249980,-47.39257166,-31.34193504,-69.76765203,-66.64333095
-160.25128289,-141.69810888,129.12774223,148.82070488,177.61494686,68.60824749
2.31608395,47.12958252,24.38439127,163.17170775,166.25387080,-66.27441004
-66.83940129,82.93501753,69.11677785,167.34058784,1.26625063,2.80700784,26.56837231
0.08417934,0.80792504,1.89931874

>  <Name>
1fyp_lig

>  <RI>
0

>  <Rbt.Current_Directory>
/home/itssahil/PROJECTS/Mol_Feturizer/New_Systems/rnas/1fyp

>  <Rbt.Executable>
rbdock ($Id: //depot/dev/client3/rdock/2013.1/src/exe/rbdock.cxx#4 $)

>  <Rbt.Library>
libRbt.so (2013.1, Build901 2013/11/27)

>  <Rbt.Parameter_File>
/export/apps/rDock/src/rDock_2013.1_src/data/scripts/dock_solv.prm

>  <Rbt.Receptor>
prm/blind_docking_40.prm

>  <SCORE>
-20.5563

>  <SCORE.INTER>
-20.4617

>  <SCORE.INTER.CONST>
1

>  <SCORE.INTER.POLAR>
-3.58802

>  <SCORE.INTER.ROT>
14

>  <SCORE.INTER.SOLV>
20.4003

>  <SCORE.INTER.VDW>
-21.4145

>  <SCORE.INTER.norm>
-0.487182

>  <SCORE.INTRA>
-0.254353

>  <SCORE.INTRA.DIHEDRAL>
-9.38073

>  <SCORE.INTRA.DIHEDRAL.0>
48.7173

>  <SCORE.INTRA.POLAR>
-0.365088

>  <SCORE.INTRA.POLAR.0>
-1.54691

>  <SCORE.INTRA.REPUL>
0

>  <SCORE.INTRA.REPUL.0>
0

>  <SCORE.INTRA.SOLV>
0.916291

>  <SCORE.INTRA.SOLV.lig_0>
-64.052

>  <SCORE.INTRA.VDW>
5.21916

>  <SCORE.INTRA.VDW.0>
-7.0667

>  <SCORE.INTRA.norm>
-0.00605603

>  <SCORE.RESTR>
0.159737

>  <SCORE.RESTR.CAVITY>
0.159737

>  <SCORE.RESTR.norm>
0.00380327

>  <SCORE.SYSTEM>
0

>  <SCORE.SYSTEM.CONST>
0

>  <SCORE.SYSTEM.DIHEDRAL>
0

>  <SCORE.SYSTEM.SOLV>
0

>  <SCORE.SYSTEM.norm>
0

>  <SCORE.heavy>
42

>  <SCORE.norm>
-0.489435

>  <RMSD>
4.076

$$$$
1fyp_lig
 OpenBabel11021811393D
libRbt.so/2013.1/901 2013/11/27
 42 45  0  0  0  0  0  0  0  0999 V2000
    4.4187    7.6972   26.6312 C   0  0  2  0  0  0  0  0  0  0  0  0
    3.7134    6.4373   26.4377 O   0  0  0  0  0  0  0  0  0  0  0  0
    5.6811    4.3577   29.6070 C   0  0  2  0  0  0  0  0  0  0  0  0
    6.0535    3.4885   30.7385 N   0  0  0  0  0  0  0  0  0  0  0  0
    3.1882    3.1524   25.9695 C   0  0  1  0  0  0  0  0  0  0  0  0
   -0.3816    0.5303   25.4130 C   0  0  1  0  0  0  0  0  0  0  0  0
    4.8542    8.3247   25.2679 C   0  0  2  0  0  0  0  0  0  0  0  0
    3.7190    8.3958   24.3234 N   0  0  0  0  0  0  0  0  0  0  0  0
    4.4307    5.1786   29.9807 C   0  0  0  0  0  0  0  0  0  0  0  0
    3.1173    1.7667   25.3225 C   0  0  2  0  0  0  0  0  0  0  0  0
    2.8476    1.9050   23.9269 O   0  0  0  0  0  0  0  0  0  0  0  0
   -0.4839   -0.0927   23.9873 C   0  0  2  0  0  0  0  0  0  0  0  0
   -0.4931    0.9323   22.9151 N   0  0  0  0  0  0  0  0  0  0  0  0
    6.0338    7.5205   24.6371 C   0  0  1  0  0  0  0  0  0  0  0  0
    6.5236    8.1927   23.4795 O   0  0  0  0  0  0  0  0  0  0  0  0
    3.9964    6.1400   28.8408 C   0  0  2  0  0  0  0  0  0  0  0  0
    2.7522    6.8133   29.2676 N   0  0  0  0  0  0  0  0  0  0  0  0
    1.9312    1.1373   26.0583 C   0  0  2  0  0  0  0  0  0  0  0  0
    0.6599    1.5392   25.4760 O   0  0  0  0  0  0  0  0  0  0  0  0
   -1.7214   -1.0363   23.8808 C   0  0  1  0  0  0  0  0  0  0  0  0
   -1.4438   -2.2320   24.6065 O   0  0  0  0  0  0  0  0  0  0  0  0
    7.2056    7.3389   25.6341 C   0  0  2  0  0  0  0  0  0  0  0  0
    8.2052    6.5215   25.0330 O   0  0  0  0  0  0  0  0  0  0  0  0
    3.8092    5.4077   27.4635 C   0  0  2  0  0  0  0  0  0  0  0  0
    2.0848    1.7170   27.4714 C   0  0  2  0  0  0  0  0  0  0  0  0
    2.6664    3.0242   27.3019 O   0  0  0  0  0  0  0  0  0  0  0  0
   -3.0404   -0.4216   24.4398 C   0  0  2  0  0  0  0  0  0  0  0  0
   -3.5030    0.5714   23.5229 O   0  0  0  0  0  0  0  0  0  0  0  0
    6.6959    6.6974   26.9558 C   0  0  2  0  0  0  0  0  0  0  0  0
    5.5965    7.4990   27.4836 O   0  0  0  0  0  0  0  0  0  0  0  0
    4.9984    4.4395   27.1190 C   0  0  2  0  0  0  0  0  0  0  0  0
    4.5788    3.5798   26.0275 O   0  0  0  0  0  0  0  0  0  0  0  0
    2.9765    0.8554   28.3830 C   0  0  0  0  0  0  0  0  0  0  0  0
    2.3830   -0.4090   28.6213 O   0  0  0  0  0  0  0  0  0  0  0  0
   -2.8039    0.2118   25.8460 C   0  0  1  0  0  0  0  0  0  0  0  0
   -1.6691    1.1289   25.7862 O   0  0  0  0  0  0  0  0  0  0  0  0
    7.7520    6.6009   28.0795 C   0  0  0  0  0  0  0  0  0  0  0  0
    8.1939    7.8861   28.4825 O   0  0  0  0  0  0  0  0  0  0  0  0
    5.4167    3.5375   28.3214 C   0  0  1  0  0  0  0  0  0  0  0  0
    6.6011    2.8238   27.9698 O   0  0  0  0  0  0  0  0  0  0  0  0
   -4.0448    0.9765   26.3737 C   0  0  0  0  0  0  0  0  0  0  0  0
   -5.2307    0.1095   26.4961 N   0  0  0  0  0  0  0  0  0  0  0  0
  1  2  1  6  0  0  0
  1  7  1  0  0  0  0
  1 30  1  0  0  0  0
  3  4  1  1  0  0  0
  3  9  1  0  0  0  0
  3 39  1  0  0  0  0
  5 10  1  0  0  0  0
  5 26  1  0  0  0  0
  5 32  1  1  0  0  0
  6 12  1  0  0  0  0
  6 36  1  0  0  0  0
  6 19  1  6  0  0  0
  7  8  1  6  0  0  0
  7 14  1  0  0  0  0
  9 16  1  0  0  0  0
 10 11  1  6  0  0  0
 10 18  1  0  0  0  0
 12 13  1  6  0  0  0
 12 20  1  0  0  0  0
 14 15  1  6  0  0  0
 14 22  1  0  0  0  0
 16 17  1  1  0  0  0
 16 24  1  0  0  0  0
 18 19  1  6  0  0  0
 18 25  1  0  0  0  0
 20 21  1  1  0  0  0
 20 27  1  0  0  0  0
 22 23  1  6  0  0  0
 22 29  1  0  0  0  0
 24  2  1  6  0  0  0
 24 31  1  0  0  0  0
 25 26  1  0  0  0  0
 25 33  1  1  0  0  0
 27 28  1  6  0  0  0
 27 35  1  0  0  0  0
 29 30  1  0  0  0  0
 29 37  1  1  0  0  0
 31 32  1  6  0  0  0
 31 39  1  0  0  0  0
 33 34  1  0  0  0  0
 35 36  1  0  0  0  0
 35 41  1  6  0  0  0
 37 38  1  0  0  0  0
 39 40  1  6  0  0  0
 41 42  1  0  0  0  0
M  END
>  <CHROM.1>
149.66736961,30.28369292,-34.23530213,-37.59746798,-167.07842732,77.38484134
60.44327976,32.03321198,142.03237192,-100.26935428,177.46261736,-67.91453989
-64.96518983,63.88597456,62.76065758,-35.08089651,-148.97418378,-161.32029154
59.46020058,173.09587299,-178.23143339,-93.44653379,2.81578763,3.56876624
26.40207518,0.26322032,-0.66379633,-0.88088567

>  <Name>
1fyp_lig

>  <RI>
0

>  <Rbt.Current_Directory>
/home/itssahil/PROJECTS/Mol_Feturizer/New_Systems/rnas/1fyp

>  <Rbt.Executable>
rbdock ($Id: //depot/dev/client3/rdock/2013.1/src/exe/rbdock.cxx#4 $)

>  <Rbt.Library>
libRbt.so (2013.1, Build901 2013/11/27)

>  <Rbt.Parameter_File>
/export/apps/rDock/src/rDock_2013.1_src/data/scripts/dock_solv.prm

>  <Rbt.Receptor>
prm/pocket_docking_2.prm

>  <SCORE>
-25.4496

>  <SCORE.INTER>
-34.9779

>  <SCORE.INTER.CONST>
1

>  <SCORE.INTER.POLAR>
-4.43872

>  <SCORE.INTER.ROT>
14

>  <SCORE.INTER.SOLV>
20.6762

>  <SCORE.INTER.VDW>
-28.3483

>  <SCORE.INTER.norm>
-0.832808

>  <SCORE.INTRA>
3.62497

>  <SCORE.INTRA.DIHEDRAL>
-16.7983

>  <SCORE.INTRA.DIHEDRAL.0>
48.7173

>  <SCORE.INTRA.POLAR>
1.47953

>  <SCORE.INTRA.POLAR.0>
-1.54691

>  <SCORE.INTRA.REPUL>
0

>  <SCORE.INTRA.REPUL.0>
0

>  <SCORE.INTRA.SOLV>
-1.9237

>  <SCORE.INTRA.SOLV.lig_0>
-64.052

>  <SCORE.INTRA.VDW>
7.95555

>  <SCORE.INTRA.VDW.0>
-7.0667

>  <SCORE.INTRA.norm>
0.0863087

>  <SCORE.RESTR>
5.90337

>  <SCORE.RESTR.CAVITY>
5.90337

>  <SCORE.RESTR.norm>
0.140556

>  <SCORE.SYSTEM>
0

>  <SCORE.SYSTEM.CONST>
0

>  <SCORE.SYSTEM.DIHEDRAL>
0

>  <SCORE.SYSTEM.SOLV>
0

>  <SCORE.SYSTEM.norm>
0

>  <SCORE.heavy>
42

>  <SCORE.norm>
-0.605942

>  <RMSD>
4.082

$$$$
1fyp_lig
 OpenBabel11021811393D
libRbt.so/2013.1/901 2013/11/27
 42 45  0  0  0  0  0  0  0  0999 V2000
    4.0443    8.0749   26.1892 C   0  0  2  0  0  0  0  0  0  0  0  0
    3.4681    6.7484   26.0141 O   0  0  0  0  0  0  0  0  0  0  0  0
    3.3789    5.8399   30.1863 C   0  0  2  0  0  0  0  0  0  0  0  0
    3.0720    5.3403   31.5393 N   0  0  0  0  0  0  0  0  0  0  0  0
    3.2965    3.2872   26.4782 C   0  0  1  0  0  0  0  0  0  0  0  0
    0.8218   -0.0972   24.9682 C   0  0  1  0  0  0  0  0  0  0  0  0
    4.4950    8.6879   24.8243 C   0  0  2  0  0  0  0  0  0  0  0  0
    3.4116    8.6173   23.8209 N   0  0  0  0  0  0  0  0  0  0  0  0
    2.1250    6.5106   29.5906 C   0  0  0  0  0  0  0  0  0  0  0  0
    3.8075    1.9840   25.8582 C   0  0  2  0  0  0  0  0  0  0  0  0
    3.9544    2.1521   24.4477 O   0  0  0  0  0  0  0  0  0  0  0  0
    0.0875   -0.0245   23.5947 C   0  0  2  0  0  0  0  0  0  0  0  0
   -0.6292    1.2591   23.3971 N   0  0  0  0  0  0  0  0  0  0  0  0
    5.7756    7.9736   24.2896 C   0  0  1  0  0  0  0  0  0  0  0  0
    6.2650    8.6440   23.1308 O   0  0  0  0  0  0  0  0  0  0  0  0
    2.3844    7.0863   28.1716 C   0  0  2  0  0  0  0  0  0  0  0  0
    1.1072    7.6296   27.6644 N   0  0  0  0  0  0  0  0  0  0  0  0
    2.6699    1.0133   26.1870 C   0  0  2  0  0  0  0  0  0  0  0  0
    1.5814    1.1122   25.2268 O   0  0  0  0  0  0  0  0  0  0  0  0
   -0.8693   -1.2426   23.4110 C   0  0  1  0  0  0  0  0  0  0  0  0
   -0.0814   -2.4043   23.1598 O   0  0  0  0  0  0  0  0  0  0  0  0
    6.9027    7.9398   25.3520 C   0  0  2  0  0  0  0  0  0  0  0  0
    8.0039    7.1967   24.8383 O   0  0  0  0  0  0  0  0  0  0  0  0
    2.9891    6.0247   27.1839 C   0  0  2  0  0  0  0  0  0  0  0  0
    2.2169    1.5045   27.5689 C   0  0  2  0  0  0  0  0  0  0  0  0
    2.4447    2.9272   27.5775 O   0  0  0  0  0  0  0  0  0  0  0  0
   -1.7800   -1.5280   24.6435 C   0  0  2  0  0  0  0  0  0  0  0  0
   -2.7929   -0.5224   24.7025 O   0  0  0  0  0  0  0  0  0  0  0  0
    6.3817    7.3043   26.6723 C   0  0  2  0  0  0  0  0  0  0  0  0
    5.1868    8.0196   27.1084 O   0  0  0  0  0  0  0  0  0  0  0  0
    4.1765    5.2100   27.8136 C   0  0  2  0  0  0  0  0  0  0  0  0
    4.4305    4.0570   26.9694 O   0  0  0  0  0  0  0  0  0  0  0  0
    2.9826    0.8391   28.7263 C   0  0  0  0  0  0  0  0  0  0  0  0
    4.3267    1.2856   28.7654 O   0  0  0  0  0  0  0  0  0  0  0  0
   -0.9445   -1.5292   25.9612 C   0  0  1  0  0  0  0  0  0  0  0  0
   -0.1565   -0.3025   26.0434 O   0  0  0  0  0  0  0  0  0  0  0  0
    7.3790    7.3491   27.8515 C   0  0  0  0  0  0  0  0  0  0  0  0
    6.8038    6.8172   29.0328 O   0  0  0  0  0  0  0  0  0  0  0  0
    3.8691    4.7035   29.2570 C   0  0  1  0  0  0  0  0  0  0  0  0
    5.0551    4.1299   29.8046 O   0  0  0  0  0  0  0  0  0  0  0  0
   -1.8280   -1.6486   27.2294 C   0  0  0  0  0  0  0  0  0  0  0  0
   -1.8143   -0.4195   28.0431 N   0  0  0  0  0  0  0  0  0  0  0  0
  1  2  1  6  0  0  0
  1  7  1  0  0  0  0
  1 30  1  0  0  0  0
  3  4  1  1  0  0  0
  3  9  1  0  0  0  0
  3 39  1  0  0  0  0
  5 10  1  0  0  0  0
  5 26  1  0  0  0  0
  5 32  1  1  0  0  0
  6 12  1  0  0  0  0
  6 36  1  0  0  0  0
  6 19  1  1  0  0  0
  7  8  1  6  0  0  0
  7 14  1  0  0  0  0
  9 16  1  0  0  0  0
 10 11  1  6  0  0  0
 10 18  1  0  0  0  0
 12 13  1  1  0  0  0
 12 20  1  0  0  0  0
 14 15  1  6  0  0  0
 14 22  1  0  0  0  0
 16 17  1  6  0  0  0
 16 24  1  0  0  0  0
 18 19  1  6  0  0  0
 18 25  1  0  0  0  0
 20 21  1  1  0  0  0
 20 27  1  0  0  0  0
 22 23  1  6  0  0  0
 22 29  1  0  0  0  0
 24  2  1  6  0  0  0
 24 31  1  0  0  0  0
 25 26  1  0  0  0  0
 25 33  1  1  0  0  0
 27 28  1  1  0  0  0
 27 35  1  0  0  0  0
 29 30  1  0  0  0  0
 29 37  1  1  0  0  0
 31 32  1  6  0  0  0
 31 39  1  0  0  0  0
 33 34  1  0  0  0  0
 35 36  1  0  0  0  0
 35 41  1  1  0  0  0
 37 38  1  0  0  0  0
 39 40  1  1  0  0  0
 41 42  1  0  0  0  0
M  END
>  <CHROM.1>
-179.86700097,35.18820756,7.48834380,49.88130851,-75.00851848,170.06166138
-68.10623150,-81.90459386,149.15604274,-158.38087805,54.44143564,68.80018430
70.00138048,177.54459215,176.83241986,-44.09954231,-168.80080760,172.83510750
-112.26982347,-176.51146635,67.16370277,43.61558519,2.81894379,3.74880515
26.50378099,-0.05614225,-0.94738015,-1.47495851

>  <Name>
1fyp_lig

>  <RI>
0

>  <Rbt.Current_Directory>
/home/itssahil/PROJECTS/Mol_Feturizer/New_Systems/rnas/1fyp

>  <Rbt.Executable>
rbdock ($Id: //depot/dev/client3/rdock/2013.1/src/exe/rbdock.cxx#4 $)

>  <Rbt.Library>
libRbt.so (2013.1, Build901 2013/11/27)

>  <Rbt.Parameter_File>
/export/apps/rDock/src/rDock_2013.1_src/data/scripts/dock_solv.prm

>  <Rbt.Receptor>
prm/pocket_docking_5.prm

>  <SCORE>
-52.8392

>  <SCORE.INTER>
-47.5082

>  <SCORE.INTER.CONST>
1

>  <SCORE.INTER.POLAR>
-6.01379

>  <SCORE.INTER.ROT>
14

>  <SCORE.INTER.SOLV>
19.3735

>  <SCORE.INTER.VDW>
-31.0173

>  <SCORE.INTER.norm>
-1.13115

>  <SCORE.INTRA>
-5.33104

>  <SCORE.INTRA.DIHEDRAL>
-26.2016

>  <SCORE.INTRA.DIHEDRAL.0>
48.7173

>  <SCORE.INTRA.POLAR>
0.974568

>  <SCORE.INTRA.POLAR.0>
-1.54691

>  <SCORE.INTRA.REPUL>
0

>  <SCORE.INTRA.REPUL.0>
0

>  <SCORE.INTRA.SOLV>
0.0511537

>  <SCORE.INTRA.SOLV.lig_0>
-64.052

>  <SCORE.INTRA.VDW>
4.43067

>  <SCORE.INTRA.VDW.0>
-7.0667

>  <SCORE.INTRA.norm>
-0.12693

>  <SCORE.RESTR>
0

>  <SCORE.RESTR.CAVITY>
0

>  <SCORE.RESTR.norm>
0

>  <SCORE.SYSTEM>
0

>  <SCORE.SYSTEM.CONST>
0

>  <SCORE.SYSTEM.DIHEDRAL>
0

>  <SCORE.SYSTEM.SOLV>
0

>  <SCORE.SYSTEM.norm>
0

>  <SCORE.heavy>
42

>  <SCORE.norm>
-1.25808

>  <RMSD>
4.117

$$$$
1fyp_lig
 OpenBabel11021811393D
libRbt.so/2013.1/901 2013/11/27
 42 45  0  0  0  0  0  0  0  0999 V2000
    7.5075    7.2674   26.2296 C   0  0  2  0  0  0  0  0  0  0  0  0
    6.2901    7.8370   25.6677 O   0  0  0  0  0  0  0  0  0  0  0  0
    5.0989    9.5472   21.9398 C   0  0  2  0  0  0  0  0  0  0  0  0
    4.8435    9.8602   20.5216 N   0  0  0  0  0  0  0  0  0  0  0  0
    3.7483    6.2850   25.5729 C   0  0  1  0  0  0  0  0  0  0  0  0
    1.8966    4.8773   29.3612 C   0  0  1  0  0  0  0  0  0  0  0  0
    7.3471    5.7388   26.5116 C   0  0  2  0  0  0  0  0  0  0  0  0
    6.8274    5.0263   25.3250 N   0  0  0  0  0  0  0  0  0  0  0  0
    6.6079    9.3099   22.1490 C   0  0  0  0  0  0  0  0  0  0  0  0
    2.2533    6.3190   25.9006 C   0  0  2  0  0  0  0  0  0  0  0  0
    1.9229    7.5762   26.4921 O   0  0  0  0  0  0  0  0  0  0  0  0
    2.9764    4.1114   30.1850 C   0  0  2  0  0  0  0  0  0  0  0  0
    3.9179    3.3520   29.3264 N   0  0  0  0  0  0  0  0  0  0  0  0
    6.4165    5.4946   27.7405 C   0  0  1  0  0  0  0  0  0  0  0  0
    6.4068    4.1109   28.0826 O   0  0  0  0  0  0  0  0  0  0  0  0
    6.9543    9.0008   23.6311 C   0  0  2  0  0  0  0  0  0  0  0  0
    8.4016    8.7118   23.7056 N   0  0  0  0  0  0  0  0  0  0  0  0
    2.1283    5.1779   26.9138 C   0  0  2  0  0  0  0  0  0  0  0  0
    2.4923    5.6054   28.2559 O   0  0  0  0  0  0  0  0  0  0  0  0
    2.3104    3.1881   31.2513 C   0  0  1  0  0  0  0  0  0  0  0  0
    1.7951    4.0052   32.3003 O   0  0  0  0  0  0  0  0  0  0  0  0
    6.8734    6.3051   28.9793 C   0  0  2  0  0  0  0  0  0  0  0  0
    5.9346    6.1125   30.0331 O   0  0  0  0  0  0  0  0  0  0  0  0
    6.1023    7.8212   24.2234 C   0  0  2  0  0  0  0  0  0  0  0  0
    3.1437    4.1590   26.3779 C   0  0  2  0  0  0  0  0  0  0  0  0
    4.1920    4.9317   25.7615 O   0  0  0  0  0  0  0  0  0  0  0  0
    1.1451    2.3135   30.6971 C   0  0  2  0  0  0  0  0  0  0  0  0
    1.7015    1.2722   29.8929 O   0  0  0  0  0  0  0  0  0  0  0  0
    6.9946    7.8139   28.6231 C   0  0  2  0  0  0  0  0  0  0  0  0
    7.8742    7.9635   27.4682 O   0  0  0  0  0  0  0  0  0  0  0  0
    4.5703    7.9491   23.8967 C   0  0  2  0  0  0  0  0  0  0  0  0
    3.9397    6.6736   24.1829 O   0  0  0  0  0  0  0  0  0  0  0  0
    2.5357    3.1820   25.3559 C   0  0  0  0  0  0  0  0  0  0  0  0
    3.5512    2.5422   24.6029 O   0  0  0  0  0  0  0  0  0  0  0  0
    0.1574    3.1772   29.8526 C   0  0  1  0  0  0  0  0  0  0  0  0
    0.9012    3.9292   28.8458 O   0  0  0  0  0  0  0  0  0  0  0  0
    7.5822    8.6999   29.7442 C   0  0  0  0  0  0  0  0  0  0  0  0
    8.9609    8.4350   29.9406 O   0  0  0  0  0  0  0  0  0  0  0  0
    4.2944    8.3092   22.4038 C   0  0  1  0  0  0  0  0  0  0  0  0
    2.9007    8.5701   22.2445 O   0  0  0  0  0  0  0  0  0  0  0  0
   -0.9290    2.3255   29.1473 C   0  0  0  0  0  0  0  0  0  0  0  0
   -0.3611    1.4072   28.1436 N   0  0  0  0  0  0  0  0  0  0  0  0
  1  2  1  1  0  0  0
  1  7  1  0  0  0  0
  1 30  1  0  0  0  0
  3  4  1  6  0  0  0
  3  9  1  0  0  0  0
  3 39  1  0  0  0  0
  5 10  1  0  0  0  0
  5 26  1  0  0  0  0
  5 32  1  6  0  0  0
  6 12  1  0  0  0  0
  6 36  1  0  0  0  0
  6 19  1  6  0  0  0
  7  8  1  6  0  0  0
  7 14  1  0  0  0  0
  9 16  1  0  0  0  0
 10 11  1  1  0  0  0
 10 18  1  0  0  0  0
 12 13  1  6  0  0  0
 12 20  1  0  0  0  0
 14 15  1  1  0  0  0
 14 22  1  0  0  0  0
 16 17  1  6  0  0  0
 16 24  1  0  0  0  0
 18 19  1  1  0  0  0
 18 25  1  0  0  0  0
 20 21  1  1  0  0  0
 20 27  1  0  0  0  0
 22 23  1  1  0  0  0
 22 29  1  0  0  0  0
 24  2  1  1  0  0  0
 24 31  1  0  0  0  0
 25 26  1  0  0  0  0
 25 33  1  6  0  0  0
 27 28  1  6  0  0  0
 27 35  1  0  0  0  0
 29 30  1  0  0  0  0
 29 37  1  1  0  0  0
 31 32  1  6  0  0  0
 31 39  1  0  0  0  0
 33 34  1  0  0  0  0
 35 36  1  0  0  0  0
 35 41  1  6  0  0  0
 37 38  1  0  0  0  0
 39 40  1  1  0  0  0
 41 42  1  0  0  0  0
M  END
>  <CHROM.1>
-88.38067251,-79.09560465,106.67045634,-84.98718174,177.02943192,-31.29484614
-48.85399584,-64.70073778,153.85963551,115.03112365,-53.83721141,-75.48175899
162.46789994,-48.83137343,69.96090064,73.17564769,110.48469079,170.88784291
-64.46210142,-175.35289907,80.64388939,-168.97010789,4.28809271,5.84056095
26.85185876,-0.94141714,0.53563827,1.96807631

>  <Name>
1fyp_lig

>  <RI>
0

>  <Rbt.Current_Directory>
/home/itssahil/PROJECTS/Mol_Feturizer/New_Systems/rnas/1fyp

>  <Rbt.Executable>
rbdock ($Id: //depot/dev/client3/rdock/2013.1/src/exe/rbdock.cxx#4 $)

>  <Rbt.Library>
libRbt.so (2013.1, Build901 2013/11/27)

>  <Rbt.Parameter_File>
/export/apps/rDock/src/rDock_2013.1_src/data/scripts/dock_solv.prm

>  <Rbt.Receptor>
prm/pocket_docking_8.prm

>  <SCORE>
-50.8461

>  <SCORE.INTER>
-42.7993

>  <SCORE.INTER.CONST>
1

>  <SCORE.INTER.POLAR>
-5.15028

>  <SCORE.INTER.ROT>
14

>  <SCORE.INTER.SOLV>
16.639

>  <SCORE.INTER.VDW>
-29.8449

>  <SCORE.INTER.norm>
-1.01903

>  <SCORE.INTRA>
-8.0468

>  <SCORE.INTRA.DIHEDRAL>
-15.0177

>  <SCORE.INTRA.DIHEDRAL.0>
48.7173

>  <SCORE.INTRA.POLAR>
-0.70954

>  <SCORE.INTRA.POLAR.0>
-1.54691

>  <SCORE.INTRA.REPUL>
4.10064e-05

>  <SCORE.INTRA.REPUL.0>
0

>  <SCORE.INTRA.SOLV>
2.11152

>  <SCORE.INTRA.SOLV.lig_0>
-64.052

>  <SCORE.INTRA.VDW>
0.818497

>  <SCORE.INTRA.VDW.0>
-7.0667

>  <SCORE.INTRA.norm>
-0.191591

>  <SCORE.RESTR>
0

>  <SCORE.RESTR.CAVITY>
0

>  <SCORE.RESTR.norm>
0

>  <SCORE.SYSTEM>
0

>  <SCORE.SYSTEM.CONST>
0

>  <SCORE.SYSTEM.DIHEDRAL>
0

>  <SCORE.SYSTEM.SOLV>
0

>  <SCORE.SYSTEM.norm>
0

>  <SCORE.heavy>
42

>  <SCORE.norm>
-1.21062

>  <RMSD>
4.140

$$$$
1fyp_lig
 OpenBabel11021811393D
libRbt.so/2013.1/901 2013/11/27
 42 45  0  0  0  0  0  0  0  0999 V2000
    8.5603    7.8648   25.1510 C   0  0  2  0  0  0  0  0  0  0  0  0
    7.3184    8.5152   25.5472 O   0  0  0  0  0  0  0  0  0  0  0  0
    3.0563    8.2691   25.4265 C   0  0  2  0  0  0  0  0  0  0  0  0
    1.6468    7.8815   25.2330 N   0  0  0  0  0  0  0  0  0  0  0  0
    5.3021    5.3994   27.5277 C   0  0  1  0  0  0  0  0  0  0  0  0
    3.7126    1.7525   28.3072 C   0  0  1  0  0  0  0  0  0  0  0  0
    9.4198    7.4665   26.3939 C   0  0  2  0  0  0  0  0  0  0  0  0
    8.6186    6.7103   27.3798 N   0  0  0  0  0  0  0  0  0  0  0  0
    3.7988    8.1939   24.0774 C   0  0  0  0  0  0  0  0  0  0  0  0
    6.3721    4.4019   27.9788 C   0  0  2  0  0  0  0  0  0  0  0  0
    6.9952    3.8199   26.8331 O   0  0  0  0  0  0  0  0  0  0  0  0
    2.4801    2.1813   27.4537 C   0  0  2  0  0  0  0  0  0  0  0  0
    2.4084    3.6489   27.2506 N   0  0  0  0  0  0  0  0  0  0  0  0
   10.0497    8.7287   27.0619 C   0  0  1  0  0  0  0  0  0  0  0  0
   10.9546    8.3397   28.0923 O   0  0  0  0  0  0  0  0  0  0  0  0
    5.2881    8.6169   24.2017 C   0  0  2  0  0  0  0  0  0  0  0  0
    5.9218    8.4318   22.8796 N   0  0  0  0  0  0  0  0  0  0  0  0
    5.5371    3.3699   28.7419 C   0  0  2  0  0  0  0  0  0  0  0  0
    4.9268    2.4001   27.8456 O   0  0  0  0  0  0  0  0  0  0  0  0
    1.1581    1.6286   28.0701 C   0  0  1  0  0  0  0  0  0  0  0  0
    1.0965    0.2248   27.8267 O   0  0  0  0  0  0  0  0  0  0  0  0
   10.8163    9.6013   26.0367 C   0  0  2  0  0  0  0  0  0  0  0  0
   11.2851   10.7788   26.6867 O   0  0  0  0  0  0  0  0  0  0  0  0
    6.0553    7.8260   25.3216 C   0  0  2  0  0  0  0  0  0  0  0  0
    4.4631    4.2478   29.3994 C   0  0  2  0  0  0  0  0  0  0  0  0
    4.2394    5.3451   28.4930 O   0  0  0  0  0  0  0  0  0  0  0  0
    1.0247    1.8637   29.6053 C   0  0  2  0  0  0  0  0  0  0  0  0
    0.7530    3.2479   29.8309 O   0  0  0  0  0  0  0  0  0  0  0  0
    9.8921    9.9674   24.8408 C   0  0  2  0  0  0  0  0  0  0  0  0
    9.3399    8.7426   24.2708 O   0  0  0  0  0  0  0  0  0  0  0  0
    5.2562    7.7492   26.6728 C   0  0  2  0  0  0  0  0  0  0  0  0
    5.8769    6.7370   27.5074 O   0  0  0  0  0  0  0  0  0  0  0  0
    4.8822    4.7800   30.7813 C   0  0  0  0  0  0  0  0  0  0  0  0
    4.7131    3.7868   31.7776 O   0  0  0  0  0  0  0  0  0  0  0  0
    2.3323    1.4437   30.3458 C   0  0  1  0  0  0  0  0  0  0  0  0
    3.4811    2.0899   29.7171 O   0  0  0  0  0  0  0  0  0  0  0  0
   10.5926   10.7163   23.6852 C   0  0  0  0  0  0  0  0  0  0  0  0
   11.1323   11.9514   24.1243 O   0  0  0  0  0  0  0  0  0  0  0  0
    3.7565    7.3682   26.4722 C   0  0  1  0  0  0  0  0  0  0  0  0
    3.0804    7.4904   27.7227 O   0  0  0  0  0  0  0  0  0  0  0  0
    2.3095    1.8074   31.8525 C   0  0  0  0  0  0  0  0  0  0  0  0
    2.9577    0.7815   32.6894 N   0  0  0  0  0  0  0  0  0  0  0  0
  1  2  1  1  0  0  0
  1  7  1  0  0  0  0
  1 30  1  0  0  0  0
  3  4  1  6  0  0  0
  3  9  1  0  0  0  0
  3 39  1  0  0  0  0
  5 10  1  0  0  0  0
  5 26  1  0  0  0  0
  5 32  1  1  0  0  0
  6 12  1  0  0  0  0
  6 36  1  0  0  0  0
  6 19  1  6  0  0  0
  7  8  1  1  0  0  0
  7 14  1  0  0  0  0
  9 16  1  0  0  0  0
 10 11  1  6  0  0  0
 10 18  1  0  0  0  0
 12 13  1  1  0  0  0
 12 20  1  0  0  0  0
 14 15  1  1  0  0  0
 14 22  1  0  0  0  0
 16 17  1  6  0  0  0
 16 24  1  0  0  0  0
 18 19  1  6  0  0  0
 18 25  1  0  0  0  0
 20 21  1  1  0  0  0
 20 27  1  0  0  0  0
 22 23  1  1  0  0  0
 22 29  1  0  0  0  0
 24  2  1  1  0  0  0
 24 31  1  0  0  0  0
 25 26  1  0  0  0  0
 25 33  1  1  0  0  0
 27 28  1  6  0  0  0
 27 35  1  0  0  0  0
 29 30  1  0  0  0  0
 29 37  1  6  0  0  0
 31 32  1  1  0  0  0
 31 39  1  0  0  0  0
 33 34  1  0  0  0  0
 35 36  1  0  0  0  0
 35 41  1  1  0  0  0
 37 38  1  0  0  0  0
 39 40  1  1  0  0  0
 41 42  1  0  0  0  0
M  END
>  <CHROM.1>
-111.76616617,-111.31144180,-64.79416121,-16.84627097,59.92837852,62.85334571
-172.22452852,-29.01224555,-154.50742172,112.70750778,164.07251809,-176.76451380
-79.55265833,57.68506176,-60.84489429,-97.46892317,157.49473378,57.27928578
142.66114680,178.69648372,176.34292531,-83.81175586,5.55695643,5.86703074
27.32892101,-0.84242540,0.33728681,2.31854292

>  <Name>
1fyp_lig

>  <RI>
0

>  <Rbt.Current_Directory>
/home/itssahil/PROJECTS/Mol_Feturizer/New_Systems/rnas/1fyp

>  <Rbt.Executable>
rbdock ($Id: //depot/dev/client3/rdock/2013.1/src/exe/rbdock.cxx#4 $)

>  <Rbt.Library>
libRbt.so (2013.1, Build901 2013/11/27)

>  <Rbt.Parameter_File>
/export/apps/rDock/src/rDock_2013.1_src/data/scripts/dock_solv.prm

>  <Rbt.Receptor>
prm/pocket_docking_7.prm

>  <SCORE>
-30.2068

>  <SCORE.INTER>
-31.9532

>  <SCORE.INTER.CONST>
1

>  <SCORE.INTER.POLAR>
-3.36137

>  <SCORE.INTER.ROT>
14

>  <SCORE.INTER.SOLV>
15.6497

>  <SCORE.INTER.VDW>
-28.2475

>  <SCORE.INTER.norm>
-0.76079

>  <SCORE.INTRA>
1.74637

>  <SCORE.INTRA.DIHEDRAL>
-7.38692

>  <SCORE.INTRA.DIHEDRAL.0>
48.7173

>  <SCORE.INTRA.POLAR>
-1.06532

>  <SCORE.INTRA.POLAR.0>
-1.54691

>  <SCORE.INTRA.REPUL>
0

>  <SCORE.INTRA.REPUL.0>
0

>  <SCORE.INTRA.SOLV>
0.854277

>  <SCORE.INTRA.SOLV.lig_0>
-64.052

>  <SCORE.INTRA.VDW>
8.63479

>  <SCORE.INTRA.VDW.0>
-7.0667

>  <SCORE.INTRA.norm>
0.0415803

>  <SCORE.RESTR>
0

>  <SCORE.RESTR.CAVITY>
0

>  <SCORE.RESTR.norm>
0

>  <SCORE.SYSTEM>
0

>  <SCORE.SYSTEM.CONST>
0

>  <SCORE.SYSTEM.DIHEDRAL>
0

>  <SCORE.SYSTEM.SOLV>
0

>  <SCORE.SYSTEM.norm>
0

>  <SCORE.heavy>
42

>  <SCORE.norm>
-0.71921

>  <RMSD>
4.192

$$$$
1fyp_lig
 OpenBabel11021811393D
libRbt.so/2013.1/901 2013/11/27
 42 45  0  0  0  0  0  0  0  0999 V2000
    7.6023    6.8427   26.3473 C   0  0  2  0  0  0  0  0  0  0  0  0
    6.4144    7.4638   25.7767 O   0  0  0  0  0  0  0  0  0  0  0  0
    5.7200    9.7764   22.2539 C   0  0  2  0  0  0  0  0  0  0  0  0
    5.6140   10.2999   20.8794 N   0  0  0  0  0  0  0  0  0  0  0  0
    3.7208    6.2636   25.3074 C   0  0  1  0  0  0  0  0  0  0  0  0
    1.7306    4.3308   28.6850 C   0  0  1  0  0  0  0  0  0  0  0  0
    7.3483    5.3427   26.7047 C   0  0  2  0  0  0  0  0  0  0  0  0
    6.7623    4.6109   25.5616 N   0  0  0  0  0  0  0  0  0  0  0  0
    7.1717    9.3326   22.5232 C   0  0  0  0  0  0  0  0  0  0  0  0
    2.2034    6.3508   25.4906 C   0  0  2  0  0  0  0  0  0  0  0  0
    1.8759    7.5494   26.1946 O   0  0  0  0  0  0  0  0  0  0  0  0
    2.6478    4.2833   29.9450 C   0  0  2  0  0  0  0  0  0  0  0  0
    4.0909    4.2977   29.6022 N   0  0  0  0  0  0  0  0  0  0  0  0
    6.4259    5.2180   27.9576 C   0  0  1  0  0  0  0  0  0  0  0  0
    6.3327    3.8555   28.3658 O   0  0  0  0  0  0  0  0  0  0  0  0
    7.3633    8.7935   23.9671 C   0  0  2  0  0  0  0  0  0  0  0  0
    8.7588    8.3240   24.0923 N   0  0  0  0  0  0  0  0  0  0  0  0
    1.9184    5.1105   26.3418 C   0  0  2  0  0  0  0  0  0  0  0  0
    2.1624    5.3576   27.7546 O   0  0  0  0  0  0  0  0  0  0  0  0
    2.2910    3.0613   30.8463 C   0  0  1  0  0  0  0  0  0  0  0  0
    1.0544    3.3288   31.5042 O   0  0  0  0  0  0  0  0  0  0  0  0
    6.9564    6.0541   29.1492 C   0  0  2  0  0  0  0  0  0  0  0  0
    6.0261    5.9732   30.2247 O   0  0  0  0  0  0  0  0  0  0  0  0
    6.3408    7.6589   24.3352 C   0  0  2  0  0  0  0  0  0  0  0  0
    2.9325    4.1000   25.7877 C   0  0  2  0  0  0  0  0  0  0  0  0
    4.0755    4.8730   25.3733 O   0  0  0  0  0  0  0  0  0  0  0  0
    2.1495    1.7173   30.0695 C   0  0  2  0  0  0  0  0  0  0  0  0
    3.4527    1.2737   29.6881 O   0  0  0  0  0  0  0  0  0  0  0  0
    7.1687    7.5334   28.7191 C   0  0  2  0  0  0  0  0  0  0  0  0
    8.0354    7.5706   27.5455 O   0  0  0  0  0  0  0  0  0  0  0  0
    4.8633    8.0131   23.9332 C   0  0  2  0  0  0  0  0  0  0  0  0
    4.0736    6.7971   23.9995 O   0  0  0  0  0  0  0  0  0  0  0  0
    2.3860    3.2860   24.6013 C   0  0  0  0  0  0  0  0  0  0  0  0
    2.3273    1.9066   24.9195 O   0  0  0  0  0  0  0  0  0  0  0  0
    1.2512    1.8993   28.8067 C   0  0  1  0  0  0  0  0  0  0  0  0
    1.7405    3.0246   28.0149 O   0  0  0  0  0  0  0  0  0  0  0  0
    7.8325    8.4306   29.7875 C   0  0  0  0  0  0  0  0  0  0  0  0
    7.2076    8.2757   31.0505 O   0  0  0  0  0  0  0  0  0  0  0  0
    4.7481    8.5952   22.4901 C   0  0  1  0  0  0  0  0  0  0  0  0
    3.4093    9.0417   22.2806 O   0  0  0  0  0  0  0  0  0  0  0  0
    1.2107    0.6326   27.9140 C   0  0  0  0  0  0  0  0  0  0  0  0
    0.3496    0.8053   26.7301 N   0  0  0  0  0  0  0  0  0  0  0  0
  1  2  1  1  0  0  0
  1  7  1  0  0  0  0
  1 30  1  0  0  0  0
  3  4  1  6  0  0  0
  3  9  1  0  0  0  0
  3 39  1  0  0  0  0
  5 10  1  0  0  0  0
  5 26  1  0  0  0  0
  5 32  1  6  0  0  0
  6 12  1  0  0  0  0
  6 36  1  0  0  0  0
  6 19  1  6  0  0  0
  7  8  1  6  0  0  0
  7 14  1  0  0  0  0
  9 16  1  0  0  0  0
 10 11  1  1  0  0  0
 10 18  1  0  0  0  0
 12 13  1  6  0  0  0
 12 20  1  0  0  0  0
 14 15  1  1  0  0  0
 14 22  1  0  0  0  0
 16 17  1  6  0  0  0
 16 24  1  0  0  0  0
 18 19  1  1  0  0  0
 18 25  1  0  0  0  0
 20 21  1  6  0  0  0
 20 27  1  0  0  0  0
 22 23  1  1  0  0  0
 22 29  1  0  0  0  0
 24  2  1  1  0  0  0
 24 31  1  0  0  0  0
 25 26  1  0  0  0  0
 25 33  1  6  0  0  0
 27 28  1  6  0  0  0
 27 35  1  0  0  0  0
 29 30  1  0  0  0  0
 29 37  1  1  0  0  0
 31 32  1  6  0  0  0
 31 39  1  0  0  0  0
 33 34  1  0  0  0  0
 35 36  1  0  0  0  0
 35 41  1  6  0  0  0
 37 38  1  0  0  0  0
 39 40  1  1  0  0  0
 41 42  1  0  0  0  0
M  END
>  <CHROM.1>
-101.97220878,-70.79202523,169.48556509,161.74418136,-174.55599841,-3.52945241
62.73688581,45.16348866,170.60694789,149.19588731,-40.00006568,177.54862468
-117.18906051,57.60582997,-48.25232348,73.71173705,114.22036896,-168.65681746
179.40307993,-167.77024817,-175.43744539,-171.61554757,4.46041830,5.63109536
26.72847688,-0.93102878,0.65652161,2.01544049

>  <Name>
1fyp_lig

>  <RI>
0

>  <Rbt.Current_Directory>
/home/itssahil/PROJECTS/Mol_Feturizer/New_Systems/rnas/1fyp

>  <Rbt.Executable>
rbdock ($Id: //depot/dev/client3/rdock/2013.1/src/exe/rbdock.cxx#4 $)

>  <Rbt.Library>
libRbt.so (2013.1, Build901 2013/11/27)

>  <Rbt.Parameter_File>
/export/apps/rDock/src/rDock_2013.1_src/data/scripts/dock_solv.prm

>  <Rbt.Receptor>
prm/pocket_docking_4.prm

>  <SCORE>
-44.4511

>  <SCORE.INTER>
-32.8891

>  <SCORE.INTER.CONST>
1

>  <SCORE.INTER.POLAR>
-3.7216

>  <SCORE.INTER.ROT>
14

>  <SCORE.INTER.SOLV>
17.3847

>  <SCORE.INTER.VDW>
-28.2489

>  <SCORE.INTER.norm>
-0.783073

>  <SCORE.INTRA>
-12.1501

>  <SCORE.INTRA.DIHEDRAL>
-16.8665

>  <SCORE.INTRA.DIHEDRAL.0>
48.7173

>  <SCORE.INTRA.POLAR>
-2.05936

>  <SCORE.INTRA.POLAR.0>
-1.54691

>  <SCORE.INTRA.REPUL>
0

>  <SCORE.INTRA.REPUL.0>
0

>  <SCORE.INTRA.SOLV>
2.54846

>  <SCORE.INTRA.SOLV.lig_0>
-64.052

>  <SCORE.INTRA.VDW>
2.01076

>  <SCORE.INTRA.VDW.0>
-7.0667

>  <SCORE.INTRA.norm>
-0.289288

>  <SCORE.RESTR>
0.588108

>  <SCORE.RESTR.CAVITY>
0.588108

>  <SCORE.RESTR.norm>
0.0140026

>  <SCORE.SYSTEM>
0

>  <SCORE.SYSTEM.CONST>
0

>  <SCORE.SYSTEM.DIHEDRAL>
0

>  <SCORE.SYSTEM.SOLV>
0

>  <SCORE.SYSTEM.norm>
0

>  <SCORE.heavy>
42

>  <SCORE.norm>
-1.05836

>  <RMSD>
4.203

$$$$
1fyp_lig
 OpenBabel11021811393D
libRbt.so/2013.1/901 2013/11/27
 42 45  0  0  0  0  0  0  0  0999 V2000
    8.1339    6.4494   28.1828 C   0  0  2  0  0  0  0  0  0  0  0  0
    7.7241    7.6559   27.4764 O   0  0  0  0  0  0  0  0  0  0  0  0
    6.9935    9.2947   23.6007 C   0  0  2  0  0  0  0  0  0  0  0  0
    7.0016    9.6548   22.1707 N   0  0  0  0  0  0  0  0  0  0  0  0
    4.9929    5.5572   25.9438 C   0  0  1  0  0  0  0  0  0  0  0  0
    2.4663    4.0707   26.9657 C   0  0  1  0  0  0  0  0  0  0  0  0
    7.7955    6.5351   29.7060 C   0  0  2  0  0  0  0  0  0  0  0  0
    6.3851    6.9228   29.9210 N   0  0  0  0  0  0  0  0  0  0  0  0
    8.4060    9.4904   24.1869 C   0  0  0  0  0  0  0  0  0  0  0  0
    4.3605    6.6939   26.7512 C   0  0  2  0  0  0  0  0  0  0  0  0
    4.6789    6.5316   28.1338 O   0  0  0  0  0  0  0  0  0  0  0  0
    1.0907    3.3380   26.9189 C   0  0  2  0  0  0  0  0  0  0  0  0
    0.2736    3.5785   28.1333 N   0  0  0  0  0  0  0  0  0  0  0  0
    8.7487    7.5353   30.4320 C   0  0  1  0  0  0  0  0  0  0  0  0
    8.5345    7.4844   31.8403 O   0  0  0  0  0  0  0  0  0  0  0  0
    8.4653    9.1544   25.7021 C   0  0  2  0  0  0  0  0  0  0  0  0
    9.8691    9.2960   26.1413 N   0  0  0  0  0  0  0  0  0  0  0  0
    2.8681    6.4686   26.4941 C   0  0  2  0  0  0  0  0  0  0  0  0
    2.3152    5.4540   27.3781 O   0  0  0  0  0  0  0  0  0  0  0  0
    1.2824    1.8124   26.6571 C   0  0  1  0  0  0  0  0  0  0  0  0
    1.6572    1.6299   25.2933 O   0  0  0  0  0  0  0  0  0  0  0  0
   10.2388    7.2201   30.1486 C   0  0  2  0  0  0  0  0  0  0  0  0
   11.0498    8.2189   30.7596 O   0  0  0  0  0  0  0  0  0  0  0  0
    7.9019    7.7255   26.0325 C   0  0  2  0  0  0  0  0  0  0  0  0
    2.8625    5.9780   25.0395 C   0  0  2  0  0  0  0  0  0  0  0  0
    4.0990    5.2607   24.8590 O   0  0  0  0  0  0  0  0  0  0  0  0
    2.3674    1.1440   27.5547 C   0  0  2  0  0  0  0  0  0  0  0  0
    1.8501    1.0261   28.8810 O   0  0  0  0  0  0  0  0  0  0  0  0
   10.4978    7.1668   28.6161 C   0  0  2  0  0  0  0  0  0  0  0  0
    9.5720    6.2169   28.0074 O   0  0  0  0  0  0  0  0  0  0  0  0
    6.5300    7.4303   25.3247 C   0  0  2  0  0  0  0  0  0  0  0  0
    6.2733    6.0047   25.4145 O   0  0  0  0  0  0  0  0  0  0  0  0
    2.7616    7.1239   24.0170 C   0  0  0  0  0  0  0  0  0  0  0  0
    1.8500    6.7986   22.9822 O   0  0  0  0  0  0  0  0  0  0  0  0
    3.6788    1.9893   27.5610 C   0  0  1  0  0  0  0  0  0  0  0  0
    3.3666    3.3764   27.8945 O   0  0  0  0  0  0  0  0  0  0  0  0
   11.9202    6.7176   28.2138 C   0  0  0  0  0  0  0  0  0  0  0  0
   11.9709    6.3262   26.8523 O   0  0  0  0  0  0  0  0  0  0  0  0
    6.5225    7.8365   23.8182 C   0  0  1  0  0  0  0  0  0  0  0  0
    5.1970    7.6922   23.3103 O   0  0  0  0  0  0  0  0  0  0  0  0
    4.7315    1.4527   28.5645 C   0  0  0  0  0  0  0  0  0  0  0  0
    5.8990    2.3443   28.6865 N   0  0  0  0  0  0  0  0  0  0  0  0
  1  2  1  6  0  0  0
  1  7  1  0  0  0  0
  1 30  1  0  0  0  0
  3  4  1  6  0  0  0
  3  9  1  0  0  0  0
  3 39  1  0  0  0  0
  5 10  1  0  0  0  0
  5 26  1  0  0  0  0
  5 32  1  6  0  0  0
  6 12  1  0  0  0  0
  6 36  1  0  0  0  0
  6 19  1  1  0  0  0
  7  8  1  6  0  0  0
  7 14  1  0  0  0  0
  9 16  1  0  0  0  0
 10 11  1  1  0  0  0
 10 18  1  0  0  0  0
 12 13  1  1  0  0  0
 12 20  1  0  0  0  0
 14 15  1  1  0  0  0
 14 22  1  0  0  0  0
 16 17  1  6  0  0  0
 16 24  1  0  0  0  0
 18 19  1  1  0  0  0
 18 25  1  0  0  0  0
 20 21  1  6  0  0  0
 20 27  1  0  0  0  0
 22 23  1  1  0  0  0
 22 29  1  0  0  0  0
 24  2  1  1  0  0  0
 24 31  1  0  0  0  0
 25 26  1  0  0  0  0
 25 33  1  6  0  0  0
 27 28  1  1  0  0  0
 27 35  1  0  0  0  0
 29 30  1  0  0  0  0
 29 37  1  1  0  0  0
 31 32  1  6  0  0  0
 31 39  1  0  0  0  0
 33 34  1  0  0  0  0
 35 36  1  0  0  0  0
 35 41  1  1  0  0  0
 37 38  1  0  0  0  0
 39 40  1  1  0  0  0
 41 42  1  0  0  0  0
M  END
>  <CHROM.1>
-177.00101561,-136.99562013,29.94702247,-60.05314585,177.20140506,-70.51642811
63.61073618,-176.95161609,-84.36216985,-125.29190102,-57.72289986,174.68145134
-136.93820864,176.52098125,163.17529327,127.91652040,-19.73097258,41.27630399
-173.05332672,-54.58014692,163.92002848,-161.62897413,5.83917203,5.93061622
26.93392416,-0.21303813,0.51988001,2.20313216

>  <Name>
1fyp_lig

>  <RI>
0

>  <Rbt.Current_Directory>
/home/itssahil/PROJECTS/Mol_Feturizer/New_Systems/rnas/1fyp

>  <Rbt.Executable>
rbdock ($Id: //depot/dev/client3/rdock/2013.1/src/exe/rbdock.cxx#4 $)

>  <Rbt.Library>
libRbt.so (2013.1, Build901 2013/11/27)

>  <Rbt.Parameter_File>
/export/apps/rDock/src/rDock_2013.1_src/data/scripts/dock_solv.prm

>  <Rbt.Receptor>
prm/pocket_docking_3.prm

>  <SCORE>
-29.0875

>  <SCORE.INTER>
-33.4012

>  <SCORE.INTER.CONST>
1

>  <SCORE.INTER.POLAR>
-4.19571

>  <SCORE.INTER.ROT>
14

>  <SCORE.INTER.SOLV>
19.6741

>  <SCORE.INTER.VDW>
-27.7731

>  <SCORE.INTER.norm>
-0.795266

>  <SCORE.INTRA>
4.21532

>  <SCORE.INTRA.DIHEDRAL>
-9.55356

>  <SCORE.INTRA.DIHEDRAL.0>
48.7173

>  <SCORE.INTRA.POLAR>
0.495376

>  <SCORE.INTRA.POLAR.0>
-1.54691

>  <SCORE.INTRA.REPUL>
0

>  <SCORE.INTRA.REPUL.0>
0

>  <SCORE.INTRA.SOLV>
0.660583

>  <SCORE.INTRA.SOLV.lig_0>
-64.052

>  <SCORE.INTRA.VDW>
6.97753

>  <SCORE.INTRA.VDW.0>
-7.0667

>  <SCORE.INTRA.norm>
0.100365

>  <SCORE.RESTR>
0.0983381

>  <SCORE.RESTR.CAVITY>
0.0983381

>  <SCORE.RESTR.norm>
0.00234138

>  <SCORE.SYSTEM>
0

>  <SCORE.SYSTEM.CONST>
0

>  <SCORE.SYSTEM.DIHEDRAL>
0

>  <SCORE.SYSTEM.SOLV>
0

>  <SCORE.SYSTEM.norm>
0

>  <SCORE.heavy>
42

>  <SCORE.norm>
-0.69256

>  <RMSD>
4.211

$$$$
1fyp_lig
 OpenBabel11021811393D
libRbt.so/2013.1/901 2013/11/27
 42 45  0  0  0  0  0  0  0  0999 V2000
    4.2845    8.1641   27.2321 C   0  0  2  0  0  0  0  0  0  0  0  0
    4.6979    6.9604   27.9411 O   0  0  0  0  0  0  0  0  0  0  0  0
    8.7377    6.8084   26.5635 C   0  0  2  0  0  0  0  0  0  0  0  0
   10.2001    6.6870   26.4183 N   0  0  0  0  0  0  0  0  0  0  0  0
    4.6932    3.8737   27.2033 C   0  0  1  0  0  0  0  0  0  0  0  0
    1.2424    1.1943   26.2855 C   0  0  1  0  0  0  0  0  0  0  0  0
    2.7576    8.1370   26.9002 C   0  0  2  0  0  0  0  0  0  0  0  0
    1.9533    7.8254   28.1009 N   0  0  0  0  0  0  0  0  0  0  0  0
    8.4153    7.8317   27.6706 C   0  0  0  0  0  0  0  0  0  0  0  0
    4.6768    2.3579   26.9893 C   0  0  2  0  0  0  0  0  0  0  0  0
    4.8461    2.0702   25.6008 O   0  0  0  0  0  0  0  0  0  0  0  0
    1.0052    0.8310   24.7879 C   0  0  2  0  0  0  0  0  0  0  0  0
    0.8775    2.0290   23.9225 N   0  0  0  0  0  0  0  0  0  0  0  0
    2.4537    7.1112   25.7637 C   0  0  1  0  0  0  0  0  0  0  0  0
    1.0894    7.2113   25.3630 O   0  0  0  0  0  0  0  0  0  0  0  0
    6.8866    8.0309   27.8599 C   0  0  2  0  0  0  0  0  0  0  0  0
    6.6893    8.9623   28.9901 N   0  0  0  0  0  0  0  0  0  0  0  0
    3.2693    1.9890   27.4660 C   0  0  2  0  0  0  0  0  0  0  0  0
    2.2737    2.2056   26.4276 O   0  0  0  0  0  0  0  0  0  0  0  0
   -0.2262   -0.1140   24.6337 C   0  0  1  0  0  0  0  0  0  0  0  0
    0.1359   -1.4109   25.1033 O   0  0  0  0  0  0  0  0  0  0  0  0
    3.3502    7.3446   24.5219 C   0  0  2  0  0  0  0  0  0  0  0  0
    3.0909    6.3241   23.5627 O   0  0  0  0  0  0  0  0  0  0  0  0
    6.1193    6.6793   28.0894 C   0  0  2  0  0  0  0  0  0  0  0  0
    3.0570    2.9673   28.6298 C   0  0  2  0  0  0  0  0  0  0  0  0
    3.7916    4.1579   28.2850 O   0  0  0  0  0  0  0  0  0  0  0  0
   -1.4895    0.3536   25.4180 C   0  0  2  0  0  0  0  0  0  0  0  0
   -2.0524    1.4795   24.7427 O   0  0  0  0  0  0  0  0  0  0  0  0
    4.8506    7.3431   24.9308 C   0  0  2  0  0  0  0  0  0  0  0  0
    5.0574    8.3205   25.9947 O   0  0  0  0  0  0  0  0  0  0  0  0
    6.5368    5.5583   27.0701 C   0  0  2  0  0  0  0  0  0  0  0  0
    6.0405    4.2883   27.5674 O   0  0  0  0  0  0  0  0  0  0  0  0
    3.5486    2.4146   29.9795 C   0  0  0  0  0  0  0  0  0  0  0  0
    3.1729    3.2718   31.0433 O   0  0  0  0  0  0  0  0  0  0  0  0
   -1.1209    0.7345   26.8855 C   0  0  1  0  0  0  0  0  0  0  0  0
   -0.0080    1.6800   26.8821 O   0  0  0  0  0  0  0  0  0  0  0  0
    5.8326    7.7104   23.7959 C   0  0  0  0  0  0  0  0  0  0  0  0
    5.5270    8.9784   23.2409 O   0  0  0  0  0  0  0  0  0  0  0  0
    8.0825    5.4446   26.8897 C   0  0  1  0  0  0  0  0  0  0  0  0
    8.3551    4.5290   25.8300 O   0  0  0  0  0  0  0  0  0  0  0  0
   -2.3114    1.3576   27.6587 C   0  0  0  0  0  0  0  0  0  0  0  0
   -2.0979    1.3567   29.1172 N   0  0  0  0  0  0  0  0  0  0  0  0
  1  2  1  6  0  0  0
  1  7  1  0  0  0  0
  1 30  1  0  0  0  0
  3  4  1  1  0  0  0
  3  9  1  0  0  0  0
  3 39  1  0  0  0  0
  5 10  1  0  0  0  0
  5 26  1  0  0  0  0
  5 32  1  1  0  0  0
  6 12  1  0  0  0  0
  6 36  1  0  0  0  0
  6 19  1  6  0  0  0
  7  8  1  1  0  0  0
  7 14  1  0  0  0  0
  9 16  1  0  0  0  0
 10 11  1  6  0  0  0
 10 18  1  0  0  0  0
 12 13  1  6  0  0  0
 12 20  1  0  0  0  0
 14 15  1  6  0  0  0
 14 22  1  0  0  0  0
 16 17  1  1  0  0  0
 16 24  1  0  0  0  0
 18 19  1  6  0  0  0
 18 25  1  0  0  0  0
 20 21  1  1  0  0  0
 20 27  1  0  0  0  0
 22 23  1  6  0  0  0
 22 29  1  0  0  0  0
 24  2  1  6  0  0  0
 24 31  1  0  0  0  0
 25 26  1  0  0  0  0
 25 33  1  1  0  0  0
 27 28  1  6  0  0  0
 27 35  1  0  0  0  0
 29 30  1  0  0  0  0
 29 37  1  6  0  0  0
 31 32  1  1  0  0  0
 31 39  1  0  0  0  0
 33 34  1  0  0  0  0
 35 36  1  0  0  0  0
 35 41  1  6  0  0  0
 37 38  1  0  0  0  0
 39 40  1  6  0  0  0
 41 42  1  0  0  0  0
M  END
>  <CHROM.1>
167.43617130,19.50202562,128.21304948,-79.33694731,-64.27693031,45.44247534
-44.32940310,-61.52811593,138.75430293,-135.28070231,-168.05581456,-59.92628568
-172.24051941,63.30596165,56.69153481,87.95061454,143.35671650,-174.73902029
163.45329729,-176.77673595,78.89969217,176.92985727,3.51408702,4.54482164
26.58922469,0.59976771,-0.45225225,-0.52142114

>  <Name>
1fyp_lig

>  <RI>
0

>  <Rbt.Current_Directory>
/home/itssahil/PROJECTS/Mol_Feturizer/New_Systems/rnas/1fyp

>  <Rbt.Executable>
rbdock ($Id: //depot/dev/client3/rdock/2013.1/src/exe/rbdock.cxx#4 $)

>  <Rbt.Library>
libRbt.so (2013.1, Build901 2013/11/27)

>  <Rbt.Parameter_File>
/export/apps/rDock/src/rDock_2013.1_src/data/scripts/dock_solv.prm

>  <Rbt.Receptor>
prm/pocket_docking_6.prm

>  <SCORE>
-24.0565

>  <SCORE.INTER>
-26.9261

>  <SCORE.INTER.CONST>
1

>  <SCORE.INTER.POLAR>
-6.49446

>  <SCORE.INTER.ROT>
14

>  <SCORE.INTER.SOLV>
25.4553

>  <SCORE.INTER.VDW>
-17.721

>  <SCORE.INTER.norm>
-0.641098

>  <SCORE.INTRA>
2.6789

>  <SCORE.INTRA.DIHEDRAL>
-14.0485

>  <SCORE.INTRA.DIHEDRAL.0>
48.7173

>  <SCORE.INTRA.POLAR>
1.30065

>  <SCORE.INTRA.POLAR.0>
-1.54691

>  <SCORE.INTRA.REPUL>
0.603396

>  <SCORE.INTRA.REPUL.0>
0

>  <SCORE.INTRA.SOLV>
-3.455

>  <SCORE.INTRA.SOLV.lig_0>
-64.052

>  <SCORE.INTRA.VDW>
3.99146

>  <SCORE.INTRA.VDW.0>
-7.0667

>  <SCORE.INTRA.norm>
0.0637832

>  <SCORE.RESTR>
0.190755

>  <SCORE.RESTR.CAVITY>
0.190755

>  <SCORE.RESTR.norm>
0.0045418

>  <SCORE.SYSTEM>
0

>  <SCORE.SYSTEM.CONST>
0

>  <SCORE.SYSTEM.DIHEDRAL>
0

>  <SCORE.SYSTEM.SOLV>
0

>  <SCORE.SYSTEM.norm>
0

>  <SCORE.heavy>
42

>  <SCORE.norm>
-0.572773

>  <RMSD>
4.242

$$$$
1fyp_lig
 OpenBabel11021811393D
libRbt.so/2013.1/901 2013/11/27
 42 45  0  0  0  0  0  0  0  0999 V2000
    3.4603    5.4068   29.6066 C   0  0  2  0  0  0  0  0  0  0  0  0
    4.3671    4.6821   28.7263 O   0  0  0  0  0  0  0  0  0  0  0  0
    4.2360    7.6338   25.6422 C   0  0  2  0  0  0  0  0  0  0  0  0
    4.5039    8.5309   24.5030 N   0  0  0  0  0  0  0  0  0  0  0  0
    2.6273    3.0381   25.9115 C   0  0  1  0  0  0  0  0  0  0  0  0
   -0.1150   -0.4583   25.4822 C   0  0  1  0  0  0  0  0  0  0  0  0
    3.8662    5.2430   31.1068 C   0  0  2  0  0  0  0  0  0  0  0  0
    5.2975    5.5515   31.3118 N   0  0  0  0  0  0  0  0  0  0  0  0
    5.3909    7.7363   26.6584 C   0  0  0  0  0  0  0  0  0  0  0  0
    2.8792    1.7135   25.1864 C   0  0  2  0  0  0  0  0  0  0  0  0
    2.4480    1.8229   23.8293 O   0  0  0  0  0  0  0  0  0  0  0  0
   -0.6219   -0.7712   24.0413 C   0  0  2  0  0  0  0  0  0  0  0  0
   -1.2845    0.3925   23.4032 N   0  0  0  0  0  0  0  0  0  0  0  0
    3.5443    3.8032   31.6160 C   0  0  1  0  0  0  0  0  0  0  0  0
    3.7705    3.7164   33.0206 O   0  0  0  0  0  0  0  0  0  0  0  0
    5.1612    6.8347   27.9021 C   0  0  2  0  0  0  0  0  0  0  0  0
    6.3546    6.9452   28.7665 N   0  0  0  0  0  0  0  0  0  0  0  0
    1.9900    0.7494   25.9764 C   0  0  2  0  0  0  0  0  0  0  0  0
    0.6070    0.7999   25.5275 O   0  0  0  0  0  0  0  0  0  0  0  0
   -1.5507   -2.0244   24.0388 C   0  0  1  0  0  0  0  0  0  0  0  0
   -0.7454   -3.1859   24.2286 O   0  0  0  0  0  0  0  0  0  0  0  0
    2.0749    3.4053   31.3282 C   0  0  2  0  0  0  0  0  0  0  0  0
    1.8717    2.0541   31.7302 O   0  0  0  0  0  0  0  0  0  0  0  0
    4.8626    5.3392   27.5245 C   0  0  2  0  0  0  0  0  0  0  0  0
    2.1138    1.2954   27.4057 C   0  0  2  0  0  0  0  0  0  0  0  0
    2.2928    2.7187   27.2716 O   0  0  0  0  0  0  0  0  0  0  0  0
   -2.6480   -2.0054   25.1459 C   0  0  2  0  0  0  0  0  0  0  0  0
   -3.6465   -1.0519   24.7793 O   0  0  0  0  0  0  0  0  0  0  0  0
    1.7537    3.5810   29.8168 C   0  0  2  0  0  0  0  0  0  0  0  0
    2.0811    4.9449   29.4137 O   0  0  0  0  0  0  0  0  0  0  0  0
    3.7968    5.1989   26.3781 C   0  0  2  0  0  0  0  0  0  0  0  0
    3.8448    3.8360   25.8814 O   0  0  0  0  0  0  0  0  0  0  0  0
    3.2926    0.6849   28.1844 C   0  0  0  0  0  0  0  0  0  0  0  0
    3.2073    1.0044   29.5622 O   0  0  0  0  0  0  0  0  0  0  0  0
   -2.0316   -1.6349   26.5305 C   0  0  1  0  0  0  0  0  0  0  0  0
   -1.2534   -0.4054   26.4078 O   0  0  0  0  0  0  0  0  0  0  0  0
    0.2739    3.3508   29.4371 C   0  0  0  0  0  0  0  0  0  0  0  0
   -0.0074    3.8450   28.1386 O   0  0  0  0  0  0  0  0  0  0  0  0
    4.0580    6.1667   25.1824 C   0  0  1  0  0  0  0  0  0  0  0  0
    2.9556    6.0896   24.2799 O   0  0  0  0  0  0  0  0  0  0  0  0
   -3.1059   -1.4456   27.6320 C   0  0  0  0  0  0  0  0  0  0  0  0
   -2.5950   -0.6961   28.7940 N   0  0  0  0  0  0  0  0  0  0  0  0
  1  2  1  6  0  0  0
  1  7  1  0  0  0  0
  1 30  1  0  0  0  0
  3  4  1  6  0  0  0
  3  9  1  0  0  0  0
  3 39  1  0  0  0  0
  5 10  1  0  0  0  0
  5 26  1  0  0  0  0
  5 32  1  1  0  0  0
  6 12  1  0  0  0  0
  6 36  1  0  0  0  0
  6 19  1  6  0  0  0
  7  8  1  6  0  0  0
  7 14  1  0  0  0  0
  9 16  1  0  0  0  0
 10 11  1  6  0  0  0
 10 18  1  0  0  0  0
 12 13  1  1  0  0  0
 12 20  1  0  0  0  0
 14 15  1  1  0  0  0
 14 22  1  0  0  0  0
 16 17  1  1  0  0  0
 16 24  1  0  0  0  0
 18 19  1  6  0  0  0
 18 25  1  0  0  0  0
 20 21  1  1  0  0  0
 20 27  1  0  0  0  0
 22 23  1  6  0  0  0
 22 29  1  0  0  0  0
 24  2  1  1  0  0  0
 24 31  1  0  0  0  0
 25 26  1  0  0  0  0
 25 33  1  6  0  0  0
 27 28  1  6  0  0  0
 27 35  1  0  0  0  0
 29 30  1  0  0  0  0
 29 37  1  1  0  0  0
 31 32  1  6  0  0  0
 31 39  1  0  0  0  0
 33 34  1  0  0  0  0
 35 36  1  0  0  0  0
 35 41  1  1  0  0  0
 37 38  1  0  0  0  0
 39 40  1  6  0  0  0
 41 42  1  0  0  0  0
M  END
>  <CHROM.1>
-134.79398827,39.50410483,-162.40043700,-9.02183212,-178.22589308,43.49733754
-176.69247454,-45.82856267,141.80407806,-120.56153877,-60.11459550,-61.16941815
-168.08523960,-178.31846988,165.35170626,122.79576380,173.11253934,-168.44017308
-161.77026658,50.90668207,-178.55760179,-46.40767320,1.87585166,2.70973515
27.32292204,0.23553755,0.88936531,1.68091409

>  <Name>
1fyp_lig

>  <RI>
0

>  <Rbt.Current_Directory>
/home/itssahil/PROJECTS/Mol_Feturizer/New_Systems/rnas/1fyp

>  <Rbt.Executable>
rbdock ($Id: //depot/dev/client3/rdock/2013.1/src/exe/rbdock.cxx#4 $)

>  <Rbt.Library>
libRbt.so (2013.1, Build901 2013/11/27)

>  <Rbt.Parameter_File>
/export/apps/rDock/src/rDock_2013.1_src/data/scripts/dock_solv.prm

>  <Rbt.Receptor>
prm/pocket_docking_6.prm

>  <SCORE>
-46.2364

>  <SCORE.INTER>
-36.0499

>  <SCORE.INTER.CONST>
1

>  <SCORE.INTER.POLAR>
-4.15223

>  <SCORE.INTER.ROT>
14

>  <SCORE.INTER.SOLV>
15.0007

>  <SCORE.INTER.VDW>
-28.126

>  <SCORE.INTER.norm>
-0.858331

>  <SCORE.INTRA>
-10.1865

>  <SCORE.INTRA.DIHEDRAL>
-13.4565

>  <SCORE.INTRA.DIHEDRAL.0>
48.7173

>  <SCORE.INTRA.POLAR>
-1.4412

>  <SCORE.INTRA.POLAR.0>
-1.54691

>  <SCORE.INTRA.REPUL>
0

>  <SCORE.INTRA.REPUL.0>
0

>  <SCORE.INTRA.SOLV>
0.244153

>  <SCORE.INTRA.SOLV.lig_0>
-64.052

>  <SCORE.INTRA.VDW>
1.31973

>  <SCORE.INTRA.VDW.0>
-7.0667

>  <SCORE.INTRA.norm>
-0.242536

>  <SCORE.RESTR>
0

>  <SCORE.RESTR.CAVITY>
0

>  <SCORE.RESTR.norm>
0

>  <SCORE.SYSTEM>
0

>  <SCORE.SYSTEM.CONST>
0

>  <SCORE.SYSTEM.DIHEDRAL>
0

>  <SCORE.SYSTEM.SOLV>
0

>  <SCORE.SYSTEM.norm>
0

>  <SCORE.heavy>
42

>  <SCORE.norm>
-1.10087

>  <RMSD>
4.286

$$$$
1fyp_lig
 OpenBabel11021811393D
libRbt.so/2013.1/901 2013/11/27
 42 45  0  0  0  0  0  0  0  0999 V2000
    3.8176    7.8878   27.1284 C   0  0  2  0  0  0  0  0  0  0  0  0
    3.0198    6.7104   26.8130 O   0  0  0  0  0  0  0  0  0  0  0  0
    4.0893    4.6960   30.4239 C   0  0  2  0  0  0  0  0  0  0  0  0
    4.1703    3.8227   31.6094 N   0  0  0  0  0  0  0  0  0  0  0  0
    2.9849    3.3178   26.2511 C   0  0  1  0  0  0  0  0  0  0  0  0
    0.1792    0.1734   24.7773 C   0  0  1  0  0  0  0  0  0  0  0  0
    4.0446    8.7805   25.8660 C   0  0  2  0  0  0  0  0  0  0  0  0
    2.7687    9.0703   25.1777 N   0  0  0  0  0  0  0  0  0  0  0  0
    2.7156    5.3952   30.3948 C   0  0  0  0  0  0  0  0  0  0  0  0
    3.3028    1.9424   25.6586 C   0  0  2  0  0  0  0  0  0  0  0  0
    3.4128    2.0485   24.2387 O   0  0  0  0  0  0  0  0  0  0  0  0
   -1.1081    0.5717   23.9928 C   0  0  2  0  0  0  0  0  0  0  0  0
   -1.8464    1.6867   24.6346 N   0  0  0  0  0  0  0  0  0  0  0  0
    5.0499    8.1056   24.8811 C   0  0  1  0  0  0  0  0  0  0  0  0
    5.3686    8.9975   23.8160 O   0  0  0  0  0  0  0  0  0  0  0  0
    2.5703    6.3553   29.1826 C   0  0  2  0  0  0  0  0  0  0  0  0
    1.1994    6.9063   29.2049 N   0  0  0  0  0  0  0  0  0  0  0  0
    2.0665    1.1339   26.0616 C   0  0  2  0  0  0  0  0  0  0  0  0
    0.9613    1.3415   25.1385 O   0  0  0  0  0  0  0  0  0  0  0  0
   -2.0303   -0.6670   23.7729 C   0  0  1  0  0  0  0  0  0  0  0  0
   -1.4376   -1.5031   22.7814 O   0  0  0  0  0  0  0  0  0  0  0  0
    6.3648    7.6960   25.5908 C   0  0  2  0  0  0  0  0  0  0  0  0
    7.1976    7.0053   24.6645 O   0  0  0  0  0  0  0  0  0  0  0  0
    2.8863    5.6578   27.8108 C   0  0  2  0  0  0  0  0  0  0  0  0
    1.7347    1.7196   27.4412 C   0  0  2  0  0  0  0  0  0  0  0  0
    2.1395    3.1015   27.3923 O   0  0  0  0  0  0  0  0  0  0  0  0
   -2.2645   -1.5217   25.0553 C   0  0  2  0  0  0  0  0  0  0  0  0
   -3.1440   -0.8058   25.9239 O   0  0  0  0  0  0  0  0  0  0  0  0
    6.0568    6.7998   26.8238 C   0  0  2  0  0  0  0  0  0  0  0  0
    5.1123    7.4925   27.6945 O   0  0  0  0  0  0  0  0  0  0  0  0
    4.2063    4.8057   27.8476 C   0  0  2  0  0  0  0  0  0  0  0  0
    4.2254    3.9518   26.6741 O   0  0  0  0  0  0  0  0  0  0  0  0
    2.4568    0.9972   28.5925 C   0  0  0  0  0  0  0  0  0  0  0  0
    3.8627    1.0748   28.4346 O   0  0  0  0  0  0  0  0  0  0  0  0
   -0.9139   -1.8160   25.7791 C   0  0  1  0  0  0  0  0  0  0  0  0
   -0.1885   -0.5665   25.9908 O   0  0  0  0  0  0  0  0  0  0  0  0
    7.2845    6.4489   27.6936 C   0  0  0  0  0  0  0  0  0  0  0  0
    6.8939    5.8549   28.9200 O   0  0  0  0  0  0  0  0  0  0  0  0
    4.3118    3.9012   29.1146 C   0  0  1  0  0  0  0  0  0  0  0  0
    5.6065    3.3024   29.1449 O   0  0  0  0  0  0  0  0  0  0  0  0
   -1.1090   -2.5250   27.1438 C   0  0  0  0  0  0  0  0  0  0  0  0
   -1.9927   -1.7692   28.0499 N   0  0  0  0  0  0  0  0  0  0  0  0
  1  2  1  6  0  0  0
  1  7  1  0  0  0  0
  1 30  1  0  0  0  0
  3  4  1  1  0  0  0
  3  9  1  0  0  0  0
  3 39  1  0  0  0  0
  5 10  1  0  0  0  0
  5 26  1  0  0  0  0
  5 32  1  1  0  0  0
  6 12  1  0  0  0  0
  6 36  1  0  0  0  0
  6 19  1  1  0  0  0
  7  8  1  6  0  0  0
  7 14  1  0  0  0  0
  9 16  1  0  0  0  0
 10 11  1  6  0  0  0
 10 18  1  0  0  0  0
 12 13  1  1  0  0  0
 12 20  1  0  0  0  0
 14 15  1  6  0  0  0
 14 22  1  0  0  0  0
 16 17  1  6  0  0  0
 16 24  1  0  0  0  0
 18 19  1  6  0  0  0
 18 25  1  0  0  0  0
 20 21  1  6  0  0  0
 20 27  1  0  0  0  0
 22 23  1  6  0  0  0
 22 29  1  0  0  0  0
 24  2  1  6  0  0  0
 24 31  1  0  0  0  0
 25 26  1  0  0  0  0
 25 33  1  1  0  0  0
 27 28  1  1  0  0  0
 27 35  1  0  0  0  0
 29 30  1  0  0  0  0
 29 37  1  1  0  0  0
 31 32  1  6  0  0  0
 31 39  1  0  0  0  0
 33 34  1  0  0  0  0
 35 36  1  0  0  0  0
 35 41  1  1  0  0  0
 37 38  1  0  0  0  0
 39 40  1  1  0  0  0
 41 42  1  0  0  0  0
M  END
>  <CHROM.1>
170.27423678,45.85208573,148.99190046,-178.21393951,105.69470187,-64.58736415
57.28495307,-22.10632836,139.17240562,170.03846003,75.05371975,-49.75767930
59.72436476,85.73317221,168.80663460,-40.33474241,-145.99438392,-65.79971982
-55.91326859,-43.56313422,-60.47251231,-95.68195654,2.53737918,3.50925435
26.74765250,0.26248347,-0.88000461,-1.03887645

>  <Name>
1fyp_lig

>  <RI>
0

>  <Rbt.Current_Directory>
/home/itssahil/PROJECTS/Mol_Feturizer/New_Systems/rnas/1fyp

>  <Rbt.Executable>
rbdock ($Id: //depot/dev/client3/rdock/2013.1/src/exe/rbdock.cxx#4 $)

>  <Rbt.Library>
libRbt.so (2013.1, Build901 2013/11/27)

>  <Rbt.Parameter_File>
/export/apps/rDock/src/rDock_2013.1_src/data/scripts/dock_solv.prm

>  <Rbt.Receptor>
prm/blind_docking_60.prm

>  <SCORE>
-54.3443

>  <SCORE.INTER>
-51.0899

>  <SCORE.INTER.CONST>
1

>  <SCORE.INTER.POLAR>
-7.02969

>  <SCORE.INTER.ROT>
14

>  <SCORE.INTER.SOLV>
18.3829

>  <SCORE.INTER.VDW>
-29.6886

>  <SCORE.INTER.norm>
-1.21643

>  <SCORE.INTRA>
-3.35959

>  <SCORE.INTRA.DIHEDRAL>
-18.2355

>  <SCORE.INTRA.DIHEDRAL.0>
48.7173

>  <SCORE.INTRA.POLAR>
0.181655

>  <SCORE.INTRA.POLAR.0>
-1.54691

>  <SCORE.INTRA.REPUL>
0

>  <SCORE.INTRA.REPUL.0>
0

>  <SCORE.INTRA.SOLV>
1.78734

>  <SCORE.INTRA.SOLV.lig_0>
-64.052

>  <SCORE.INTRA.VDW>
4.24685

>  <SCORE.INTRA.VDW.0>
-7.0667

>  <SCORE.INTRA.norm>
-0.0799902

>  <SCORE.RESTR>
0.105182

>  <SCORE.RESTR.CAVITY>
0.105182

>  <SCORE.RESTR.norm>
0.00250434

>  <SCORE.SYSTEM>
0

>  <SCORE.SYSTEM.CONST>
0

>  <SCORE.SYSTEM.DIHEDRAL>
0

>  <SCORE.SYSTEM.SOLV>
0

>  <SCORE.SYSTEM.norm>
0

>  <SCORE.heavy>
42

>  <SCORE.norm>
-1.29391

>  <RMSD>
4.303

$$$$
1fyp_lig
 OpenBabel11021811393D
libRbt.so/2013.1/901 2013/11/27
 42 45  0  0  0  0  0  0  0  0999 V2000
    4.3662    8.4490   25.2006 C   0  0  2  0  0  0  0  0  0  0  0  0
    3.8942    7.0768   25.0711 O   0  0  0  0  0  0  0  0  0  0  0  0
    2.9953    6.4816   29.2037 C   0  0  2  0  0  0  0  0  0  0  0  0
    2.4148    6.1033   30.5054 N   0  0  0  0  0  0  0  0  0  0  0  0
    3.3562    3.5503   25.9141 C   0  0  1  0  0  0  0  0  0  0  0  0
    0.5235    0.4158   25.2593 C   0  0  1  0  0  0  0  0  0  0  0  0
    3.8235    9.3523   24.0467 C   0  0  2  0  0  0  0  0  0  0  0  0
    2.3580    9.2184   23.9049 N   0  0  0  0  0  0  0  0  0  0  0  0
    1.9241    7.1903   28.3510 C   0  0  0  0  0  0  0  0  0  0  0  0
    3.9013    2.1568   25.5901 C   0  0  2  0  0  0  0  0  0  0  0  0
    4.1622    2.0603   24.1894 O   0  0  0  0  0  0  0  0  0  0  0  0
   -0.1989   -0.0520   23.9591 C   0  0  2  0  0  0  0  0  0  0  0  0
   -0.3414    1.0363   22.9613 N   0  0  0  0  0  0  0  0  0  0  0  0
    4.5311    9.0152   22.6969 C   0  0  1  0  0  0  0  0  0  0  0  0
    4.1437    9.9491   21.6921 O   0  0  0  0  0  0  0  0  0  0  0  0
    2.4757    7.6427   26.9714 C   0  0  2  0  0  0  0  0  0  0  0  0
    1.3559    8.2327   26.2088 N   0  0  0  0  0  0  0  0  0  0  0  0
    2.7310    1.2590   26.0008 C   0  0  2  0  0  0  0  0  0  0  0  0
    1.7238    1.1728   24.9545 O   0  0  0  0  0  0  0  0  0  0  0  0
   -1.5780   -0.7003   24.2922 C   0  0  1  0  0  0  0  0  0  0  0  0
   -1.3480   -1.9833   24.8708 O   0  0  0  0  0  0  0  0  0  0  0  0
    6.0742    9.0480   22.8314 C   0  0  2  0  0  0  0  0  0  0  0  0
    6.6572    8.6425   21.5967 O   0  0  0  0  0  0  0  0  0  0  0  0
    3.1596    6.4739   26.1749 C   0  0  2  0  0  0  0  0  0  0  0  0
    2.1742    1.9966   27.2265 C   0  0  2  0  0  0  0  0  0  0  0  0
    2.4155    3.3971   26.9890 O   0  0  0  0  0  0  0  0  0  0  0  0
   -2.4499    0.1314   25.2811 C   0  0  2  0  0  0  0  0  0  0  0  0
   -2.9600    1.2717   24.5881 O   0  0  0  0  0  0  0  0  0  0  0  0
    6.5357    8.1155   23.9871 C   0  0  2  0  0  0  0  0  0  0  0  0
    5.8330    8.4871   25.2110 O   0  0  0  0  0  0  0  0  0  0  0  0
    4.1481    5.6288   27.0574 C   0  0  2  0  0  0  0  0  0  0  0  0
    4.4554    4.4031   26.3434 O   0  0  0  0  0  0  0  0  0  0  0  0
    2.8379    1.5615   28.5451 C   0  0  0  0  0  0  0  0  0  0  0  0
    4.2361    1.7874   28.5053 O   0  0  0  0  0  0  0  0  0  0  0  0
   -1.6096    0.5826   26.5158 C   0  0  1  0  0  0  0  0  0  0  0  0
   -0.3870    1.2406   26.0631 O   0  0  0  0  0  0  0  0  0  0  0  0
    8.0458    8.1785   24.3077 C   0  0  0  0  0  0  0  0  0  0  0  0
    8.3722    9.3600   25.0197 O   0  0  0  0  0  0  0  0  0  0  0  0
    3.5506    5.2503   28.4481 C   0  0  1  0  0  0  0  0  0  0  0  0
    4.5715    4.6392   29.2356 O   0  0  0  0  0  0  0  0  0  0  0  0
   -2.3870    1.5466   27.4484 C   0  0  0  0  0  0  0  0  0  0  0  0
   -1.5721    2.0081   28.5868 N   0  0  0  0  0  0  0  0  0  0  0  0
  1  2  1  6  0  0  0
  1  7  1  0  0  0  0
  1 30  1  0  0  0  0
  3  4  1  1  0  0  0
  3  9  1  0  0  0  0
  3 39  1  0  0  0  0
  5 10  1  0  0  0  0
  5 26  1  0  0  0  0
  5 32  1  1  0  0  0
  6 12  1  0  0  0  0
  6 36  1  0  0  0  0
  6 19  1  6  0  0  0
  7  8  1  6  0  0  0
  7 14  1  0  0  0  0
  9 16  1  0  0  0  0
 10 11  1  6  0  0  0
 10 18  1  0  0  0  0
 12 13  1  6  0  0  0
 12 20  1  0  0  0  0
 14 15  1  6  0  0  0
 14 22  1  0  0  0  0
 16 17  1  6  0  0  0
 16 24  1  0  0  0  0
 18 19  1  6  0  0  0
 18 25  1  0  0  0  0
 20 21  1  1  0  0  0
 20 27  1  0  0  0  0
 22 23  1  6  0  0  0
 22 29  1  0  0  0  0
 24  2  1  6  0  0  0
 24 31  1  0  0  0  0
 25 26  1  0  0  0  0
 25 33  1  1  0  0  0
 27 28  1  6  0  0  0
 27 35  1  0  0  0  0
 29 30  1  0  0  0  0
 29 37  1  1  0  0  0
 31 32  1  6  0  0  0
 31 39  1  0  0  0  0
 33 34  1  0  0  0  0
 35 36  1  0  0  0  0
 35 41  1  1  0  0  0
 37 38  1  0  0  0  0
 39 40  1  1  0  0  0
 41 42  1  0  0  0  0
M  END
>  <CHROM.1>
-123.23403821,26.29831186,-60.79781422,171.62639435,-79.06531417,59.81707125
-60.54539261,-147.03845782,-176.25629531,-158.61960740,-174.86175066,66.26147487
58.94553912,-41.79370470,75.57163173,-55.29724434,-162.62467482,-177.21521779
-177.92022395,-176.45815274,67.92036174,-170.55668456,2.60280102,4.56378482
25.73880977,0.29723865,-0.90402406,-1.37524824

>  <Name>
1fyp_lig

>  <RI>
0

>  <Rbt.Current_Directory>
/home/itssahil/PROJECTS/Mol_Feturizer/New_Systems/rnas/1fyp

>  <Rbt.Executable>
rbdock ($Id: //depot/dev/client3/rdock/2013.1/src/exe/rbdock.cxx#4 $)

>  <Rbt.Library>
libRbt.so (2013.1, Build901 2013/11/27)

>  <Rbt.Parameter_File>
/export/apps/rDock/src/rDock_2013.1_src/data/scripts/dock_solv.prm

>  <Rbt.Receptor>
prm/pocket_docking_7.prm

>  <SCORE>
-58.5062

>  <SCORE.INTER>
-50.7392

>  <SCORE.INTER.CONST>
1

>  <SCORE.INTER.POLAR>
-7.06372

>  <SCORE.INTER.ROT>
14

>  <SCORE.INTER.SOLV>
22.6808

>  <SCORE.INTER.VDW>
-30.774

>  <SCORE.INTER.norm>
-1.20808

>  <SCORE.INTRA>
-7.80389

>  <SCORE.INTRA.DIHEDRAL>
-26.7662

>  <SCORE.INTRA.DIHEDRAL.0>
48.7173

>  <SCORE.INTRA.POLAR>
-0.0920088

>  <SCORE.INTRA.POLAR.0>
-1.54691

>  <SCORE.INTRA.REPUL>
0

>  <SCORE.INTRA.REPUL.0>
0

>  <SCORE.INTRA.SOLV>
0.0204113

>  <SCORE.INTRA.SOLV.lig_0>
-64.052

>  <SCORE.INTRA.VDW>
5.88183

>  <SCORE.INTRA.VDW.0>
-7.0667

>  <SCORE.INTRA.norm>
-0.185807

>  <SCORE.RESTR>
0.0369081

>  <SCORE.RESTR.CAVITY>
0.0369081

>  <SCORE.RESTR.norm>
0.000878763

>  <SCORE.SYSTEM>
0

>  <SCORE.SYSTEM.CONST>
0

>  <SCORE.SYSTEM.DIHEDRAL>
0

>  <SCORE.SYSTEM.SOLV>
0

>  <SCORE.SYSTEM.norm>
0

>  <SCORE.heavy>
42

>  <SCORE.norm>
-1.39301

>  <RMSD>
4.323

$$$$
1fyp_lig
 OpenBabel11021811393D
libRbt.so/2013.1/901 2013/11/27
 42 45  0  0  0  0  0  0  0  0999 V2000
    3.8241    8.4758   25.0674 C   0  0  2  0  0  0  0  0  0  0  0  0
    3.2810    7.1343   24.9010 O   0  0  0  0  0  0  0  0  0  0  0  0
    5.4647    5.0225   27.9031 C   0  0  2  0  0  0  0  0  0  0  0  0
    5.9051    4.1912   29.0386 N   0  0  0  0  0  0  0  0  0  0  0  0
    2.3927    3.6140   25.0289 C   0  0  1  0  0  0  0  0  0  0  0  0
   -0.2526    0.4841   25.1410 C   0  0  1  0  0  0  0  0  0  0  0  0
    3.4077    9.4123   23.8877 C   0  0  2  0  0  0  0  0  0  0  0  0
    1.9484    9.3657   23.6554 N   0  0  0  0  0  0  0  0  0  0  0  0
    4.4139    6.0403   28.3898 C   0  0  0  0  0  0  0  0  0  0  0  0
    2.5023    2.0900   25.1242 C   0  0  2  0  0  0  0  0  0  0  0  0
    2.0642    1.5025   23.8985 O   0  0  0  0  0  0  0  0  0  0  0  0
   -1.2371    0.7763   23.9676 C   0  0  2  0  0  0  0  0  0  0  0  0
   -2.3219    1.7123   24.3515 N   0  0  0  0  0  0  0  0  0  0  0  0
    4.1760    9.0371   22.5819 C   0  0  1  0  0  0  0  0  0  0  0  0
    3.9071    9.9945   21.5608 O   0  0  0  0  0  0  0  0  0  0  0  0
    3.9236    6.9709   27.2470 C   0  0  2  0  0  0  0  0  0  0  0  0
    2.8684    7.8460   27.7988 N   0  0  0  0  0  0  0  0  0  0  0  0
    1.5339    1.7769   26.2682 C   0  0  2  0  0  0  0  0  0  0  0  0
    0.1563    1.7079   25.8057 O   0  0  0  0  0  0  0  0  0  0  0  0
   -1.8128   -0.5499   23.3821 C   0  0  1  0  0  0  0  0  0  0  0  0
   -0.7874   -1.1971   22.6317 O   0  0  0  0  0  0  0  0  0  0  0  0
    5.7072    8.9781   22.8110 C   0  0  2  0  0  0  0  0  0  0  0  0
    6.3403    8.5416   21.6121 O   0  0  0  0  0  0  0  0  0  0  0  0
    3.4124    6.1773   25.9911 C   0  0  2  0  0  0  0  0  0  0  0  0
    1.7317    2.9834   27.1966 C   0  0  2  0  0  0  0  0  0  0  0  0
    2.0482    4.0960   26.3376 O   0  0  0  0  0  0  0  0  0  0  0  0
   -2.3327   -1.5487   24.4601 C   0  0  2  0  0  0  0  0  0  0  0  0
   -3.5615   -1.0475   24.9887 O   0  0  0  0  0  0  0  0  0  0  0  0
    6.0408    8.0173   23.9873 C   0  0  2  0  0  0  0  0  0  0  0  0
    5.2872    8.4271   25.1680 O   0  0  0  0  0  0  0  0  0  0  0  0
    4.3890    5.0251   25.5566 C   0  0  2  0  0  0  0  0  0  0  0  0
    3.6823    4.1598   24.6302 O   0  0  0  0  0  0  0  0  0  0  0  0
    2.8559    2.7737   28.2266 C   0  0  0  0  0  0  0  0  0  0  0  0
    2.7252    3.6796   29.3083 O   0  0  0  0  0  0  0  0  0  0  0  0
   -1.2858   -1.7238   25.6037 C   0  0  1  0  0  0  0  0  0  0  0  0
   -0.8909   -0.4131   26.1121 O   0  0  0  0  0  0  0  0  0  0  0  0
    7.5294    7.9901   24.4004 C   0  0  0  0  0  0  0  0  0  0  0  0
    7.9682    9.2680   24.8292 O   0  0  0  0  0  0  0  0  0  0  0  0
    4.8820    4.1598   26.7578 C   0  0  1  0  0  0  0  0  0  0  0  0
    5.8861    3.2589   26.2931 O   0  0  0  0  0  0  0  0  0  0  0  0
   -1.8215   -2.5815   26.7787 C   0  0  0  0  0  0  0  0  0  0  0  0
   -1.9810   -1.8007   28.0189 N   0  0  0  0  0  0  0  0  0  0  0  0
  1  2  1  6  0  0  0
  1  7  1  0  0  0  0
  1 30  1  0  0  0  0
  3  4  1  1  0  0  0
  3  9  1  0  0  0  0
  3 39  1  0  0  0  0
  5 10  1  0  0  0  0
  5 26  1  0  0  0  0
  5 32  1  1  0  0  0
  6 12  1  0  0  0  0
  6 36  1  0  0  0  0
  6 19  1  1  0  0  0
  7  8  1  6  0  0  0
  7 14  1  0  0  0  0
  9 16  1  0  0  0  0
 10 11  1  6  0  0  0
 10 18  1  0  0  0  0
 12 13  1  1  0  0  0
 12 20  1  0  0  0  0
 14 15  1  6  0  0  0
 14 22  1  0  0  0  0
 16 17  1  1  0  0  0
 16 24  1  0  0  0  0
 18 19  1  6  0  0  0
 18 25  1  0  0  0  0
 20 21  1  1  0  0  0
 20 27  1  0  0  0  0
 22 23  1  6  0  0  0
 22 29  1  0  0  0  0
 24  2  1  6  0  0  0
 24 31  1  0  0  0  0
 25 26  1  0  0  0  0
 25 33  1  1  0  0  0
 27 28  1  1  0  0  0
 27 35  1  0  0  0  0
 29 30  1  0  0  0  0
 29 37  1  1  0  0  0
 31 32  1  6  0  0  0
 31 39  1  0  0  0  0
 33 34  1  0  0  0  0
 35 36  1  0  0  0  0
 35 41  1  1  0  0  0
 37 38  1  0  0  0  0
 39 40  1  6  0  0  0
 41 42  1  0  0  0  0
M  END
>  <CHROM.1>
-171.72807871,10.30651631,-150.98697378,-118.23802543,63.99791898,-75.86927540
-56.47268352,77.87895293,78.90224889,-143.00819695,-173.82198111,-41.93904403
-160.95756621,71.11140735,60.67057007,-53.11026722,-115.89080593,71.43569144
-113.29464325,-55.55301551,69.00802922,-68.65647952,2.47207281,4.14314632
25.38813751,0.60279568,-0.76725497,-0.89226653

>  <Name>
1fyp_lig

>  <RI>
0

>  <Rbt.Current_Directory>
/home/itssahil/PROJECTS/Mol_Feturizer/New_Systems/rnas/1fyp

>  <Rbt.Executable>
rbdock ($Id: //depot/dev/client3/rdock/2013.1/src/exe/rbdock.cxx#4 $)

>  <Rbt.Library>
libRbt.so (2013.1, Build901 2013/11/27)

>  <Rbt.Parameter_File>
/export/apps/rDock/src/rDock_2013.1_src/data/scripts/dock_solv.prm

>  <Rbt.Receptor>
prm/blind_docking_80.prm

>  <SCORE>
-34.5989

>  <SCORE.INTER>
-42.1341

>  <SCORE.INTER.CONST>
1

>  <SCORE.INTER.POLAR>
-5.64782

>  <SCORE.INTER.ROT>
14

>  <SCORE.INTER.SOLV>
20.4288

>  <SCORE.INTER.VDW>
-29.0062

>  <SCORE.INTER.norm>
-1.00319

>  <SCORE.INTRA>
7.53517

>  <SCORE.INTRA.DIHEDRAL>
-13.1829

>  <SCORE.INTRA.DIHEDRAL.0>
48.7173

>  <SCORE.INTRA.POLAR>
1.30434

>  <SCORE.INTRA.POLAR.0>
-1.54691

>  <SCORE.INTRA.REPUL>
0.121012

>  <SCORE.INTRA.REPUL.0>
0

>  <SCORE.INTRA.SOLV>
0.312421

>  <SCORE.INTRA.SOLV.lig_0>
-64.052

>  <SCORE.INTRA.VDW>
8.93058

>  <SCORE.INTRA.VDW.0>
-7.0667

>  <SCORE.INTRA.norm>
0.179409

>  <SCORE.RESTR>
0

>  <SCORE.RESTR.CAVITY>
0

>  <SCORE.RESTR.norm>
0

>  <SCORE.SYSTEM>
0

>  <SCORE.SYSTEM.CONST>
0

>  <SCORE.SYSTEM.DIHEDRAL>
0

>  <SCORE.SYSTEM.SOLV>
0

>  <SCORE.SYSTEM.norm>
0

>  <SCORE.heavy>
42

>  <SCORE.norm>
-0.823784

>  <RMSD>
4.327

$$$$
1fyp_lig
 OpenBabel11021811393D
libRbt.so/2013.1/901 2013/11/27
 42 45  0  0  0  0  0  0  0  0999 V2000
    3.7813    8.5050   25.0203 C   0  0  2  0  0  0  0  0  0  0  0  0
    3.2709    7.1484   24.8733 O   0  0  0  0  0  0  0  0  0  0  0  0
    5.4763    5.1167   27.9146 C   0  0  2  0  0  0  0  0  0  0  0  0
    5.9253    4.3125   29.0662 N   0  0  0  0  0  0  0  0  0  0  0  0
    2.4110    3.6258   25.0741 C   0  0  1  0  0  0  0  0  0  0  0  0
   -0.2573    0.5105   25.1665 C   0  0  1  0  0  0  0  0  0  0  0  0
    3.3891    9.3994   23.8003 C   0  0  2  0  0  0  0  0  0  0  0  0
    1.9402    9.3162   23.5182 N   0  0  0  0  0  0  0  0  0  0  0  0
    4.4179    6.1356   28.3820 C   0  0  0  0  0  0  0  0  0  0  0  0
    2.5107    2.0991   25.1283 C   0  0  2  0  0  0  0  0  0  0  0  0
    2.0432    1.5464   23.8972 O   0  0  0  0  0  0  0  0  0  0  0  0
   -1.2005    0.8417   23.9699 C   0  0  2  0  0  0  0  0  0  0  0  0
   -2.2619    1.8130   24.3306 N   0  0  0  0  0  0  0  0  0  0  0  0
    4.2110    9.0039   22.5338 C   0  0  1  0  0  0  0  0  0  0  0  0
    3.9600    9.9267   21.4769 O   0  0  0  0  0  0  0  0  0  0  0  0
    3.9183    7.0385   27.2211 C   0  0  2  0  0  0  0  0  0  0  0  0
    2.8567    7.9160   27.7565 N   0  0  0  0  0  0  0  0  0  0  0  0
    1.5636    1.7637   26.2836 C   0  0  2  0  0  0  0  0  0  0  0  0
    0.1763    1.7165   25.8479 O   0  0  0  0  0  0  0  0  0  0  0  0
   -1.8063   -0.4612   23.3628 C   0  0  1  0  0  0  0  0  0  0  0  0
   -0.7847   -1.1402   22.6355 O   0  0  0  0  0  0  0  0  0  0  0  0
    5.7338    8.9830   22.8184 C   0  0  2  0  0  0  0  0  0  0  0  0
    6.4180    8.5265   21.6556 O   0  0  0  0  0  0  0  0  0  0  0  0
    3.4118    6.2151   25.9826 C   0  0  2  0  0  0  0  0  0  0  0  0
    1.7896    2.9445   27.2381 C   0  0  2  0  0  0  0  0  0  0  0  0
    2.0970    4.0765   26.4015 O   0  0  0  0  0  0  0  0  0  0  0  0
   -2.3879   -1.4461   24.4218 C   0  0  2  0  0  0  0  0  0  0  0  0
   -3.6119   -0.9050   24.9213 O   0  0  0  0  0  0  0  0  0  0  0  0
    6.0439    8.0625   24.0328 C   0  0  2  0  0  0  0  0  0  0  0  0
    5.2404    8.4893   25.1739 O   0  0  0  0  0  0  0  0  0  0  0  0
    4.3972    5.0622   25.5703 C   0  0  2  0  0  0  0  0  0  0  0  0
    3.6963    4.1723   24.6629 O   0  0  0  0  0  0  0  0  0  0  0  0
    2.9329    2.7004   28.2391 C   0  0  0  0  0  0  0  0  0  0  0  0
    2.6846    1.5424   29.0169 O   0  0  0  0  0  0  0  0  0  0  0  0
   -1.3775   -1.6624   25.5909 C   0  0  1  0  0  0  0  0  0  0  0  0
   -0.9509   -0.3683   26.1162 O   0  0  0  0  0  0  0  0  0  0  0  0
    7.5169    8.0776   24.4987 C   0  0  0  0  0  0  0  0  0  0  0  0
    7.9307    9.3856   24.8556 O   0  0  0  0  0  0  0  0  0  0  0  0
    4.8991    4.2259   26.7882 C   0  0  1  0  0  0  0  0  0  0  0  0
    5.9100    3.3239   26.3405 O   0  0  0  0  0  0  0  0  0  0  0  0
   -1.9726   -2.5061   26.7473 C   0  0  0  0  0  0  0  0  0  0  0  0
   -1.0211   -2.6897   27.8581 N   0  0  0  0  0  0  0  0  0  0  0  0
  1  2  1  6  0  0  0
  1  7  1  0  0  0  0
  1 30  1  0  0  0  0
  3  4  1  1  0  0  0
  3  9  1  0  0  0  0
  3 39  1  0  0  0  0
  5 10  1  0  0  0  0
  5 26  1  0  0  0  0
  5 32  1  1  0  0  0
  6 12  1  0  0  0  0
  6 36  1  0  0  0  0
  6 19  1  1  0  0  0
  7  8  1  6  0  0  0
  7 14  1  0  0  0  0
  9 16  1  0  0  0  0
 10 11  1  6  0  0  0
 10 18  1  0  0  0  0
 12 13  1  1  0  0  0
 12 20  1  0  0  0  0
 14 15  1  6  0  0  0
 14 22  1  0  0  0  0
 16 17  1  1  0  0  0
 16 24  1  0  0  0  0
 18 19  1  6  0  0  0
 18 25  1  0  0  0  0
 20 21  1  1  0  0  0
 20 27  1  0  0  0  0
 22 23  1  6  0  0  0
 22 29  1  0  0  0  0
 24  2  1  6  0  0  0
 24 31  1  0  0  0  0
 25 26  1  0  0  0  0
 25 33  1  1  0  0  0
 27 28  1  1  0  0  0
 27 35  1  0  0  0  0
 29 30  1  0  0  0  0
 29 37  1  1  0  0  0
 31 32  1  6  0  0  0
 31 39  1  0  0  0  0
 33 34  1  0  0  0  0
 35 36  1  0  0  0  0
 35 41  1  1  0  0  0
 37 38  1  0  0  0  0
 39 40  1  6  0  0  0
 41 42  1  0  0  0  0
M  END
>  <CHROM.1>
-173.23837988,9.18235563,-48.92807358,-106.35727556,175.04455934,-136.96230590
-50.89635455,71.81882337,79.19135919,-139.85617144,57.92802569,60.60337393
-58.21634496,56.03538470,58.33495055,-53.02381115,-118.92703375,62.59840927
-179.11447296,-175.33049191,177.29785368,66.29109396,2.49826861,4.09796790
25.37264039,0.67283551,-0.73391609,-0.80912190

>  <Name>
1fyp_lig

>  <RI>
0

>  <Rbt.Current_Directory>
/home/itssahil/PROJECTS/Mol_Feturizer/New_Systems/rnas/1fyp

>  <Rbt.Executable>
rbdock ($Id: //depot/dev/client3/rdock/2013.1/src/exe/rbdock.cxx#4 $)

>  <Rbt.Library>
libRbt.so (2013.1, Build901 2013/11/27)

>  <Rbt.Parameter_File>
/export/apps/rDock/src/rDock_2013.1_src/data/scripts/dock_solv.prm

>  <Rbt.Receptor>
prm/blind_docking_80.prm

>  <SCORE>
-33.4655

>  <SCORE.INTER>
-36.3995

>  <SCORE.INTER.CONST>
1

>  <SCORE.INTER.POLAR>
-4.53321

>  <SCORE.INTER.ROT>
14

>  <SCORE.INTER.SOLV>
21.6198

>  <SCORE.INTER.VDW>
-29.2956

>  <SCORE.INTER.norm>
-0.866656

>  <SCORE.INTRA>
2.93401

>  <SCORE.INTRA.DIHEDRAL>
-21.4853

>  <SCORE.INTRA.DIHEDRAL.0>
48.7173

>  <SCORE.INTRA.POLAR>
1.51489

>  <SCORE.INTRA.POLAR.0>
-1.54691

>  <SCORE.INTRA.REPUL>
0

>  <SCORE.INTRA.REPUL.0>
0

>  <SCORE.INTRA.SOLV>
-1.32822

>  <SCORE.INTRA.SOLV.lig_0>
-64.052

>  <SCORE.INTRA.VDW>
9.19012

>  <SCORE.INTRA.VDW.0>
-7.0667

>  <SCORE.INTRA.norm>
0.0698573

>  <SCORE.RESTR>
0

>  <SCORE.RESTR.CAVITY>
0

>  <SCORE.RESTR.norm>
0

>  <SCORE.SYSTEM>
0

>  <SCORE.SYSTEM.CONST>
0

>  <SCORE.SYSTEM.DIHEDRAL>
0

>  <SCORE.SYSTEM.SOLV>
0

>  <SCORE.SYSTEM.norm>
0

>  <SCORE.heavy>
42

>  <SCORE.norm>
-0.796798

>  <RMSD>
4.338

$$$$
1fyp_lig
 OpenBabel11021811393D
libRbt.so/2013.1/901 2013/11/27
 42 45  0  0  0  0  0  0  0  0999 V2000
    3.4069    7.9396   26.1867 C   0  0  2  0  0  0  0  0  0  0  0  0
    2.8316    6.6035   26.1084 O   0  0  0  0  0  0  0  0  0  0  0  0
    3.7706    5.4329   30.1070 C   0  0  2  0  0  0  0  0  0  0  0  0
    3.7854    4.8786   31.4734 N   0  0  0  0  0  0  0  0  0  0  0  0
    2.4452    3.0197   26.6343 C   0  0  1  0  0  0  0  0  0  0  0  0
   -0.3984   -0.1845   25.4418 C   0  0  1  0  0  0  0  0  0  0  0  0
    3.7854    8.4837   24.7714 C   0  0  2  0  0  0  0  0  0  0  0  0
    2.6541    8.3571   23.8281 N   0  0  0  0  0  0  0  0  0  0  0  0
    2.4903    6.2680   29.9061 C   0  0  0  0  0  0  0  0  0  0  0  0
    2.5850    1.8531   25.6528 C   0  0  2  0  0  0  0  0  0  0  0  0
    2.0662    2.2366   24.3788 O   0  0  0  0  0  0  0  0  0  0  0  0
   -0.0763   -0.3807   23.9289 C   0  0  2  0  0  0  0  0  0  0  0  0
   -0.1753    0.8810   23.1552 N   0  0  0  0  0  0  0  0  0  0  0  0
    5.0427    7.7482   24.2109 C   0  0  1  0  0  0  0  0  0  0  0  0
    5.4697    8.3603   22.9965 O   0  0  0  0  0  0  0  0  0  0  0  0
    2.4212    6.9071   28.4922 C   0  0  2  0  0  0  0  0  0  0  0  0
    1.1276    7.6122   28.3782 N   0  0  0  0  0  0  0  0  0  0  0  0
    1.7094    0.7831   26.3107 C   0  0  2  0  0  0  0  0  0  0  0  0
    0.3024    0.9635   25.9874 O   0  0  0  0  0  0  0  0  0  0  0  0
   -0.9727   -1.4973   23.3102 C   0  0  1  0  0  0  0  0  0  0  0  0
   -0.5125   -2.7618   23.7824 O   0  0  0  0  0  0  0  0  0  0  0  0
    6.2212    7.7736   25.2163 C   0  0  2  0  0  0  0  0  0  0  0  0
    7.3006    7.0098   24.6870 O   0  0  0  0  0  0  0  0  0  0  0  0
    2.6060    5.8569   27.3384 C   0  0  2  0  0  0  0  0  0  0  0  0
    1.9570    1.0381   27.8040 C   0  0  2  0  0  0  0  0  0  0  0  0
    2.1915    2.4540   27.9302 O   0  0  0  0  0  0  0  0  0  0  0  0
   -2.4857   -1.3665   23.6618 C   0  0  2  0  0  0  0  0  0  0  0  0
   -3.0323   -0.2765   22.9176 O   0  0  0  0  0  0  0  0  0  0  0  0
    5.7705    7.2046   26.5915 C   0  0  2  0  0  0  0  0  0  0  0  0
    4.5938    7.9364   27.0495 O   0  0  0  0  0  0  0  0  0  0  0  0
    3.8150    4.8835   27.5853 C   0  0  2  0  0  0  0  0  0  0  0  0
    3.6930    3.7693   26.6632 O   0  0  0  0  0  0  0  0  0  0  0  0
    3.1577    0.2514   28.3591 C   0  0  0  0  0  0  0  0  0  0  0  0
    3.3613    0.5420   29.7308 O   0  0  0  0  0  0  0  0  0  0  0  0
   -2.6803   -1.1262   25.1911 C   0  0  1  0  0  0  0  0  0  0  0  0
   -1.8447   -0.0088   25.6222 O   0  0  0  0  0  0  0  0  0  0  0  0
    6.8245    7.3141   27.7158 C   0  0  0  0  0  0  0  0  0  0  0  0
    6.3775    6.6833   28.9040 O   0  0  0  0  0  0  0  0  0  0  0  0
    3.8530    4.3164   29.0384 C   0  0  1  0  0  0  0  0  0  0  0  0
    5.0670    3.5879   29.2153 O   0  0  0  0  0  0  0  0  0  0  0  0
   -4.1547   -0.8296   25.5670 C   0  0  0  0  0  0  0  0  0  0  0  0
   -4.3957   -0.9234   27.0183 N   0  0  0  0  0  0  0  0  0  0  0  0
  1  2  1  6  0  0  0
  1  7  1  0  0  0  0
  1 30  1  0  0  0  0
  3  4  1  1  0  0  0
  3  9  1  0  0  0  0
  3 39  1  0  0  0  0
  5 10  1  0  0  0  0
  5 26  1  0  0  0  0
  5 32  1  1  0  0  0
  6 12  1  0  0  0  0
  6 36  1  0  0  0  0
  6 19  1  6  0  0  0
  7  8  1  6  0  0  0
  7 14  1  0  0  0  0
  9 16  1  0  0  0  0
 10 11  1  6  0  0  0
 10 18  1  0  0  0  0
 12 13  1  6  0  0  0
 12 20  1  0  0  0  0
 14 15  1  6  0  0  0
 14 22  1  0  0  0  0
 16 17  1  6  0  0  0
 16 24  1  0  0  0  0
 18 19  1  1  0  0  0
 18 25  1  0  0  0  0
 20 21  1  1  0  0  0
 20 27  1  0  0  0  0
 22 23  1  6  0  0  0
 22 29  1  0  0  0  0
 24  2  1  6  0  0  0
 24 31  1  0  0  0  0
 25 26  1  0  0  0  0
 25 33  1  6  0  0  0
 27 28  1  6  0  0  0
 27 35  1  0  0  0  0
 29 30  1  0  0  0  0
 29 37  1  1  0  0  0
 31 32  1  6  0  0  0
 31 39  1  0  0  0  0
 33 34  1  0  0  0  0
 35 36  1  0  0  0  0
 35 41  1  6  0  0  0
 37 38  1  0  0  0  0
 39 40  1  1  0  0  0
 41 42  1  0  0  0  0
M  END
>  <CHROM.1>
170.81014788,26.08735225,-162.85981424,-75.75089958,-57.07103409,105.77433409
-59.46552751,-126.62257964,127.09416688,-78.56111913,-46.78605712,179.62406189
178.76493415,-52.36050998,-175.48444057,-53.76766976,-176.67866796,100.19762367
166.24721959,-174.19561416,-178.88905839,-79.65742345,2.19717675,3.55353032
26.39662470,0.15636119,-0.88813252,-1.12659153

>  <Name>
1fyp_lig

>  <RI>
0

>  <Rbt.Current_Directory>
/home/itssahil/PROJECTS/Mol_Feturizer/New_Systems/rnas/1fyp

>  <Rbt.Executable>
rbdock ($Id: //depot/dev/client3/rdock/2013.1/src/exe/rbdock.cxx#4 $)

>  <Rbt.Library>
libRbt.so (2013.1, Build901 2013/11/27)

>  <Rbt.Parameter_File>
/export/apps/rDock/src/rDock_2013.1_src/data/scripts/dock_solv.prm

>  <Rbt.Receptor>
prm/pocket_docking_4.prm

>  <SCORE>
-54.1237

>  <SCORE.INTER>
-51.2111

>  <SCORE.INTER.CONST>
1

>  <SCORE.INTER.POLAR>
-5.93769

>  <SCORE.INTER.ROT>
14

>  <SCORE.INTER.SOLV>
18.8714

>  <SCORE.INTER.VDW>
-33.5722

>  <SCORE.INTER.norm>
-1.21931

>  <SCORE.INTRA>
-3.56009

>  <SCORE.INTRA.DIHEDRAL>
-21.8626

>  <SCORE.INTRA.DIHEDRAL.0>
48.7173

>  <SCORE.INTRA.POLAR>
0.808467

>  <SCORE.INTRA.POLAR.0>
-1.54691

>  <SCORE.INTRA.REPUL>
0

>  <SCORE.INTRA.REPUL.0>
0

>  <SCORE.INTRA.SOLV>
-0.621713

>  <SCORE.INTRA.SOLV.lig_0>
-64.052

>  <SCORE.INTRA.VDW>
4.93329

>  <SCORE.INTRA.VDW.0>
-7.0667

>  <SCORE.INTRA.norm>
-0.084764

>  <SCORE.RESTR>
0.647508

>  <SCORE.RESTR.CAVITY>
0.647508

>  <SCORE.RESTR.norm>
0.0154168

>  <SCORE.SYSTEM>
0

>  <SCORE.SYSTEM.CONST>
0

>  <SCORE.SYSTEM.DIHEDRAL>
0

>  <SCORE.SYSTEM.SOLV>
0

>  <SCORE.SYSTEM.norm>
0

>  <SCORE.heavy>
42

>  <SCORE.norm>
-1.28866

>  <RMSD>
4.341

$$$$
1fyp_lig
 OpenBabel11021811393D
libRbt.so/2013.1/901 2013/11/27
 42 45  0  0  0  0  0  0  0  0999 V2000
    3.3508    8.0876   26.5669 C   0  0  2  0  0  0  0  0  0  0  0  0
    2.7428    6.7812   26.3523 O   0  0  0  0  0  0  0  0  0  0  0  0
    4.3844    4.9690   29.8540 C   0  0  2  0  0  0  0  0  0  0  0  0
    4.6504    4.1762   31.0685 N   0  0  0  0  0  0  0  0  0  0  0  0
    2.5370    3.2466   26.1560 C   0  0  1  0  0  0  0  0  0  0  0  0
   -0.6472    0.3943   26.2875 C   0  0  1  0  0  0  0  0  0  0  0  0
    3.5759    8.8428   25.2174 C   0  0  2  0  0  0  0  0  0  0  0  0
    2.3418    8.8666   24.4038 N   0  0  0  0  0  0  0  0  0  0  0  0
    3.0546    5.7312   30.0200 C   0  0  0  0  0  0  0  0  0  0  0  0
    2.7484    1.9109   25.4385 C   0  0  2  0  0  0  0  0  0  0  0  0
    2.4126    2.0526   24.0577 O   0  0  0  0  0  0  0  0  0  0  0  0
   -0.4764   -1.1392   26.0629 C   0  0  2  0  0  0  0  0  0  0  0  0
   -0.2103   -1.4830   24.6447 N   0  0  0  0  0  0  0  0  0  0  0  0
    4.7454    8.1993   24.4085 C   0  0  1  0  0  0  0  0  0  0  0  0
    5.0432    8.9906   23.2609 O   0  0  0  0  0  0  0  0  0  0  0  0
    2.7237    6.6119   28.7842 C   0  0  2  0  0  0  0  0  0  0  0  0
    1.4008    7.2298   29.0114 N   0  0  0  0  0  0  0  0  0  0  0  0
    1.7500    1.0041   26.1633 C   0  0  2  0  0  0  0  0  0  0  0  0
    0.4047    1.1460   25.6279 O   0  0  0  0  0  0  0  0  0  0  0  0
   -1.7074   -1.9221   26.6150 C   0  0  1  0  0  0  0  0  0  0  0  0
   -1.6465   -1.9165   28.0398 O   0  0  0  0  0  0  0  0  0  0  0  0
    6.0315    8.0659   25.2621 C   0  0  2  0  0  0  0  0  0  0  0  0
    7.0272    7.3901   24.5002 O   0  0  0  0  0  0  0  0  0  0  0  0
    2.7572    5.8073   27.4352 C   0  0  2  0  0  0  0  0  0  0  0  0
    1.8174    1.5361   27.6016 C   0  0  2  0  0  0  0  0  0  0  0  0
    2.0963    2.9452   27.4897 O   0  0  0  0  0  0  0  0  0  0  0  0
   -3.0836   -1.3308   26.1833 C   0  0  2  0  0  0  0  0  0  0  0  0
   -3.2944   -1.6320   24.8029 O   0  0  0  0  0  0  0  0  0  0  0  0
    5.7294    7.2924   26.5768 C   0  0  2  0  0  0  0  0  0  0  0  0
    4.6282    7.9478   27.2751 O   0  0  0  0  0  0  0  0  0  0  0  0
    4.0303    4.8959   27.2981 C   0  0  2  0  0  0  0  0  0  0  0  0
    3.8030    3.9637   26.2092 O   0  0  0  0  0  0  0  0  0  0  0  0
    2.9021    0.8476   28.4490 C   0  0  0  0  0  0  0  0  0  0  0  0
    2.6597    1.0387   29.8319 O   0  0  0  0  0  0  0  0  0  0  0  0
   -3.1188    0.2126   26.4095 C   0  0  1  0  0  0  0  0  0  0  0  0
   -1.9543    0.8275   25.7784 O   0  0  0  0  0  0  0  0  0  0  0  0
    6.9073    7.2239   27.5744 C   0  0  0  0  0  0  0  0  0  0  0  0
    7.9971    6.4952   27.0352 O   0  0  0  0  0  0  0  0  0  0  0  0
    4.3341    4.0763   28.5906 C   0  0  1  0  0  0  0  0  0  0  0  0
    5.5901    3.4182   28.4323 O   0  0  0  0  0  0  0  0  0  0  0  0
   -4.4050    0.8702   25.8470 C   0  0  0  0  0  0  0  0  0  0  0  0
   -5.6225    0.4064   26.5366 N   0  0  0  0  0  0  0  0  0  0  0  0
  1  2  1  6  0  0  0
  1  7  1  0  0  0  0
  1 30  1  0  0  0  0
  3  4  1  1  0  0  0
  3  9  1  0  0  0  0
  3 39  1  0  0  0  0
  5 10  1  0  0  0  0
  5 26  1  0  0  0  0
  5 32  1  1  0  0  0
  6 12  1  0  0  0  0
  6 36  1  0  0  0  0
  6 19  1  6  0  0  0
  7  8  1  6  0  0  0
  7 14  1  0  0  0  0
  9 16  1  0  0  0  0
 10 11  1  6  0  0  0
 10 18  1  0  0  0  0
 12 13  1  6  0  0  0
 12 20  1  0  0  0  0
 14 15  1  6  0  0  0
 14 22  1  0  0  0  0
 16 17  1  1  0  0  0
 16 24  1  0  0  0  0
 18 19  1  6  0  0  0
 18 25  1  0  0  0  0
 20 21  1  1  0  0  0
 20 27  1  0  0  0  0
 22 23  1  6  0  0  0
 22 29  1  0  0  0  0
 24  2  1  6  0  0  0
 24 31  1  0  0  0  0
 25 26  1  0  0  0  0
 25 33  1  1  0  0  0
 27 28  1  6  0  0  0
 27 35  1  0  0  0  0
 29 30  1  0  0  0  0
 29 37  1  1  0  0  0
 31 32  1  6  0  0  0
 31 39  1  0  0  0  0
 33 34  1  0  0  0  0
 35 36  1  0  0  0  0
 35 41  1  6  0  0  0
 37 38  1  0  0  0  0
 39 40  1  6  0  0  0
 41 42  1  0  0  0  0
M  END
>  <CHROM.1>
165.06271679,30.33440254,-153.66515147,-95.85500067,-174.93385222,135.39988710
66.96189954,-39.67745165,-176.45037511,-68.14238550,-26.18471049,-50.40338286
-161.26087768,60.29222491,-64.21981798,-47.36231013,-152.22064525,-58.39964746
64.12162248,57.69257222,59.32594553,-47.57896296,2.15324080,3.65239883,26.72689707
0.58350928,-0.63293742,-0.69666008

>  <Name>
1fyp_lig

>  <RI>
0

>  <Rbt.Current_Directory>
/home/itssahil/PROJECTS/Mol_Feturizer/New_Systems/rnas/1fyp

>  <Rbt.Executable>
rbdock ($Id: //depot/dev/client3/rdock/2013.1/src/exe/rbdock.cxx#4 $)

>  <Rbt.Library>
libRbt.so (2013.1, Build901 2013/11/27)

>  <Rbt.Parameter_File>
/export/apps/rDock/src/rDock_2013.1_src/data/scripts/dock_solv.prm

>  <Rbt.Receptor>
prm/pocket_docking_7.prm

>  <SCORE>
-54.177

>  <SCORE.INTER>
-49.3178

>  <SCORE.INTER.CONST>
1

>  <SCORE.INTER.POLAR>
-5.74622

>  <SCORE.INTER.ROT>
14

>  <SCORE.INTER.SOLV>
18.5811

>  <SCORE.INTER.VDW>
-32.8515

>  <SCORE.INTER.norm>
-1.17423

>  <SCORE.INTRA>
-4.85918

>  <SCORE.INTRA.DIHEDRAL>
-27.4133

>  <SCORE.INTRA.DIHEDRAL.0>
48.7173

>  <SCORE.INTRA.POLAR>
1.0701

>  <SCORE.INTRA.POLAR.0>
-1.54691

>  <SCORE.INTRA.REPUL>
0

>  <SCORE.INTRA.REPUL.0>
0

>  <SCORE.INTRA.SOLV>
-1.72551

>  <SCORE.INTRA.SOLV.lig_0>
-64.052

>  <SCORE.INTRA.VDW>
6.0719

>  <SCORE.INTRA.VDW.0>
-7.0667

>  <SCORE.INTRA.norm>
-0.115695

>  <SCORE.RESTR>
0

>  <SCORE.RESTR.CAVITY>
0

>  <SCORE.RESTR.norm>
0

>  <SCORE.SYSTEM>
0

>  <SCORE.SYSTEM.CONST>
0

>  <SCORE.SYSTEM.DIHEDRAL>
0

>  <SCORE.SYSTEM.SOLV>
0

>  <SCORE.SYSTEM.norm>
0

>  <SCORE.heavy>
42

>  <SCORE.norm>
-1.28993

>  <RMSD>
4.348

$$$$
1fyp_lig
 OpenBabel11021811393D
libRbt.so/2013.1/901 2013/11/27
 42 45  0  0  0  0  0  0  0  0999 V2000
    4.4739    5.6089   28.9502 C   0  0  2  0  0  0  0  0  0  0  0  0
    3.5871    5.8263   27.8150 O   0  0  0  0  0  0  0  0  0  0  0  0
    3.7514    7.3067   23.8122 C   0  0  2  0  0  0  0  0  0  0  0  0
    4.1126    7.6573   22.4262 N   0  0  0  0  0  0  0  0  0  0  0  0
    1.8464    3.2649   25.1062 C   0  0  1  0  0  0  0  0  0  0  0  0
   -1.3044    0.4124   24.3243 C   0  0  1  0  0  0  0  0  0  0  0  0
    5.5574    4.5288   28.6315 C   0  0  2  0  0  0  0  0  0  0  0  0
    6.2503    4.8235   27.3593 N   0  0  0  0  0  0  0  0  0  0  0  0
    4.8881    7.7339   24.7621 C   0  0  0  0  0  0  0  0  0  0  0  0
    2.2096    1.8779   24.5694 C   0  0  2  0  0  0  0  0  0  0  0  0
    2.3297    1.9329   23.1475 O   0  0  0  0  0  0  0  0  0  0  0  0
   -0.9558   -1.0700   24.6591 C   0  0  2  0  0  0  0  0  0  0  0  0
    0.0108   -1.6601   23.7010 N   0  0  0  0  0  0  0  0  0  0  0  0
    4.9245    3.1028   28.5858 C   0  0  1  0  0  0  0  0  0  0  0  0
    5.9446    2.1162   28.4531 O   0  0  0  0  0  0  0  0  0  0  0  0
    4.5624    7.4186   26.2477 C   0  0  2  0  0  0  0  0  0  0  0  0
    5.7415    7.7903   27.0571 N   0  0  0  0  0  0  0  0  0  0  0  0
    0.9936    1.0494   24.9930 C   0  0  2  0  0  0  0  0  0  0  0  0
   -0.1085    1.1891   24.0537 O   0  0  0  0  0  0  0  0  0  0  0  0
   -2.2496   -1.9348   24.7647 C   0  0  1  0  0  0  0  0  0  0  0  0
   -2.9187   -1.6033   25.9796 O   0  0  0  0  0  0  0  0  0  0  0  0
    4.1046    2.7950   29.8638 C   0  0  2  0  0  0  0  0  0  0  0  0
    3.4794    1.5233   29.7202 O   0  0  0  0  0  0  0  0  0  0  0  0
    4.1580    5.9181   26.4782 C   0  0  2  0  0  0  0  0  0  0  0  0
    0.6321    1.6772   26.3464 C   0  0  2  0  0  0  0  0  0  0  0  0
    0.9970    3.0675   26.2479 O   0  0  0  0  0  0  0  0  0  0  0  0
   -3.2492   -1.7312   23.5861 C   0  0  2  0  0  0  0  0  0  0  0  0
   -2.7147   -2.3646   22.4226 O   0  0  0  0  0  0  0  0  0  0  0  0
    3.0411    3.9039   30.1036 C   0  0  2  0  0  0  0  0  0  0  0  0
    3.7036    5.2039   30.1315 O   0  0  0  0  0  0  0  0  0  0  0  0
    3.1100    5.3989   25.4283 C   0  0  2  0  0  0  0  0  0  0  0  0
    3.0639    3.9508   25.5147 O   0  0  0  0  0  0  0  0  0  0  0  0
    1.3641    1.0207   27.5305 C   0  0  0  0  0  0  0  0  0  0  0  0
    0.9693    1.6093   28.7574 O   0  0  0  0  0  0  0  0  0  0  0  0
   -3.4826   -0.2127   23.3137 C   0  0  1  0  0  0  0  0  0  0  0  0
   -2.1963    0.4612   23.1592 O   0  0  0  0  0  0  0  0  0  0  0  0
    2.2596    3.7772   31.4304 C   0  0  0  0  0  0  0  0  0  0  0  0
    0.9268    3.3506   31.2043 O   0  0  0  0  0  0  0  0  0  0  0  0
    3.4712    5.7920   23.9622 C   0  0  1  0  0  0  0  0  0  0  0  0
    2.3863    5.4301   23.1091 O   0  0  0  0  0  0  0  0  0  0  0  0
   -4.3424    0.0428   22.0493 C   0  0  0  0  0  0  0  0  0  0  0  0
   -5.3672   -0.9969   21.8456 N   0  0  0  0  0  0  0  0  0  0  0  0
  1  2  1  6  0  0  0
  1  7  1  0  0  0  0
  1 30  1  0  0  0  0
  3  4  1  6  0  0  0
  3  9  1  0  0  0  0
  3 39  1  0  0  0  0
  5 10  1  0  0  0  0
  5 26  1  0  0  0  0
  5 32  1  1  0  0  0
  6 12  1  0  0  0  0
  6 36  1  0  0  0  0
  6 19  1  6  0  0  0
  7  8  1  6  0  0  0
  7 14  1  0  0  0  0
  9 16  1  0  0  0  0
 10 11  1  6  0  0  0
 10 18  1  0  0  0  0
 12 13  1  6  0  0  0
 12 20  1  0  0  0  0
 14 15  1  1  0  0  0
 14 22  1  0  0  0  0
 16 17  1  1  0  0  0
 16 24  1  0  0  0  0
 18 19  1  6  0  0  0
 18 25  1  0  0  0  0
 20 21  1  1  0  0  0
 20 27  1  0  0  0  0
 22 23  1  6  0  0  0
 22 29  1  0  0  0  0
 24  2  1  1  0  0  0
 24 31  1  0  0  0  0
 25 26  1  0  0  0  0
 25 33  1  1  0  0  0
 27 28  1  6  0  0  0
 27 35  1  0  0  0  0
 29 30  1  0  0  0  0
 29 37  1  1  0  0  0
 31 32  1  6  0  0  0
 31 39  1  0  0  0  0
 33 34  1  0  0  0  0
 35 36  1  0  0  0  0
 35 41  1  6  0  0  0
 37 38  1  0  0  0  0
 39 40  1  6  0  0  0
 41 42  1  0  0  0  0
M  END
>  <CHROM.1>
-43.14501363,-87.00613741,149.72849139,39.80078855,-74.29034477,103.60582984
-54.54954843,45.65160622,177.93179164,-47.20268144,56.13566700,74.73379617
-178.36953559,-52.92061710,-107.29176056,154.31478985,150.08645615,-164.28532817
34.13168728,52.50078854,178.17561308,-71.10917849,1.65405932,2.75217285,25.98952970
0.09452244,0.81224048,2.00958615

>  <Name>
1fyp_lig

>  <RI>
0

>  <Rbt.Current_Directory>
/home/itssahil/PROJECTS/Mol_Feturizer/New_Systems/rnas/1fyp

>  <Rbt.Executable>
rbdock ($Id: //depot/dev/client3/rdock/2013.1/src/exe/rbdock.cxx#4 $)

>  <Rbt.Library>
libRbt.so (2013.1, Build901 2013/11/27)

>  <Rbt.Parameter_File>
/export/apps/rDock/src/rDock_2013.1_src/data/scripts/dock_solv.prm

>  <Rbt.Receptor>
prm/blind_docking_80.prm

>  <SCORE>
-33.2028

>  <SCORE.INTER>
-23.977

>  <SCORE.INTER.CONST>
1

>  <SCORE.INTER.POLAR>
-5.06464

>  <SCORE.INTER.ROT>
14

>  <SCORE.INTER.SOLV>
20.6575

>  <SCORE.INTER.VDW>
-18.9217

>  <SCORE.INTER.norm>
-0.57088

>  <SCORE.INTRA>
-9.5043

>  <SCORE.INTRA.DIHEDRAL>
-21.5281

>  <SCORE.INTRA.DIHEDRAL.0>
48.7173

>  <SCORE.INTRA.POLAR>
-1.97101

>  <SCORE.INTRA.POLAR.0>
-1.54691

>  <SCORE.INTRA.REPUL>
0.266046

>  <SCORE.INTRA.REPUL.0>
0

>  <SCORE.INTRA.SOLV>
1.34646

>  <SCORE.INTRA.SOLV.lig_0>
-64.052

>  <SCORE.INTRA.VDW>
5.95774

>  <SCORE.INTRA.VDW.0>
-7.0667

>  <SCORE.INTRA.norm>
-0.226293

>  <SCORE.RESTR>
0.278503

>  <SCORE.RESTR.CAVITY>
0.278503

>  <SCORE.RESTR.norm>
0.00663103

>  <SCORE.SYSTEM>
0

>  <SCORE.SYSTEM.CONST>
0

>  <SCORE.SYSTEM.DIHEDRAL>
0

>  <SCORE.SYSTEM.SOLV>
0

>  <SCORE.SYSTEM.norm>
0

>  <SCORE.heavy>
42

>  <SCORE.norm>
-0.790542

>  <RMSD>
4.364

$$$$
1fyp_lig
 OpenBabel11021811393D
libRbt.so/2013.1/901 2013/11/27
 42 45  0  0  0  0  0  0  0  0999 V2000
    3.4775    7.6450   26.3927 C   0  0  2  0  0  0  0  0  0  0  0  0
    3.0609    6.2584   26.2307 O   0  0  0  0  0  0  0  0  0  0  0  0
    4.4384    4.6902   29.9569 C   0  0  2  0  0  0  0  0  0  0  0  0
    4.5989    4.0108   31.2557 N   0  0  0  0  0  0  0  0  0  0  0  0
    2.5463    2.7273   26.4211 C   0  0  1  0  0  0  0  0  0  0  0  0
   -0.7871   -0.0571   26.4424 C   0  0  1  0  0  0  0  0  0  0  0  0
    3.6590    8.3532   25.0116 C   0  0  2  0  0  0  0  0  0  0  0  0
    2.4703    8.1661   24.1526 N   0  0  0  0  0  0  0  0  0  0  0  0
    3.1813    5.5818   29.9963 C   0  0  0  0  0  0  0  0  0  0  0  0
    2.5973    1.4627   25.5597 C   0  0  2  0  0  0  0  0  0  0  0  0
    2.1459    1.7663   24.2393 O   0  0  0  0  0  0  0  0  0  0  0  0
   -0.4940   -1.5478   26.0915 C   0  0  2  0  0  0  0  0  0  0  0  0
   -0.1424   -1.7402   24.6634 N   0  0  0  0  0  0  0  0  0  0  0  0
    4.9392    7.8348   24.2848 C   0  0  1  0  0  0  0  0  0  0  0  0
    5.1787    8.5991   23.1057 O   0  0  0  0  0  0  0  0  0  0  0  0
    2.9648    6.3518   28.6649 C   0  0  2  0  0  0  0  0  0  0  0  0
    1.6995    7.1065   28.7805 N   0  0  0  0  0  0  0  0  0  0  0  0
    1.6098    0.5470   26.2881 C   0  0  2  0  0  0  0  0  0  0  0  0
    0.2338    0.8235   25.9050 O   0  0  0  0  0  0  0  0  0  0  0  0
   -1.6864   -2.4620   26.5103 C   0  0  1  0  0  0  0  0  0  0  0  0
   -1.6876   -2.5832   27.9312 O   0  0  0  0  0  0  0  0  0  0  0  0
    6.1922    7.9227   25.1918 C   0  0  2  0  0  0  0  0  0  0  0  0
    7.3028    7.3509   24.5073 O   0  0  0  0  0  0  0  0  0  0  0  0
    2.9576    5.4082   27.4088 C   0  0  2  0  0  0  0  0  0  0  0  0
    1.8467    0.9223   27.7576 C   0  0  2  0  0  0  0  0  0  0  0  0
    2.2111    2.3163   27.7563 O   0  0  0  0  0  0  0  0  0  0  0  0
   -3.0826   -1.9308   26.0650 C   0  0  2  0  0  0  0  0  0  0  0  0
   -3.2111   -2.1177   24.6547 O   0  0  0  0  0  0  0  0  0  0  0  0
    5.9386    7.1840   26.5365 C   0  0  2  0  0  0  0  0  0  0  0  0
    4.7293    7.7180   27.1548 O   0  0  0  0  0  0  0  0  0  0  0  0
    4.1436    4.3771   27.4117 C   0  0  2  0  0  0  0  0  0  0  0  0
    3.8584    3.3582   26.4182 O   0  0  0  0  0  0  0  0  0  0  0  0
    2.9548    0.0865   28.4224 C   0  0  0  0  0  0  0  0  0  0  0  0
    3.4393    0.7271   29.5897 O   0  0  0  0  0  0  0  0  0  0  0  0
   -3.2415   -0.4210   26.4251 C   0  0  1  0  0  0  0  0  0  0  0  0
   -2.0995    0.3290   25.9095 O   0  0  0  0  0  0  0  0  0  0  0  0
    7.0693    7.3289   27.5794 C   0  0  0  0  0  0  0  0  0  0  0  0
    6.6456    6.8976   28.8615 O   0  0  0  0  0  0  0  0  0  0  0  0
    4.3374    3.6761   28.7921 C   0  0  1  0  0  0  0  0  0  0  0  0
    5.5306    2.8949   28.7470 O   0  0  0  0  0  0  0  0  0  0  0  0
   -4.5473    0.1944   25.8601 C   0  0  0  0  0  0  0  0  0  0  0  0
   -5.4653    0.6414   26.9233 N   0  0  0  0  0  0  0  0  0  0  0  0
  1  2  1  6  0  0  0
  1  7  1  0  0  0  0
  1 30  1  0  0  0  0
  3  4  1  1  0  0  0
  3  9  1  0  0  0  0
  3 39  1  0  0  0  0
  5 10  1  0  0  0  0
  5 26  1  0  0  0  0
  5 32  1  1  0  0  0
  6 12  1  0  0  0  0
  6 36  1  0  0  0  0
  6 19  1  6  0  0  0
  7  8  1  6  0  0  0
  7 14  1  0  0  0  0
  9 16  1  0  0  0  0
 10 11  1  6  0  0  0
 10 18  1  0  0  0  0
 12 13  1  6  0  0  0
 12 20  1  0  0  0  0
 14 15  1  6  0  0  0
 14 22  1  0  0  0  0
 16 17  1  1  0  0  0
 16 24  1  0  0  0  0
 18 19  1  6  0  0  0
 18 25  1  0  0  0  0
 20 21  1  1  0  0  0
 20 27  1  0  0  0  0
 22 23  1  6  0  0  0
 22 29  1  0  0  0  0
 24  2  1  6  0  0  0
 24 31  1  0  0  0  0
 25 26  1  0  0  0  0
 25 33  1  6  0  0  0
 27 28  1  6  0  0  0
 27 35  1  0  0  0  0
 29 30  1  0  0  0  0
 29 37  1  1  0  0  0
 31 32  1  6  0  0  0
 31 39  1  0  0  0  0
 33 34  1  0  0  0  0
 35 36  1  0  0  0  0
 35 41  1  6  0  0  0
 37 38  1  0  0  0  0
 39 40  1  6  0  0  0
 41 42  1  0  0  0  0
M  END
>  <CHROM.1>
174.61068857,15.22521288,152.06831657,-48.33028729,59.20962473,-18.44535284
177.00104441,69.92474475,174.86847074,-55.93164057,-169.31769896,-47.52819379
160.89702395,62.32761052,166.69368049,-49.17870086,-165.20090466,-81.84056299
116.16141787,-51.28367682,-58.50780334,128.76210397,2.19013443,3.29311203
26.79606133,0.55542381,-0.67920477,-0.74675177

>  <Name>
1fyp_lig

>  <RI>
0

>  <Rbt.Current_Directory>
/home/itssahil/PROJECTS/Mol_Feturizer/New_Systems/rnas/1fyp

>  <Rbt.Executable>
rbdock ($Id: //depot/dev/client3/rdock/2013.1/src/exe/rbdock.cxx#4 $)

>  <Rbt.Library>
libRbt.so (2013.1, Build901 2013/11/27)

>  <Rbt.Parameter_File>
/export/apps/rDock/src/rDock_2013.1_src/data/scripts/dock_solv.prm

>  <Rbt.Receptor>
prm/blind_docking_40.prm

>  <SCORE>
-55.4568

>  <SCORE.INTER>
-50.5623

>  <SCORE.INTER.CONST>
1

>  <SCORE.INTER.POLAR>
-6.54967

>  <SCORE.INTER.ROT>
14

>  <SCORE.INTER.SOLV>
19.8762

>  <SCORE.INTER.VDW>
-31.4347

>  <SCORE.INTER.norm>
-1.20386

>  <SCORE.INTRA>
-4.89449

>  <SCORE.INTRA.DIHEDRAL>
-23.7542

>  <SCORE.INTRA.DIHEDRAL.0>
48.7173

>  <SCORE.INTRA.POLAR>
0.472967

>  <SCORE.INTRA.POLAR.0>
-1.54691

>  <SCORE.INTRA.REPUL>
0

>  <SCORE.INTRA.REPUL.0>
0

>  <SCORE.INTRA.SOLV>
-0.806623

>  <SCORE.INTRA.SOLV.lig_0>
-64.052

>  <SCORE.INTRA.VDW>
5.77786

>  <SCORE.INTRA.VDW.0>
-7.0667

>  <SCORE.INTRA.norm>
-0.116535

>  <SCORE.RESTR>
0

>  <SCORE.RESTR.CAVITY>
0

>  <SCORE.RESTR.norm>
0

>  <SCORE.SYSTEM>
0

>  <SCORE.SYSTEM.CONST>
0

>  <SCORE.SYSTEM.DIHEDRAL>
0

>  <SCORE.SYSTEM.SOLV>
0

>  <SCORE.SYSTEM.norm>
0

>  <SCORE.heavy>
42

>  <SCORE.norm>
-1.3204

>  <RMSD>
4.424

$$$$
1fyp_lig
 OpenBabel11021811393D
libRbt.so/2013.1/901 2013/11/27
 42 45  0  0  0  0  0  0  0  0999 V2000
    4.8317    5.3314   29.2665 C   0  0  2  0  0  0  0  0  0  0  0  0
    3.9678    5.8975   28.2391 O   0  0  0  0  0  0  0  0  0  0  0  0
    3.7470    7.0633   24.1363 C   0  0  2  0  0  0  0  0  0  0  0  0
    3.9791    7.3138   22.7018 N   0  0  0  0  0  0  0  0  0  0  0  0
    2.1270    3.0716   25.7948 C   0  0  1  0  0  0  0  0  0  0  0  0
   -1.3935    0.7080   25.6863 C   0  0  1  0  0  0  0  0  0  0  0  0
    5.0626    3.8023   29.0415 C   0  0  2  0  0  0  0  0  0  0  0  0
    5.4940    3.5234   27.6552 N   0  0  0  0  0  0  0  0  0  0  0  0
    4.9439    7.5947   24.9500 C   0  0  0  0  0  0  0  0  0  0  0  0
    2.2093    1.6900   26.4490 C   0  0  2  0  0  0  0  0  0  0  0  0
    2.7475    0.7518   25.5165 O   0  0  0  0  0  0  0  0  0  0  0  0
   -1.7680   -0.4097   26.7069 C   0  0  2  0  0  0  0  0  0  0  0  0
   -0.9799   -1.6508   26.5101 N   0  0  0  0  0  0  0  0  0  0  0  0
    3.7744    2.9893   29.3816 C   0  0  1  0  0  0  0  0  0  0  0  0
    4.0461    1.5912   29.3254 O   0  0  0  0  0  0  0  0  0  0  0  0
    4.7543    7.3880   26.4776 C   0  0  2  0  0  0  0  0  0  0  0  0
    5.9836    7.8542   27.1523 N   0  0  0  0  0  0  0  0  0  0  0  0
    0.7365    1.3957   26.7466 C   0  0  2  0  0  0  0  0  0  0  0  0
    0.0453    0.8674   25.5805 O   0  0  0  0  0  0  0  0  0  0  0  0
   -3.3003   -0.6998   26.6758 C   0  0  1  0  0  0  0  0  0  0  0  0
   -3.9801    0.3855   27.3031 O   0  0  0  0  0  0  0  0  0  0  0  0
    3.2340    3.3298   30.7931 C   0  0  2  0  0  0  0  0  0  0  0  0
    2.0122    2.6289   31.0049 O   0  0  0  0  0  0  0  0  0  0  0  0
    4.4217    5.8997   26.8551 C   0  0  2  0  0  0  0  0  0  0  0  0
    0.1973    2.7864   27.1095 C   0  0  2  0  0  0  0  0  0  0  0  0
    0.9640    3.7241   26.3292 O   0  0  0  0  0  0  0  0  0  0  0  0
   -3.8852   -0.8783   25.2419 C   0  0  2  0  0  0  0  0  0  0  0  0
   -3.4612   -2.1438   24.7327 O   0  0  0  0  0  0  0  0  0  0  0  0
    3.0167    4.8633   30.9330 C   0  0  2  0  0  0  0  0  0  0  0  0
    4.2576    5.5546   30.5983 O   0  0  0  0  0  0  0  0  0  0  0  0
    3.3079    5.2713   25.9415 C   0  0  2  0  0  0  0  0  0  0  0  0
    3.3182    3.8338   26.1411 O   0  0  0  0  0  0  0  0  0  0  0  0
    0.3294    3.1123   28.6078 C   0  0  0  0  0  0  0  0  0  0  0  0
   -0.3484    4.3155   28.9247 O   0  0  0  0  0  0  0  0  0  0  0  0
   -3.4046    0.2696   24.3008 C   0  0  1  0  0  0  0  0  0  0  0  0
   -1.9502    0.3821   24.3675 O   0  0  0  0  0  0  0  0  0  0  0  0
    2.6156    5.3351   32.3485 C   0  0  0  0  0  0  0  0  0  0  0  0
    1.6004    4.5118   32.8973 O   0  0  0  0  0  0  0  0  0  0  0  0
    3.5318    5.5580   24.4242 C   0  0  1  0  0  0  0  0  0  0  0  0
    2.3923    5.1007   23.6974 O   0  0  0  0  0  0  0  0  0  0  0  0
   -3.8276    0.0501   22.8256 C   0  0  0  0  0  0  0  0  0  0  0  0
   -2.9107   -0.8515   22.1050 N   0  0  0  0  0  0  0  0  0  0  0  0
  1  2  1  6  0  0  0
  1  7  1  0  0  0  0
  1 30  1  0  0  0  0
  3  4  1  6  0  0  0
  3  9  1  0  0  0  0
  3 39  1  0  0  0  0
  5 10  1  0  0  0  0
  5 26  1  0  0  0  0
  5 32  1  1  0  0  0
  6 12  1  0  0  0  0
  6 36  1  0  0  0  0
  6 19  1  6  0  0  0
  7  8  1  6  0  0  0
  7 14  1  0  0  0  0
  9 16  1  0  0  0  0
 10 11  1  6  0  0  0
 10 18  1  0  0  0  0
 12 13  1  6  0  0  0
 12 20  1  0  0  0  0
 14 15  1  1  0  0  0
 14 22  1  0  0  0  0
 16 17  1  1  0  0  0
 16 24  1  0  0  0  0
 18 19  1  6  0  0  0
 18 25  1  0  0  0  0
 20 21  1  6  0  0  0
 20 27  1  0  0  0  0
 22 23  1  6  0  0  0
 22 29  1  0  0  0  0
 24  2  1  1  0  0  0
 24 31  1  0  0  0  0
 25 26  1  0  0  0  0
 25 33  1  1  0  0  0
 27 28  1  6  0  0  0
 27 35  1  0  0  0  0
 29 30  1  0  0  0  0
 29 37  1  1  0  0  0
 31 32  1  6  0  0  0
 31 39  1  0  0  0  0
 33 34  1  0  0  0  0
 35 36  1  0  0  0  0
 35 41  1  6  0  0  0
 37 38  1  0  0  0  0
 39 40  1  6  0  0  0
 41 42  1  0  0  0  0
M  END
>  <CHROM.1>
-63.77528616,-108.74464953,-54.52397543,-80.09712886,154.95142930,-179.11008396
-59.97524508,162.29038776,-172.43149397,-67.69477008,59.75619597,-172.57739653
-171.67971312,70.95808151,-45.72910768,158.94267567,-163.79633953,-167.29177098
-82.52421815,-177.86625001,-64.61617249,-78.82255761,1.46840711,3.04549801
26.94999231,0.21733791,0.75558709,1.72842726

>  <Name>
1fyp_lig

>  <RI>
0

>  <Rbt.Current_Directory>
/home/itssahil/PROJECTS/Mol_Feturizer/New_Systems/rnas/1fyp

>  <Rbt.Executable>
rbdock ($Id: //depot/dev/client3/rdock/2013.1/src/exe/rbdock.cxx#4 $)

>  <Rbt.Library>
libRbt.so (2013.1, Build901 2013/11/27)

>  <Rbt.Parameter_File>
/export/apps/rDock/src/rDock_2013.1_src/data/scripts/dock_solv.prm

>  <Rbt.Receptor>
prm/blind_docking_40.prm

>  <SCORE>
-45.2934

>  <SCORE.INTER>
-31.5011

>  <SCORE.INTER.CONST>
1

>  <SCORE.INTER.POLAR>
-4.0957

>  <SCORE.INTER.ROT>
14

>  <SCORE.INTER.SOLV>
14.6875

>  <SCORE.INTER.VDW>
-25.1776

>  <SCORE.INTER.norm>
-0.750027

>  <SCORE.INTRA>
-13.7923

>  <SCORE.INTRA.DIHEDRAL>
-29.0843

>  <SCORE.INTRA.DIHEDRAL.0>
48.7173

>  <SCORE.INTRA.POLAR>
-0.337506

>  <SCORE.INTRA.POLAR.0>
-1.54691

>  <SCORE.INTRA.REPUL>
0.0174306

>  <SCORE.INTRA.REPUL.0>
0

>  <SCORE.INTRA.SOLV>
0.180454

>  <SCORE.INTRA.SOLV.lig_0>
-64.052

>  <SCORE.INTRA.VDW>
1.71999

>  <SCORE.INTRA.VDW.0>
-7.0667

>  <SCORE.INTRA.norm>
-0.328388

>  <SCORE.RESTR>
0

>  <SCORE.RESTR.CAVITY>
0

>  <SCORE.RESTR.norm>
0

>  <SCORE.SYSTEM>
0

>  <SCORE.SYSTEM.CONST>
0

>  <SCORE.SYSTEM.DIHEDRAL>
0

>  <SCORE.SYSTEM.SOLV>
0

>  <SCORE.SYSTEM.norm>
0

>  <SCORE.heavy>
42

>  <SCORE.norm>
-1.07842

>  <RMSD>
4.434

$$$$
1fyp_lig
 OpenBabel11021811393D
libRbt.so/2013.1/901 2013/11/27
 42 45  0  0  0  0  0  0  0  0999 V2000
    3.0137    7.6841   26.4068 C   0  0  2  0  0  0  0  0  0  0  0  0
    2.5140    6.3158   26.4302 O   0  0  0  0  0  0  0  0  0  0  0  0
    4.5964    5.1635   29.9765 C   0  0  2  0  0  0  0  0  0  0  0  0
    5.0326    4.5776   31.2575 N   0  0  0  0  0  0  0  0  0  0  0  0
    2.5251    2.9234   26.5975 C   0  0  1  0  0  0  0  0  0  0  0  0
   -0.6963   -0.0188   26.7374 C   0  0  1  0  0  0  0  0  0  0  0  0
    3.3377    8.1503   24.9509 C   0  0  2  0  0  0  0  0  0  0  0  0
    2.2003    7.8970   24.0410 N   0  0  0  0  0  0  0  0  0  0  0  0
    3.2201    5.8333   30.1611 C   0  0  0  0  0  0  0  0  0  0  0  0
    2.6522    1.5807   25.8731 C   0  0  2  0  0  0  0  0  0  0  0  0
    2.2403    1.7310   24.5139 O   0  0  0  0  0  0  0  0  0  0  0  0
   -0.5497   -1.4465   26.1279 C   0  0  2  0  0  0  0  0  0  0  0  0
   -0.4011   -1.4254   24.6522 N   0  0  0  0  0  0  0  0  0  0  0  0
    4.6255    7.4492   24.4160 C   0  0  1  0  0  0  0  0  0  0  0  0
    4.9973    7.9997   23.1549 O   0  0  0  0  0  0  0  0  0  0  0  0
    2.7095    6.4976   28.8533 C   0  0  2  0  0  0  0  0  0  0  0  0
    1.3583    7.0345   29.1174 N   0  0  0  0  0  0  0  0  0  0  0  0
    1.6704    0.7066   26.6581 C   0  0  2  0  0  0  0  0  0  0  0  0
    0.3010    0.8899   26.2023 O   0  0  0  0  0  0  0  0  0  0  0  0
   -1.7343   -2.3619   26.5657 C   0  0  1  0  0  0  0  0  0  0  0  0
   -1.5576   -2.7068   27.9381 O   0  0  0  0  0  0  0  0  0  0  0  0
    5.8167    7.6087   25.3937 C   0  0  2  0  0  0  0  0  0  0  0  0
    6.9291    6.8716   24.8955 O   0  0  0  0  0  0  0  0  0  0  0  0
    2.7065    5.5124   27.6297 C   0  0  2  0  0  0  0  0  0  0  0  0
    1.8389    1.2382   28.0883 C   0  0  2  0  0  0  0  0  0  0  0  0
    2.1546    2.6377   27.9558 O   0  0  0  0  0  0  0  0  0  0  0  0
   -3.1390   -1.7056   26.4047 C   0  0  2  0  0  0  0  0  0  0  0  0
   -3.4626   -1.6606   25.0141 O   0  0  0  0  0  0  0  0  0  0  0  0
    5.4214    7.1108   26.8128 C   0  0  2  0  0  0  0  0  0  0  0  0
    4.2126    7.8057   27.2439 O   0  0  0  0  0  0  0  0  0  0  0  0
    4.0426    4.6950   27.4992 C   0  0  2  0  0  0  0  0  0  0  0  0
    3.8138    3.6006   26.5738 O   0  0  0  0  0  0  0  0  0  0  0  0
    2.9496    0.5173   28.8727 C   0  0  0  0  0  0  0  0  0  0  0  0
    4.2272    1.0071   28.5046 O   0  0  0  0  0  0  0  0  0  0  0  0
   -3.1504   -0.2664   27.0074 C   0  0  1  0  0  0  0  0  0  0  0  0
   -2.0390    0.5046   26.4570 O   0  0  0  0  0  0  0  0  0  0  0  0
    6.4856    7.3552   27.9059 C   0  0  0  0  0  0  0  0  0  0  0  0
    7.2580    6.1903   28.1423 O   0  0  0  0  0  0  0  0  0  0  0  0
    4.5253    4.0970   28.8571 C   0  0  1  0  0  0  0  0  0  0  0  0
    5.8194    3.5251   28.6728 O   0  0  0  0  0  0  0  0  0  0  0  0
   -4.4758    0.4879   26.7293 C   0  0  0  0  0  0  0  0  0  0  0  0
   -4.3097    1.5755   25.7482 N   0  0  0  0  0  0  0  0  0  0  0  0
  1  2  1  6  0  0  0
  1  7  1  0  0  0  0
  1 30  1  0  0  0  0
  3  4  1  1  0  0  0
  3  9  1  0  0  0  0
  3 39  1  0  0  0  0
  5 10  1  0  0  0  0
  5 26  1  0  0  0  0
  5 32  1  1  0  0  0
  6 12  1  0  0  0  0
  6 36  1  0  0  0  0
  6 19  1  6  0  0  0
  7  8  1  6  0  0  0
  7 14  1  0  0  0  0
  9 16  1  0  0  0  0
 10 11  1  6  0  0  0
 10 18  1  0  0  0  0
 12 13  1  6  0  0  0
 12 20  1  0  0  0  0
 14 15  1  6  0  0  0
 14 22  1  0  0  0  0
 16 17  1  1  0  0  0
 16 24  1  0  0  0  0
 18 19  1  6  0  0  0
 18 25  1  0  0  0  0
 20 21  1  1  0  0  0
 20 27  1  0  0  0  0
 22 23  1  6  0  0  0
 22 29  1  0  0  0  0
 24  2  1  6  0  0  0
 24 31  1  0  0  0  0
 25 26  1  0  0  0  0
 25 33  1  6  0  0  0
 27 28  1  6  0  0  0
 27 35  1  0  0  0  0
 29 30  1  0  0  0  0
 29 37  1  1  0  0  0
 31 32  1  6  0  0  0
 31 39  1  0  0  0  0
 33 34  1  0  0  0  0
 35 36  1  0  0  0  0
 35 41  1  6  0  0  0
 37 38  1  0  0  0  0
 39 40  1  6  0  0  0
 41 42  1  0  0  0  0
M  END
>  <CHROM.1>
153.28757955,30.29096525,-61.24709283,59.21099589,-62.29153441,133.54836802
-162.05391082,-45.19931886,171.55890749,-72.74635655,-176.35323281,76.30328768
79.06968136,175.75246608,-98.44958949,-37.53820367,-163.05233091,166.55383035
-108.83008993,173.57287049,-56.77410555,-11.82259053,2.15176038,3.40390082
26.90884357,0.59511585,-0.63020127,-0.65204145

>  <Name>
1fyp_lig

>  <RI>
0

>  <Rbt.Current_Directory>
/home/itssahil/PROJECTS/Mol_Feturizer/New_Systems/rnas/1fyp

>  <Rbt.Executable>
rbdock ($Id: //depot/dev/client3/rdock/2013.1/src/exe/rbdock.cxx#4 $)

>  <Rbt.Library>
libRbt.so (2013.1, Build901 2013/11/27)

>  <Rbt.Parameter_File>
/export/apps/rDock/src/rDock_2013.1_src/data/scripts/dock_solv.prm

>  <Rbt.Receptor>
prm/blind_docking_60.prm

>  <SCORE>
-57.9242

>  <SCORE.INTER>
-54.549

>  <SCORE.INTER.CONST>
1

>  <SCORE.INTER.POLAR>
-6.18792

>  <SCORE.INTER.ROT>
14

>  <SCORE.INTER.SOLV>
19.218

>  <SCORE.INTER.VDW>
-35.0789

>  <SCORE.INTER.norm>
-1.29879

>  <SCORE.INTRA>
-3.52997

>  <SCORE.INTRA.DIHEDRAL>
-18.4765

>  <SCORE.INTRA.DIHEDRAL.0>
48.7173

>  <SCORE.INTRA.POLAR>
-0.127276

>  <SCORE.INTRA.POLAR.0>
-1.54691

>  <SCORE.INTRA.REPUL>
0

>  <SCORE.INTRA.REPUL.0>
0

>  <SCORE.INTRA.SOLV>
1.01938

>  <SCORE.INTRA.SOLV.lig_0>
-64.052

>  <SCORE.INTRA.VDW>
5.63132

>  <SCORE.INTRA.VDW.0>
-7.0667

>  <SCORE.INTRA.norm>
-0.084047

>  <SCORE.RESTR>
0.154846

>  <SCORE.RESTR.CAVITY>
0.154846

>  <SCORE.RESTR.norm>
0.0036868

>  <SCORE.SYSTEM>
0

>  <SCORE.SYSTEM.CONST>
0

>  <SCORE.SYSTEM.DIHEDRAL>
0

>  <SCORE.SYSTEM.SOLV>
0

>  <SCORE.SYSTEM.norm>
0

>  <SCORE.heavy>
42

>  <SCORE.norm>
-1.37915

>  <RMSD>
4.437

$$$$
1fyp_lig
 OpenBabel11021811393D
libRbt.so/2013.1/901 2013/11/27
 42 45  0  0  0  0  0  0  0  0999 V2000
    3.0394    7.6723   26.3715 C   0  0  2  0  0  0  0  0  0  0  0  0
    2.6352    6.2746   26.2969 O   0  0  0  0  0  0  0  0  0  0  0  0
    3.9181    5.0798   30.1914 C   0  0  2  0  0  0  0  0  0  0  0  0
    4.0572    4.5057   31.5425 N   0  0  0  0  0  0  0  0  0  0  0  0
    2.3809    2.7368   26.7142 C   0  0  1  0  0  0  0  0  0  0  0  0
   -0.6929   -0.4006   26.6458 C   0  0  1  0  0  0  0  0  0  0  0  0
    3.2507    8.2837   24.9489 C   0  0  2  0  0  0  0  0  0  0  0  0
    2.0847    8.0280   24.0767 N   0  0  0  0  0  0  0  0  0  0  0  0
    2.5963    5.8684   30.1028 C   0  0  0  0  0  0  0  0  0  0  0  0
    2.5830    1.4108   25.9763 C   0  0  2  0  0  0  0  0  0  0  0  0
    2.2010    1.5627   24.6086 O   0  0  0  0  0  0  0  0  0  0  0  0
   -1.5771   -0.8711   25.4509 C   0  0  2  0  0  0  0  0  0  0  0  0
   -2.1263    0.2612   24.6657 N   0  0  0  0  0  0  0  0  0  0  0  0
    4.5516    7.7257   24.2914 C   0  0  1  0  0  0  0  0  0  0  0  0
    4.8155    8.4076   23.0678 O   0  0  0  0  0  0  0  0  0  0  0  0
    2.3963    6.5259   28.7100 C   0  0  2  0  0  0  0  0  0  0  0  0
    1.0727    7.1829   28.7067 N   0  0  0  0  0  0  0  0  0  0  0  0
    1.6184    0.4858   26.7235 C   0  0  2  0  0  0  0  0  0  0  0  0
    0.2550    0.6183   26.2336 O   0  0  0  0  0  0  0  0  0  0  0  0
   -2.7104   -1.8247   25.9401 C   0  0  1  0  0  0  0  0  0  0  0  0
   -2.1309   -3.0843   26.2734 O   0  0  0  0  0  0  0  0  0  0  0  0
    5.7812    7.8862   25.2201 C   0  0  2  0  0  0  0  0  0  0  0  0
    6.9117    7.2766   24.6044 O   0  0  0  0  0  0  0  0  0  0  0  0
    2.5314    5.5013   27.5267 C   0  0  2  0  0  0  0  0  0  0  0  0
    1.7269    1.0040   28.1644 C   0  0  2  0  0  0  0  0  0  0  0  0
    1.9871    2.4171   28.0583 O   0  0  0  0  0  0  0  0  0  0  0  0
   -3.4893   -1.3015   27.1848 C   0  0  2  0  0  0  0  0  0  0  0  0
   -4.3359   -0.2273   26.7724 O   0  0  0  0  0  0  0  0  0  0  0  0
    5.4990    7.2414   26.6067 C   0  0  2  0  0  0  0  0  0  0  0  0
    4.2716    7.8078   27.1566 O   0  0  0  0  0  0  0  0  0  0  0  0
    3.7908    4.5711   27.6640 C   0  0  2  0  0  0  0  0  0  0  0  0
    3.6402    3.4672   26.7338 O   0  0  0  0  0  0  0  0  0  0  0  0
    2.8460    0.3190   28.9689 C   0  0  0  0  0  0  0  0  0  0  0  0
    4.1132    0.8526   28.6268 O   0  0  0  0  0  0  0  0  0  0  0  0
   -2.5028   -0.8156   28.2916 C   0  0  1  0  0  0  0  0  0  0  0  0
   -1.5468    0.1271   27.7171 O   0  0  0  0  0  0  0  0  0  0  0  0
    6.6027    7.4673   27.6639 C   0  0  0  0  0  0  0  0  0  0  0  0
    6.1920    7.0129   28.9423 O   0  0  0  0  0  0  0  0  0  0  0  0
    3.9601    3.9837   29.0996 C   0  0  1  0  0  0  0  0  0  0  0  0
    5.2100    3.2994   29.1712 O   0  0  0  0  0  0  0  0  0  0  0  0
   -3.2272   -0.1382   29.4830 C   0  0  0  0  0  0  0  0  0  0  0  0
   -2.2930    0.2934   30.5385 N   0  0  0  0  0  0  0  0  0  0  0  0
  1  2  1  6  0  0  0
  1  7  1  0  0  0  0
  1 30  1  0  0  0  0
  3  4  1  1  0  0  0
  3  9  1  0  0  0  0
  3 39  1  0  0  0  0
  5 10  1  0  0  0  0
  5 26  1  0  0  0  0
  5 32  1  1  0  0  0
  6 12  1  0  0  0  0
  6 36  1  0  0  0  0
  6 19  1  6  0  0  0
  7  8  1  6  0  0  0
  7 14  1  0  0  0  0
  9 16  1  0  0  0  0
 10 11  1  6  0  0  0
 10 18  1  0  0  0  0
 12 13  1  1  0  0  0
 12 20  1  0  0  0  0
 14 15  1  6  0  0  0
 14 22  1  0  0  0  0
 16 17  1  1  0  0  0
 16 24  1  0  0  0  0
 18 19  1  6  0  0  0
 18 25  1  0  0  0  0
 20 21  1  1  0  0  0
 20 27  1  0  0  0  0
 22 23  1  6  0  0  0
 22 29  1  0  0  0  0
 24  2  1  6  0  0  0
 24 31  1  0  0  0  0
 25 26  1  0  0  0  0
 25 33  1  6  0  0  0
 27 28  1  6  0  0  0
 27 35  1  0  0  0  0
 29 30  1  0  0  0  0
 29 37  1  1  0  0  0
 31 32  1  6  0  0  0
 31 39  1  0  0  0  0
 33 34  1  0  0  0  0
 35 36  1  0  0  0  0
 35 41  1  1  0  0  0
 37 38  1  0  0  0  0
 39 40  1  6  0  0  0
 41 42  1  0  0  0  0
M  END
>  <CHROM.1>
173.50556801,20.07690821,64.58409086,-45.29844512,-178.89154079,152.89869939
-176.79280685,-145.80224194,166.80235528,-135.97755441,-65.28325817,-43.97396771
78.18843902,175.06785193,171.89480141,-49.03872296,-164.03295714,162.07747333
178.79879939,-51.55355413,75.61746336,125.69742989,1.95948052,3.43310846
27.17466794,0.42082918,-0.79024732,-1.08777300

>  <Name>
1fyp_lig

>  <RI>
0

>  <Rbt.Current_Directory>
/home/itssahil/PROJECTS/Mol_Feturizer/New_Systems/rnas/1fyp

>  <Rbt.Executable>
rbdock ($Id: //depot/dev/client3/rdock/2013.1/src/exe/rbdock.cxx#4 $)

>  <Rbt.Library>
libRbt.so (2013.1, Build901 2013/11/27)

>  <Rbt.Parameter_File>
/export/apps/rDock/src/rDock_2013.1_src/data/scripts/dock_solv.prm

>  <Rbt.Receptor>
prm/blind_docking_60.prm

>  <SCORE>
-55.3507

>  <SCORE.INTER>
-51.6442

>  <SCORE.INTER.CONST>
1

>  <SCORE.INTER.POLAR>
-6.59508

>  <SCORE.INTER.ROT>
14

>  <SCORE.INTER.SOLV>
17.0005

>  <SCORE.INTER.VDW>
-31.0461

>  <SCORE.INTER.norm>
-1.22962

>  <SCORE.INTRA>
-3.7081

>  <SCORE.INTRA.DIHEDRAL>
-23.1349

>  <SCORE.INTRA.DIHEDRAL.0>
48.7173

>  <SCORE.INTRA.POLAR>
0.986162

>  <SCORE.INTRA.POLAR.0>
-1.54691

>  <SCORE.INTRA.REPUL>
0

>  <SCORE.INTRA.REPUL.0>
0

>  <SCORE.INTRA.SOLV>
-0.0229604

>  <SCORE.INTRA.SOLV.lig_0>
-64.052

>  <SCORE.INTRA.VDW>
4.51788

>  <SCORE.INTRA.VDW.0>
-7.0667

>  <SCORE.INTRA.norm>
-0.0882882

>  <SCORE.RESTR>
0.00162153

>  <SCORE.RESTR.CAVITY>
0.00162153

>  <SCORE.RESTR.norm>
3.86078e-05

>  <SCORE.SYSTEM>
0

>  <SCORE.SYSTEM.CONST>
0

>  <SCORE.SYSTEM.DIHEDRAL>
0

>  <SCORE.SYSTEM.SOLV>
0

>  <SCORE.SYSTEM.norm>
0

>  <SCORE.heavy>
42

>  <SCORE.norm>
-1.31787

>  <RMSD>
4.454

$$$$
1fyp_lig
 OpenBabel11021811393D
libRbt.so/2013.1/901 2013/11/27
 42 45  0  0  0  0  0  0  0  0999 V2000
    3.0858    7.8092   26.4732 C   0  0  2  0  0  0  0  0  0  0  0  0
    2.2881    6.5903   26.4553 O   0  0  0  0  0  0  0  0  0  0  0  0
    3.9170    5.0577   30.0938 C   0  0  2  0  0  0  0  0  0  0  0  0
    4.1698    4.3808   31.3793 N   0  0  0  0  0  0  0  0  0  0  0  0
    1.8979    3.0368   26.6672 C   0  0  1  0  0  0  0  0  0  0  0  0
   -1.2886    0.0073   25.8946 C   0  0  1  0  0  0  0  0  0  0  0  0
    3.6223    8.1631   25.0487 C   0  0  2  0  0  0  0  0  0  0  0  0
    2.5334    8.1571   24.0488 N   0  0  0  0  0  0  0  0  0  0  0  0
    2.6372    5.9100   30.2059 C   0  0  0  0  0  0  0  0  0  0  0  0
    1.8523    1.9265   25.6142 C   0  0  2  0  0  0  0  0  0  0  0  0
    1.2129    2.4141   24.4340 O   0  0  0  0  0  0  0  0  0  0  0  0
   -1.2068   -0.4183   24.3968 C   0  0  2  0  0  0  0  0  0  0  0  0
   -1.3148    0.7337   23.4686 N   0  0  0  0  0  0  0  0  0  0  0  0
    4.7557    7.1789   24.6210 C   0  0  1  0  0  0  0  0  0  0  0  0
    5.3422    7.6076   23.3946 O   0  0  0  0  0  0  0  0  0  0  0  0
    2.3239    6.6757   28.8914 C   0  0  2  0  0  0  0  0  0  0  0  0
    1.0444    7.3907   29.0794 N   0  0  0  0  0  0  0  0  0  0  0  0
    0.9962    0.8666   26.3129 C   0  0  2  0  0  0  0  0  0  0  0  0
   -0.4254    1.1411   26.1703 O   0  0  0  0  0  0  0  0  0  0  0  0
   -2.2711   -1.5111   24.0708 C   0  0  1  0  0  0  0  0  0  0  0  0
   -1.8510   -2.7419   24.6559 O   0  0  0  0  0  0  0  0  0  0  0  0
    5.8701    7.0825   25.6929 C   0  0  2  0  0  0  0  0  0  0  0  0
    6.8220    6.1037   25.2874 O   0  0  0  0  0  0  0  0  0  0  0  0
    2.2762    5.7349   27.6341 C   0  0  2  0  0  0  0  0  0  0  0  0
    1.4306    1.0164   27.7776 C   0  0  2  0  0  0  0  0  0  0  0  0
    1.7629    2.4074   27.9516 O   0  0  0  0  0  0  0  0  0  0  0  0
   -3.7013   -1.1838   24.5973 C   0  0  2  0  0  0  0  0  0  0  0  0
   -4.2602   -0.1523   23.7823 O   0  0  0  0  0  0  0  0  0  0  0  0
    5.2601    6.7133   27.0748 C   0  0  2  0  0  0  0  0  0  0  0  0
    4.2103    7.6716   27.4057 O   0  0  0  0  0  0  0  0  0  0  0  0
    3.4917    4.7408   27.5676 C   0  0  2  0  0  0  0  0  0  0  0  0
    3.1834    3.7157   26.5875 O   0  0  0  0  0  0  0  0  0  0  0  0
    2.6382    0.1344   28.1416 C   0  0  0  0  0  0  0  0  0  0  0  0
    3.0701    0.3913   29.4664 O   0  0  0  0  0  0  0  0  0  0  0  0
   -3.6514   -0.7253   26.0879 C   0  0  1  0  0  0  0  0  0  0  0  0
   -2.6744    0.3496   26.2379 O   0  0  0  0  0  0  0  0  0  0  0  0
    6.2613    6.7305   28.2514 C   0  0  0  0  0  0  0  0  0  0  0  0
    6.7726    8.0339   28.4734 O   0  0  0  0  0  0  0  0  0  0  0  0
    3.7829    4.0433   28.9326 C   0  0  1  0  0  0  0  0  0  0  0  0
    4.9951    3.2994   28.8187 O   0  0  0  0  0  0  0  0  0  0  0  0
   -5.0265   -0.2351   26.6091 C   0  0  0  0  0  0  0  0  0  0  0  0
   -6.1161   -1.1772   26.2956 N   0  0  0  0  0  0  0  0  0  0  0  0
  1  2  1  6  0  0  0
  1  7  1  0  0  0  0
  1 30  1  0  0  0  0
  3  4  1  1  0  0  0
  3  9  1  0  0  0  0
  3 39  1  0  0  0  0
  5 10  1  0  0  0  0
  5 26  1  0  0  0  0
  5 32  1  1  0  0  0
  6 12  1  0  0  0  0
  6 36  1  0  0  0  0
  6 19  1  6  0  0  0
  7  8  1  6  0  0  0
  7 14  1  0  0  0  0
  9 16  1  0  0  0  0
 10 11  1  6  0  0  0
 10 18  1  0  0  0  0
 12 13  1  6  0  0  0
 12 20  1  0  0  0  0
 14 15  1  6  0  0  0
 14 22  1  0  0  0  0
 16 17  1  1  0  0  0
 16 24  1  0  0  0  0
 18 19  1  1  0  0  0
 18 25  1  0  0  0  0
 20 21  1  1  0  0  0
 20 27  1  0  0  0  0
 22 23  1  6  0  0  0
 22 29  1  0  0  0  0
 24  2  1  6  0  0  0
 24 31  1  0  0  0  0
 25 26  1  0  0  0  0
 25 33  1  6  0  0  0
 27 28  1  6  0  0  0
 27 35  1  0  0  0  0
 29 30  1  0  0  0  0
 29 37  1  1  0  0  0
 31 32  1  6  0  0  0
 31 39  1  0  0  0  0
 33 34  1  0  0  0  0
 35 36  1  0  0  0  0
 35 41  1  6  0  0  0
 37 38  1  0  0  0  0
 39 40  1  6  0  0  0
 41 42  1  0  0  0  0
M  END
>  <CHROM.1>
148.78655876,36.49226786,-54.67724367,33.31552367,-71.63617967,170.39138519
-52.04737452,80.87409452,138.33891232,-77.93729057,60.41174285,34.97315346
175.05215044,68.13378626,63.81303181,-49.67833050,-175.19051816,-52.41869113
48.76444328,-179.81334125,70.15320612,38.15982404,1.66480827,3.45383581,26.65227932
0.24327292,-0.76648937,-0.98326056

>  <Name>
1fyp_lig

>  <RI>
0

>  <Rbt.Current_Directory>
/home/itssahil/PROJECTS/Mol_Feturizer/New_Systems/rnas/1fyp

>  <Rbt.Executable>
rbdock ($Id: //depot/dev/client3/rdock/2013.1/src/exe/rbdock.cxx#4 $)

>  <Rbt.Library>
libRbt.so (2013.1, Build901 2013/11/27)

>  <Rbt.Parameter_File>
/export/apps/rDock/src/rDock_2013.1_src/data/scripts/dock_solv.prm

>  <Rbt.Receptor>
prm/pocket_docking_5.prm

>  <SCORE>
-50.6802

>  <SCORE.INTER>
-46.7983

>  <SCORE.INTER.CONST>
1

>  <SCORE.INTER.POLAR>
-6.82987

>  <SCORE.INTER.ROT>
14

>  <SCORE.INTER.SOLV>
17.0492

>  <SCORE.INTER.VDW>
-27.0491

>  <SCORE.INTER.norm>
-1.11425

>  <SCORE.INTRA>
-3.88189

>  <SCORE.INTRA.DIHEDRAL>
-26.578

>  <SCORE.INTRA.DIHEDRAL.0>
48.7173

>  <SCORE.INTRA.POLAR>
0.970422

>  <SCORE.INTRA.POLAR.0>
-1.54691

>  <SCORE.INTRA.REPUL>
0

>  <SCORE.INTRA.REPUL.0>
0

>  <SCORE.INTRA.SOLV>
-0.518834

>  <SCORE.INTRA.SOLV.lig_0>
-64.052

>  <SCORE.INTRA.VDW>
6.3671

>  <SCORE.INTRA.VDW.0>
-7.0667

>  <SCORE.INTRA.norm>
-0.092426

>  <SCORE.RESTR>
0

>  <SCORE.RESTR.CAVITY>
0

>  <SCORE.RESTR.norm>
0

>  <SCORE.SYSTEM>
0

>  <SCORE.SYSTEM.CONST>
0

>  <SCORE.SYSTEM.DIHEDRAL>
0

>  <SCORE.SYSTEM.SOLV>
0

>  <SCORE.SYSTEM.norm>
0

>  <SCORE.heavy>
42

>  <SCORE.norm>
-1.20667

>  <RMSD>
4.457

$$$$
1fyp_lig
 OpenBabel11021811393D
libRbt.so/2013.1/901 2013/11/27
 42 45  0  0  0  0  0  0  0  0999 V2000
    3.1634    7.5159   26.4603 C   0  0  2  0  0  0  0  0  0  0  0  0
    2.5824    6.1807   26.4123 O   0  0  0  0  0  0  0  0  0  0  0  0
    4.5019    4.6392   29.9024 C   0  0  2  0  0  0  0  0  0  0  0  0
    4.8564    3.9649   31.1649 N   0  0  0  0  0  0  0  0  0  0  0  0
    2.1418    2.6528   26.6684 C   0  0  1  0  0  0  0  0  0  0  0  0
   -1.0913   -0.3241   27.1192 C   0  0  1  0  0  0  0  0  0  0  0  0
    3.4638    8.0612   25.0270 C   0  0  2  0  0  0  0  0  0  0  0  0
    2.2819    7.9377   24.1475 N   0  0  0  0  0  0  0  0  0  0  0  0
    3.2517    5.5143   30.1217 C   0  0  0  0  0  0  0  0  0  0  0  0
    2.1743    1.2623   26.0289 C   0  0  2  0  0  0  0  0  0  0  0  0
    1.6444    1.3336   24.7046 O   0  0  0  0  0  0  0  0  0  0  0  0
   -2.2387   -0.5931   26.0982 C   0  0  2  0  0  0  0  0  0  0  0  0
   -2.8223    0.6565   25.5521 N   0  0  0  0  0  0  0  0  0  0  0  0
    4.6870    7.3244   24.3967 C   0  0  1  0  0  0  0  0  0  0  0  0
    5.0471    7.9375   23.1613 O   0  0  0  0  0  0  0  0  0  0  0  0
    2.8359    6.2784   28.8350 C   0  0  2  0  0  0  0  0  0  0  0  0
    1.5905    7.0167   29.1309 N   0  0  0  0  0  0  0  0  0  0  0  0
    1.2492    0.4690   26.9559 C   0  0  2  0  0  0  0  0  0  0  0  0
   -0.1516    0.6590   26.6121 O   0  0  0  0  0  0  0  0  0  0  0  0
   -3.3375   -1.5058   26.7249 C   0  0  1  0  0  0  0  0  0  0  0  0
   -2.8272   -2.8345   26.8131 O   0  0  0  0  0  0  0  0  0  0  0  0
    5.9193    7.3467   25.3354 C   0  0  2  0  0  0  0  0  0  0  0  0
    6.9665    6.5818   24.7463 O   0  0  0  0  0  0  0  0  0  0  0  0
    2.6608    5.3319   27.5934 C   0  0  2  0  0  0  0  0  0  0  0  0
    1.5577    1.0891   28.3258 C   0  0  2  0  0  0  0  0  0  0  0  0
    1.8897    2.4676   28.0706 O   0  0  0  0  0  0  0  0  0  0  0  0
   -3.7963   -1.0641   28.1476 C   0  0  2  0  0  0  0  0  0  0  0  0
   -4.6006    0.1098   28.0215 O   0  0  0  0  0  0  0  0  0  0  0  0
    5.5445    6.7765   26.7328 C   0  0  2  0  0  0  0  0  0  0  0  0
    4.3962    7.5096   27.2561 O   0  0  0  0  0  0  0  0  0  0  0  0
    3.8485    4.3164   27.4261 C   0  0  2  0  0  0  0  0  0  0  0  0
    3.4371    3.2916   26.4842 O   0  0  0  0  0  0  0  0  0  0  0  0
    2.7193    0.3915   29.0557 C   0  0  0  0  0  0  0  0  0  0  0  0
    3.8684    0.3262   28.2293 O   0  0  0  0  0  0  0  0  0  0  0  0
   -2.5654   -0.7781   29.0628 C   0  0  1  0  0  0  0  0  0  0  0  0
   -1.6578    0.1466   28.3892 O   0  0  0  0  0  0  0  0  0  0  0  0
    6.6594    6.8829   27.7971 C   0  0  0  0  0  0  0  0  0  0  0  0
    7.8727    6.3179   27.3301 O   0  0  0  0  0  0  0  0  0  0  0  0
    4.2480    3.6211   28.7646 C   0  0  1  0  0  0  0  0  0  0  0  0
    5.4325    2.8556   28.5487 O   0  0  0  0  0  0  0  0  0  0  0  0
   -2.9670   -0.1818   30.4362 C   0  0  0  0  0  0  0  0  0  0  0  0
   -3.7641   -1.1206   31.2464 N   0  0  0  0  0  0  0  0  0  0  0  0
  1  2  1  6  0  0  0
  1  7  1  0  0  0  0
  1 30  1  0  0  0  0
  3  4  1  1  0  0  0
  3  9  1  0  0  0  0
  3 39  1  0  0  0  0
  5 10  1  0  0  0  0
  5 26  1  0  0  0  0
  5 32  1  1  0  0  0
  6 12  1  0  0  0  0
  6 36  1  0  0  0  0
  6 19  1  6  0  0  0
  7  8  1  6  0  0  0
  7 14  1  0  0  0  0
  9 16  1  0  0  0  0
 10 11  1  6  0  0  0
 10 18  1  0  0  0  0
 12 13  1  1  0  0  0
 12 20  1  0  0  0  0
 14 15  1  6  0  0  0
 14 22  1  0  0  0  0
 16 17  1  1  0  0  0
 16 24  1  0  0  0  0
 18 19  1  6  0  0  0
 18 25  1  0  0  0  0
 20 21  1  1  0  0  0
 20 27  1  0  0  0  0
 22 23  1  6  0  0  0
 22 29  1  0  0  0  0
 24  2  1  6  0  0  0
 24 31  1  0  0  0  0
 25 26  1  0  0  0  0
 25 33  1  6  0  0  0
 27 28  1  6  0  0  0
 27 35  1  0  0  0  0
 29 30  1  0  0  0  0
 29 37  1  1  0  0  0
 31 32  1  6  0  0  0
 31 39  1  0  0  0  0
 33 34  1  0  0  0  0
 35 36  1  0  0  0  0
 35 41  1  1  0  0  0
 37 38  1  0  0  0  0
 39 40  1  6  0  0  0
 41 42  1  0  0  0  0
M  END
>  <CHROM.1>
158.90542888,23.38574356,35.43129921,51.94954110,-73.31921440,156.12824897
-170.44964834,62.54561359,161.58222671,-144.46818761,62.12031138,179.96242549
53.12498460,68.64681349,-53.01444310,-48.58402161,-154.69186172,69.56076959
64.40258841,-93.26266310,-55.16153576,77.09589068,1.93303402,3.23895873,27.34074832
0.54278866,-0.60527976,-0.96107473

>  <Name>
1fyp_lig

>  <RI>
0

>  <Rbt.Current_Directory>
/home/itssahil/PROJECTS/Mol_Feturizer/New_Systems/rnas/1fyp

>  <Rbt.Executable>
rbdock ($Id: //depot/dev/client3/rdock/2013.1/src/exe/rbdock.cxx#4 $)

>  <Rbt.Library>
libRbt.so (2013.1, Build901 2013/11/27)

>  <Rbt.Parameter_File>
/export/apps/rDock/src/rDock_2013.1_src/data/scripts/dock_solv.prm

>  <Rbt.Receptor>
prm/pocket_docking_3.prm

>  <SCORE>
-44.3517

>  <SCORE.INTER>
-38.2256

>  <SCORE.INTER.CONST>
1

>  <SCORE.INTER.POLAR>
-3.93785

>  <SCORE.INTER.ROT>
14

>  <SCORE.INTER.SOLV>
18.0864

>  <SCORE.INTER.VDW>
-31.3197

>  <SCORE.INTER.norm>
-0.910133

>  <SCORE.INTRA>
-7.18804

>  <SCORE.INTRA.DIHEDRAL>
-22.436

>  <SCORE.INTRA.DIHEDRAL.0>
48.7173

>  <SCORE.INTRA.POLAR>
-0.628091

>  <SCORE.INTRA.POLAR.0>
-1.54691

>  <SCORE.INTRA.REPUL>
0.00352043

>  <SCORE.INTRA.REPUL.0>
0

>  <SCORE.INTRA.SOLV>
-0.14972

>  <SCORE.INTRA.SOLV.lig_0>
-64.052

>  <SCORE.INTRA.VDW>
6.22273

>  <SCORE.INTRA.VDW.0>
-7.0667

>  <SCORE.INTRA.norm>
-0.171144

>  <SCORE.RESTR>
1.06196

>  <SCORE.RESTR.CAVITY>
1.06196

>  <SCORE.RESTR.norm>
0.0252847

>  <SCORE.SYSTEM>
0

>  <SCORE.SYSTEM.CONST>
0

>  <SCORE.SYSTEM.DIHEDRAL>
0

>  <SCORE.SYSTEM.SOLV>
0

>  <SCORE.SYSTEM.norm>
0

>  <SCORE.heavy>
42

>  <SCORE.norm>
-1.05599

>  <RMSD>
4.461

$$$$
1fyp_lig
 OpenBabel11021811393D
libRbt.so/2013.1/901 2013/11/27
 42 45  0  0  0  0  0  0  0  0999 V2000
    3.1516    7.6021   27.0244 C   0  0  2  0  0  0  0  0  0  0  0  0
    2.7685    6.2099   26.8312 O   0  0  0  0  0  0  0  0  0  0  0  0
    5.0404    4.5605   30.0497 C   0  0  2  0  0  0  0  0  0  0  0  0
    5.5407    3.8035   31.2121 N   0  0  0  0  0  0  0  0  0  0  0  0
    2.6753    2.8479   26.5431 C   0  0  1  0  0  0  0  0  0  0  0  0
   -0.4729   -0.1649   25.6243 C   0  0  1  0  0  0  0  0  0  0  0  0
    2.8937    8.4506   25.7378 C   0  0  2  0  0  0  0  0  0  0  0  0
    1.5169    8.2573   25.2349 N   0  0  0  0  0  0  0  0  0  0  0  0
    3.7001    5.2307   30.4124 C   0  0  0  0  0  0  0  0  0  0  0  0
    2.7127    1.5904   25.6708 C   0  0  2  0  0  0  0  0  0  0  0  0
    2.2538    1.9077   24.3562 O   0  0  0  0  0  0  0  0  0  0  0  0
   -0.2308   -0.5387   24.1300 C   0  0  2  0  0  0  0  0  0  0  0  0
   -0.2494    0.6439   23.2349 N   0  0  0  0  0  0  0  0  0  0  0  0
    3.9307    8.1020   24.6246 C   0  0  1  0  0  0  0  0  0  0  0  0
    3.7842    8.9912   23.5203 O   0  0  0  0  0  0  0  0  0  0  0  0
    3.1263    6.0706   29.2386 C   0  0  2  0  0  0  0  0  0  0  0  0
    1.8122    6.5981   29.6611 N   0  0  0  0  0  0  0  0  0  0  0  0
    1.7249    0.6744   26.3985 C   0  0  2  0  0  0  0  0  0  0  0  0
    0.3479    0.9622   26.0274 O   0  0  0  0  0  0  0  0  0  0  0  0
   -1.2465   -1.6240   23.6572 C   0  0  1  0  0  0  0  0  0  0  0  0
   -0.8810   -2.8724   24.2416 O   0  0  0  0  0  0  0  0  0  0  0  0
    5.3873    8.1971   25.1438 C   0  0  2  0  0  0  0  0  0  0  0  0
    6.2767    7.7787   24.1129 O   0  0  0  0  0  0  0  0  0  0  0  0
    3.0137    5.2532   27.9017 C   0  0  2  0  0  0  0  0  0  0  0  0
    1.9743    1.0359   27.8693 C   0  0  2  0  0  0  0  0  0  0  0  0
    2.3470    2.4277   27.8771 O   0  0  0  0  0  0  0  0  0  0  0  0
   -2.7266   -1.3206   24.0409 C   0  0  2  0  0  0  0  0  0  0  0  0
   -3.2046   -0.2641   23.2066 O   0  0  0  0  0  0  0  0  0  0  0  0
    5.5671    7.3164   26.4128 C   0  0  2  0  0  0  0  0  0  0  0  0
    4.5658    7.6961   27.4042 O   0  0  0  0  0  0  0  0  0  0  0  0
    4.3129    4.4306   27.5765 C   0  0  2  0  0  0  0  0  0  0  0  0
    3.9910    3.4711   26.5361 O   0  0  0  0  0  0  0  0  0  0  0  0
    3.0821    0.1880   28.5192 C   0  0  0  0  0  0  0  0  0  0  0  0
    3.1425    0.4204   29.9157 O   0  0  0  0  0  0  0  0  0  0  0  0
   -2.8372   -0.9132   25.5429 C   0  0  1  0  0  0  0  0  0  0  0  0
   -1.8896    0.1599   25.8311 O   0  0  0  0  0  0  0  0  0  0  0  0
    6.9435    7.4458   27.1025 C   0  0  0  0  0  0  0  0  0  0  0  0
    6.8504    7.1797   28.4917 O   0  0  0  0  0  0  0  0  0  0  0  0
    4.8641    3.6505   28.8102 C   0  0  1  0  0  0  0  0  0  0  0  0
    6.1254    3.0791   28.4661 O   0  0  0  0  0  0  0  0  0  0  0  0
   -4.2633   -0.4466   25.9326 C   0  0  0  0  0  0  0  0  0  0  0  0
   -5.2948   -1.4425   25.5902 N   0  0  0  0  0  0  0  0  0  0  0  0
  1  2  1  6  0  0  0
  1  7  1  0  0  0  0
  1 30  1  0  0  0  0
  3  4  1  1  0  0  0
  3  9  1  0  0  0  0
  3 39  1  0  0  0  0
  5 10  1  0  0  0  0
  5 26  1  0  0  0  0
  5 32  1  1  0  0  0
  6 12  1  0  0  0  0
  6 36  1  0  0  0  0
  6 19  1  6  0  0  0
  7  8  1  6  0  0  0
  7 14  1  0  0  0  0
  9 16  1  0  0  0  0
 10 11  1  6  0  0  0
 10 18  1  0  0  0  0
 12 13  1  6  0  0  0
 12 20  1  0  0  0  0
 14 15  1  6  0  0  0
 14 22  1  0  0  0  0
 16 17  1  1  0  0  0
 16 24  1  0  0  0  0
 18 19  1  6  0  0  0
 18 25  1  0  0  0  0
 20 21  1  1  0  0  0
 20 27  1  0  0  0  0
 22 23  1  6  0  0  0
 22 29  1  0  0  0  0
 24  2  1  6  0  0  0
 24 31  1  0  0  0  0
 25 26  1  0  0  0  0
 25 33  1  6  0  0  0
 27 28  1  6  0  0  0
 27 35  1  0  0  0  0
 29 30  1  0  0  0  0
 29 37  1  1  0  0  0
 31 32  1  6  0  0  0
 31 39  1  0  0  0  0
 33 34  1  0  0  0  0
 35 36  1  0  0  0  0
 35 41  1  6  0  0  0
 37 38  1  0  0  0  0
 39 40  1  6  0  0  0
 41 42  1  0  0  0  0
M  END
>  <CHROM.1>
176.36250722,22.25922830,-29.33918024,-65.85745197,61.05631107,83.94176670
-167.41052154,100.66272706,129.75234700,-82.04899689,-178.52422740,68.82915369
-171.52207932,60.77790702,151.90031913,-36.15347446,-162.14293015,-133.17606338
54.27750857,-46.27115296,52.22314940,-150.01130324,2.19410642,3.39500346
26.54750250,0.46267338,-0.77138256,-0.66853491

>  <Name>
1fyp_lig

>  <RI>
0

>  <Rbt.Current_Directory>
/home/itssahil/PROJECTS/Mol_Feturizer/New_Systems/rnas/1fyp

>  <Rbt.Executable>
rbdock ($Id: //depot/dev/client3/rdock/2013.1/src/exe/rbdock.cxx#4 $)

>  <Rbt.Library>
libRbt.so (2013.1, Build901 2013/11/27)

>  <Rbt.Parameter_File>
/export/apps/rDock/src/rDock_2013.1_src/data/scripts/dock_solv.prm

>  <Rbt.Receptor>
prm/blind_docking_40.prm

>  <SCORE>
-53.9906

>  <SCORE.INTER>
-51.7709

>  <SCORE.INTER.CONST>
1

>  <SCORE.INTER.POLAR>
-7.19867

>  <SCORE.INTER.ROT>
14

>  <SCORE.INTER.SOLV>
19.0337

>  <SCORE.INTER.VDW>
-29.7963

>  <SCORE.INTER.norm>
-1.23264

>  <SCORE.INTRA>
-2.30087

>  <SCORE.INTRA.DIHEDRAL>
-14.1081

>  <SCORE.INTRA.DIHEDRAL.0>
48.7173

>  <SCORE.INTRA.POLAR>
0.322308

>  <SCORE.INTRA.POLAR.0>
-1.54691

>  <SCORE.INTRA.REPUL>
0

>  <SCORE.INTRA.REPUL.0>
0

>  <SCORE.INTRA.SOLV>
-1.40302

>  <SCORE.INTRA.SOLV.lig_0>
-64.052

>  <SCORE.INTRA.VDW>
4.35882

>  <SCORE.INTRA.VDW.0>
-7.0667

>  <SCORE.INTRA.norm>
-0.0547827

>  <SCORE.RESTR>
0.0811381

>  <SCORE.RESTR.CAVITY>
0.0811381

>  <SCORE.RESTR.norm>
0.00193186

>  <SCORE.SYSTEM>
0

>  <SCORE.SYSTEM.CONST>
0

>  <SCORE.SYSTEM.DIHEDRAL>
0

>  <SCORE.SYSTEM.SOLV>
0

>  <SCORE.SYSTEM.norm>
0

>  <SCORE.heavy>
42

>  <SCORE.norm>
-1.28549

>  <RMSD>
4.507

$$$$
1fyp_lig
 OpenBabel11021811393D
libRbt.so/2013.1/901 2013/11/27
 42 45  0  0  0  0  0  0  0  0999 V2000
    3.7842    7.5455   26.5603 C   0  0  2  0  0  0  0  0  0  0  0  0
    3.1071    6.2716   26.3576 O   0  0  0  0  0  0  0  0  0  0  0  0
    4.4607    4.4471   29.9742 C   0  0  2  0  0  0  0  0  0  0  0  0
    4.6122    3.6805   31.2248 N   0  0  0  0  0  0  0  0  0  0  0  0
    2.5129    2.9218   26.1594 C   0  0  1  0  0  0  0  0  0  0  0  0
   -0.9063    0.3174   24.9577 C   0  0  1  0  0  0  0  0  0  0  0  0
    3.2308    8.6471   25.5999 C   0  0  2  0  0  0  0  0  0  0  0  0
    1.7555    8.7199   25.6611 N   0  0  0  0  0  0  0  0  0  0  0  0
    3.2084    5.3413   30.0692 C   0  0  0  0  0  0  0  0  0  0  0  0
    2.5107    1.6256   25.3448 C   0  0  2  0  0  0  0  0  0  0  0  0
    2.3177    1.9307   23.9631 O   0  0  0  0  0  0  0  0  0  0  0  0
   -2.0485    0.9001   24.0706 C   0  0  2  0  0  0  0  0  0  0  0  0
   -2.6059    2.1630   24.6135 N   0  0  0  0  0  0  0  0  0  0  0  0
    3.7001    8.3930   24.1332 C   0  0  1  0  0  0  0  0  0  0  0  0
    3.3230    9.4863   23.3000 O   0  0  0  0  0  0  0  0  0  0  0  0
    3.0016    6.2008   28.7921 C   0  0  2  0  0  0  0  0  0  0  0  0
    1.7401    6.9533   28.9538 N   0  0  0  0  0  0  0  0  0  0  0  0
    1.2995    0.8916   25.9266 C   0  0  2  0  0  0  0  0  0  0  0  0
    0.0545    1.3420   25.3235 O   0  0  0  0  0  0  0  0  0  0  0  0
   -3.1683   -0.1608   23.8389 C   0  0  1  0  0  0  0  0  0  0  0  0
   -2.6813   -1.1420   22.9259 O   0  0  0  0  0  0  0  0  0  0  0  0
    5.2361    8.2117   24.0429 C   0  0  2  0  0  0  0  0  0  0  0  0
    5.5884    7.8918   22.7004 O   0  0  0  0  0  0  0  0  0  0  0  0
    2.9943    5.3443   27.4751 C   0  0  2  0  0  0  0  0  0  0  0  0
    1.3592    1.2948   27.4066 C   0  0  2  0  0  0  0  0  0  0  0  0
    1.9193    2.6220   27.4328 O   0  0  0  0  0  0  0  0  0  0  0  0
   -3.6328   -0.8896   25.1362 C   0  0  2  0  0  0  0  0  0  0  0  0
   -4.4160    0.0190   25.9119 O   0  0  0  0  0  0  0  0  0  0  0  0
    5.7059    7.0915   25.0138 C   0  0  2  0  0  0  0  0  0  0  0  0
    5.2299    7.3946   26.3597 O   0  0  0  0  0  0  0  0  0  0  0  0
    4.1746    4.3084   27.4126 C   0  0  2  0  0  0  0  0  0  0  0  0
    3.8877    3.3608   26.3514 O   0  0  0  0  0  0  0  0  0  0  0  0
    2.2173    0.3415   28.2572 C   0  0  0  0  0  0  0  0  0  0  0  0
    3.5952    0.6393   28.1147 O   0  0  0  0  0  0  0  0  0  0  0  0
   -2.4057   -1.3849   25.9629 C   0  0  1  0  0  0  0  0  0  0  0  0
   -1.4765   -0.2780   26.1725 O   0  0  0  0  0  0  0  0  0  0  0  0
    7.2382    6.9210   25.1146 C   0  0  0  0  0  0  0  0  0  0  0  0
    7.5902    6.0427   26.1701 O   0  0  0  0  0  0  0  0  0  0  0  0
    4.3589    3.5146   28.7432 C   0  0  1  0  0  0  0  0  0  0  0  0
    5.5478    2.7314   28.6497 O   0  0  0  0  0  0  0  0  0  0  0  0
   -2.8099   -1.9731   27.3391 C   0  0  0  0  0  0  0  0  0  0  0  0
   -1.6480   -2.4488   28.1115 N   0  0  0  0  0  0  0  0  0  0  0  0
  1  2  1  6  0  0  0
  1  7  1  0  0  0  0
  1 30  1  0  0  0  0
  3  4  1  1  0  0  0
  3  9  1  0  0  0  0
  3 39  1  0  0  0  0
  5 10  1  0  0  0  0
  5 26  1  0  0  0  0
  5 32  1  1  0  0  0
  6 12  1  0  0  0  0
  6 36  1  0  0  0  0
  6 19  1  1  0  0  0
  7  8  1  6  0  0  0
  7 14  1  0  0  0  0
  9 16  1  0  0  0  0
 10 11  1  6  0  0  0
 10 18  1  0  0  0  0
 12 13  1  1  0  0  0
 12 20  1  0  0  0  0
 14 15  1  6  0  0  0
 14 22  1  0  0  0  0
 16 17  1  1  0  0  0
 16 24  1  0  0  0  0
 18 19  1  6  0  0  0
 18 25  1  0  0  0  0
 20 21  1  6  0  0  0
 20 27  1  0  0  0  0
 22 23  1  6  0  0  0
 22 29  1  0  0  0  0
 24  2  1  6  0  0  0
 24 31  1  0  0  0  0
 25 26  1  0  0  0  0
 25 33  1  1  0  0  0
 27 28  1  1  0  0  0
 27 35  1  0  0  0  0
 29 30  1  0  0  0  0
 29 37  1  1  0  0  0
 31 32  1  6  0  0  0
 31 39  1  0  0  0  0
 33 34  1  0  0  0  0
 35 36  1  0  0  0  0
 35 41  1  1  0  0  0
 37 38  1  0  0  0  0
 39 40  1  6  0  0  0
 41 42  1  0  0  0  0
M  END
>  <CHROM.1>
-151.52426146,27.69074868,-53.59319683,-120.75844625,171.73734441,-165.64401529
-165.79428835,-112.51323235,136.26913942,-168.41196540,-54.61510970,65.91333413
80.38445372,58.82816747,170.39584070,-38.28484564,-161.29291795,-69.81132788
179.56507837,-52.42120073,62.91645648,80.39700675,1.99143006,3.50140865,26.30802028
0.53424029,-0.68434765,-0.76870599

>  <Name>
1fyp_lig

>  <RI>
0

>  <Rbt.Current_Directory>
/home/itssahil/PROJECTS/Mol_Feturizer/New_Systems/rnas/1fyp

>  <Rbt.Executable>
rbdock ($Id: //depot/dev/client3/rdock/2013.1/src/exe/rbdock.cxx#4 $)

>  <Rbt.Library>
libRbt.so (2013.1, Build901 2013/11/27)

>  <Rbt.Parameter_File>
/export/apps/rDock/src/rDock_2013.1_src/data/scripts/dock_solv.prm

>  <Rbt.Receptor>
prm/pocket_docking_3.prm

>  <SCORE>
-42.439

>  <SCORE.INTER>
-43.3772

>  <SCORE.INTER.CONST>
1

>  <SCORE.INTER.POLAR>
-4.91135

>  <SCORE.INTER.ROT>
14

>  <SCORE.INTER.SOLV>
18.7151

>  <SCORE.INTER.VDW>
-31.7187

>  <SCORE.INTER.norm>
-1.03279

>  <SCORE.INTRA>
-0.933089

>  <SCORE.INTRA.DIHEDRAL>
-20.9999

>  <SCORE.INTRA.DIHEDRAL.0>
48.7173

>  <SCORE.INTRA.POLAR>
1.38447

>  <SCORE.INTRA.POLAR.0>
-1.54691

>  <SCORE.INTRA.REPUL>
0

>  <SCORE.INTRA.REPUL.0>
0

>  <SCORE.INTRA.SOLV>
-0.954059

>  <SCORE.INTRA.SOLV.lig_0>
-64.052

>  <SCORE.INTRA.VDW>
5.33672

>  <SCORE.INTRA.VDW.0>
-7.0667

>  <SCORE.INTRA.norm>
-0.0222164

>  <SCORE.RESTR>
1.87122

>  <SCORE.RESTR.CAVITY>
1.87122

>  <SCORE.RESTR.norm>
0.0445529

>  <SCORE.SYSTEM>
0

>  <SCORE.SYSTEM.CONST>
0

>  <SCORE.SYSTEM.DIHEDRAL>
0

>  <SCORE.SYSTEM.SOLV>
0

>  <SCORE.SYSTEM.norm>
0

>  <SCORE.heavy>
42

>  <SCORE.norm>
-1.01045

>  <RMSD>
4.521

$$$$
1fyp_lig
 OpenBabel11021811393D
libRbt.so/2013.1/901 2013/11/27
 42 45  0  0  0  0  0  0  0  0999 V2000
    3.0993    7.3847   27.3303 C   0  0  2  0  0  0  0  0  0  0  0  0
    2.7140    5.9884   27.1742 O   0  0  0  0  0  0  0  0  0  0  0  0
    5.8538    4.3759   29.5789 C   0  0  2  0  0  0  0  0  0  0  0  0
    6.6940    3.5966   30.5068 N   0  0  0  0  0  0  0  0  0  0  0  0
    2.7470    2.8679   26.4588 C   0  0  1  0  0  0  0  0  0  0  0  0
   -0.6841    0.1282   26.6622 C   0  0  1  0  0  0  0  0  0  0  0  0
    2.7000    8.2319   26.0794 C   0  0  2  0  0  0  0  0  0  0  0  0
    1.2809    8.0235   25.7213 N   0  0  0  0  0  0  0  0  0  0  0  0
    4.5871    4.8567   30.3146 C   0  0  0  0  0  0  0  0  0  0  0  0
    2.6557    1.6027   25.6016 C   0  0  2  0  0  0  0  0  0  0  0  0
    2.0881    1.9266   24.3318 O   0  0  0  0  0  0  0  0  0  0  0  0
   -0.3877   -1.3181   26.1607 C   0  0  2  0  0  0  0  0  0  0  0  0
   -0.0759   -1.3677   24.7114 N   0  0  0  0  0  0  0  0  0  0  0  0
    3.6201    7.8968   24.8639 C   0  0  1  0  0  0  0  0  0  0  0  0
    3.3500    8.7858   23.7830 O   0  0  0  0  0  0  0  0  0  0  0  0
    3.6653    5.7105   29.4015 C   0  0  2  0  0  0  0  0  0  0  0  0
    2.4521    6.0486   30.1744 N   0  0  0  0  0  0  0  0  0  0  0  0
    1.7067    0.7313   26.4288 C   0  0  2  0  0  0  0  0  0  0  0  0
    0.3128    1.0686   26.1842 O   0  0  0  0  0  0  0  0  0  0  0  0
   -1.5591   -2.2825   26.5223 C   0  0  1  0  0  0  0  0  0  0  0  0
   -1.5180   -2.5403   27.9242 O   0  0  0  0  0  0  0  0  0  0  0  0
    5.1214    8.0078   25.2298 C   0  0  2  0  0  0  0  0  0  0  0  0
    5.9039    7.6011   24.1113 O   0  0  0  0  0  0  0  0  0  0  0  0
    3.3045    4.9886   28.0535 C   0  0  2  0  0  0  0  0  0  0  0  0
    2.1059    1.0950   27.8657 C   0  0  2  0  0  0  0  0  0  0  0  0
    2.5294    2.4715   27.8224 O   0  0  0  0  0  0  0  0  0  0  0  0
   -2.9724   -1.7274   26.1697 C   0  0  2  0  0  0  0  0  0  0  0  0
   -3.1399   -1.7790   24.7520 O   0  0  0  0  0  0  0  0  0  0  0  0
    5.4416    7.1275   26.4711 C   0  0  2  0  0  0  0  0  0  0  0  0
    4.5441    7.4943   27.5619 O   0  0  0  0  0  0  0  0  0  0  0  0
    4.5550    4.3492   27.3483 C   0  0  2  0  0  0  0  0  0  0  0  0
    4.0788    3.4401   26.3220 O   0  0  0  0  0  0  0  0  0  0  0  0
    3.2371    0.2106   28.4196 C   0  0  0  0  0  0  0  0  0  0  0  0
    3.2939    0.2896   29.8332 O   0  0  0  0  0  0  0  0  0  0  0  0
   -3.1345   -0.2614   26.6785 C   0  0  1  0  0  0  0  0  0  0  0  0
   -2.0148    0.5483   26.2061 O   0  0  0  0  0  0  0  0  0  0  0  0
    6.8805    7.2717   27.0149 C   0  0  0  0  0  0  0  0  0  0  0  0
    6.8934    7.3178   28.4316 O   0  0  0  0  0  0  0  0  0  0  0  0
    5.4642    3.5477   28.3308 C   0  0  1  0  0  0  0  0  0  0  0  0
    6.6499    3.1540   27.6416 O   0  0  0  0  0  0  0  0  0  0  0  0
   -4.4617    0.3901   26.2123 C   0  0  0  0  0  0  0  0  0  0  0  0
   -4.2999    1.8147   25.8698 N   0  0  0  0  0  0  0  0  0  0  0  0
  1  2  1  6  0  0  0
  1  7  1  0  0  0  0
  1 30  1  0  0  0  0
  3  4  1  1  0  0  0
  3  9  1  0  0  0  0
  3 39  1  0  0  0  0
  5 10  1  0  0  0  0
  5 26  1  0  0  0  0
  5 32  1  1  0  0  0
  6 12  1  0  0  0  0
  6 36  1  0  0  0  0
  6 19  1  6  0  0  0
  7  8  1  6  0  0  0
  7 14  1  0  0  0  0
  9 16  1  0  0  0  0
 10 11  1  6  0  0  0
 10 18  1  0  0  0  0
 12 13  1  6  0  0  0
 12 20  1  0  0  0  0
 14 15  1  6  0  0  0
 14 22  1  0  0  0  0
 16 17  1  1  0  0  0
 16 24  1  0  0  0  0
 18 19  1  1  0  0  0
 18 25  1  0  0  0  0
 20 21  1  1  0  0  0
 20 27  1  0  0  0  0
 22 23  1  6  0  0  0
 22 29  1  0  0  0  0
 24  2  1  6  0  0  0
 24 31  1  0  0  0  0
 25 26  1  0  0  0  0
 25 33  1  6  0  0  0
 27 28  1  6  0  0  0
 27 35  1  0  0  0  0
 29 30  1  0  0  0  0
 29 37  1  1  0  0  0
 31 32  1  6  0  0  0
 31 39  1  0  0  0  0
 33 34  1  0  0  0  0
 35 36  1  0  0  0  0
 35 41  1  6  0  0  0
 37 38  1  0  0  0  0
 39 40  1  6  0  0  0
 41 42  1  0  0  0  0
M  END
>  <CHROM.1>
163.81728097,28.05848134,69.28872343,-176.97439733,-71.05323786,26.62959945
59.56849166,125.08817967,166.28721906,-52.27861150,61.84852132,170.86541780
-162.06345666,68.67189804,138.03108181,-24.39669022,-159.43304807,-90.27652907
-142.17839569,-35.35883724,-52.37714660,-132.63663659,2.27188813,3.31735162
26.93962801,0.68391901,-0.53193686,-0.44303830

>  <Name>
1fyp_lig

>  <RI>
0

>  <Rbt.Current_Directory>
/home/itssahil/PROJECTS/Mol_Feturizer/New_Systems/rnas/1fyp

>  <Rbt.Executable>
rbdock ($Id: //depot/dev/client3/rdock/2013.1/src/exe/rbdock.cxx#4 $)

>  <Rbt.Library>
libRbt.so (2013.1, Build901 2013/11/27)

>  <Rbt.Parameter_File>
/export/apps/rDock/src/rDock_2013.1_src/data/scripts/dock_solv.prm

>  <Rbt.Receptor>
prm/blind_docking_40.prm

>  <SCORE>
-47.3391

>  <SCORE.INTER>
-50.3004

>  <SCORE.INTER.CONST>
1

>  <SCORE.INTER.POLAR>
-6.06408

>  <SCORE.INTER.ROT>
14

>  <SCORE.INTER.SOLV>
23.4911

>  <SCORE.INTER.VDW>
-34.0837

>  <SCORE.INTER.norm>
-1.19763

>  <SCORE.INTRA>
2.89917

>  <SCORE.INTRA.DIHEDRAL>
-12.3216

>  <SCORE.INTRA.DIHEDRAL.0>
48.7173

>  <SCORE.INTRA.POLAR>
0.952406

>  <SCORE.INTRA.POLAR.0>
-1.54691

>  <SCORE.INTRA.REPUL>
0

>  <SCORE.INTRA.REPUL.0>
0

>  <SCORE.INTRA.SOLV>
-1.89032

>  <SCORE.INTRA.SOLV.lig_0>
-64.052

>  <SCORE.INTRA.VDW>
6.76695

>  <SCORE.INTRA.VDW.0>
-7.0667

>  <SCORE.INTRA.norm>
0.0690278

>  <SCORE.RESTR>
0.0621255

>  <SCORE.RESTR.CAVITY>
0.0621255

>  <SCORE.RESTR.norm>
0.00147918

>  <SCORE.SYSTEM>
0

>  <SCORE.SYSTEM.CONST>
0

>  <SCORE.SYSTEM.DIHEDRAL>
0

>  <SCORE.SYSTEM.SOLV>
0

>  <SCORE.SYSTEM.norm>
0

>  <SCORE.heavy>
42

>  <SCORE.norm>
-1.12712

>  <RMSD>
4.530

$$$$
1fyp_lig
 OpenBabel11021811393D
libRbt.so/2013.1/901 2013/11/27
 42 45  0  0  0  0  0  0  0  0999 V2000
    3.5984    7.9383   25.8929 C   0  0  2  0  0  0  0  0  0  0  0  0
    3.8923    6.5954   26.3751 O   0  0  0  0  0  0  0  0  0  0  0  0
    6.4691    4.8921   29.3247 C   0  0  2  0  0  0  0  0  0  0  0  0
    7.2197    4.5452   30.5457 N   0  0  0  0  0  0  0  0  0  0  0  0
    1.9613    3.8338   27.7034 C   0  0  1  0  0  0  0  0  0  0  0  0
    0.3603    0.4069   25.6843 C   0  0  1  0  0  0  0  0  0  0  0  0
    2.5255    7.9164   24.7568 C   0  0  2  0  0  0  0  0  0  0  0  0
    1.3365    7.1344   25.1571 N   0  0  0  0  0  0  0  0  0  0  0  0
    6.6544    6.3915   29.0174 C   0  0  0  0  0  0  0  0  0  0  0  0
    2.9143    2.9880   26.8548 C   0  0  2  0  0  0  0  0  0  0  0  0
    3.0249    3.5581   25.5500 O   0  0  0  0  0  0  0  0  0  0  0  0
   -0.0177    0.0990   24.2033 C   0  0  2  0  0  0  0  0  0  0  0  0
   -0.5339    1.2902   23.4857 N   0  0  0  0  0  0  0  0  0  0  0  0
    3.1278    7.3474   23.4341 C   0  0  1  0  0  0  0  0  0  0  0  0
    2.1895    7.4809   22.3694 O   0  0  0  0  0  0  0  0  0  0  0  0
    5.9103    6.8227   27.7240 C   0  0  2  0  0  0  0  0  0  0  0  0
    6.0848    8.2817   27.5679 N   0  0  0  0  0  0  0  0  0  0  0  0
    2.1864    1.6416   26.8133 C   0  0  2  0  0  0  0  0  0  0  0  0
    1.1558    1.6166   25.7868 O   0  0  0  0  0  0  0  0  0  0  0  0
   -1.0224   -1.0915   24.1222 C   0  0  1  0  0  0  0  0  0  0  0  0
   -0.3191   -2.2986   24.4084 O   0  0  0  0  0  0  0  0  0  0  0  0
    4.4339    8.0785   23.0343 C   0  0  2  0  0  0  0  0  0  0  0  0
    4.9807    7.4541   21.8768 O   0  0  0  0  0  0  0  0  0  0  0  0
    4.3906    6.4243   27.7330 C   0  0  2  0  0  0  0  0  0  0  0  0
    1.5570    1.5729   28.2117 C   0  0  2  0  0  0  0  0  0  0  0  0
    1.2667    2.9346   28.5824 O   0  0  0  0  0  0  0  0  0  0  0  0
   -2.2224   -0.9800   25.1109 C   0  0  2  0  0  0  0  0  0  0  0  0
   -3.1134    0.0286   24.6318 O   0  0  0  0  0  0  0  0  0  0  0  0
    5.4533    8.0441   24.2081 C   0  0  2  0  0  0  0  0  0  0  0  0
    4.8214    8.5868   25.4064 O   0  0  0  0  0  0  0  0  0  0  0  0
    4.1500    4.9405   28.1921 C   0  0  2  0  0  0  0  0  0  0  0  0
    2.7380    4.7829   28.4881 O   0  0  0  0  0  0  0  0  0  0  0  0
    2.4816    0.9254   29.2580 C   0  0  0  0  0  0  0  0  0  0  0  0
    3.0594   -0.2657   28.7532 O   0  0  0  0  0  0  0  0  0  0  0  0
   -1.7261   -0.6228   26.5464 C   0  0  1  0  0  0  0  0  0  0  0  0
   -0.8598    0.5513   26.4878 O   0  0  0  0  0  0  0  0  0  0  0  0
    6.7394    8.8678   23.9747 C   0  0  0  0  0  0  0  0  0  0  0  0
    7.6597    8.6986   25.0395 O   0  0  0  0  0  0  0  0  0  0  0  0
    4.9645    4.5582   29.4669 C   0  0  1  0  0  0  0  0  0  0  0  0
    4.8161    3.1591   29.7041 O   0  0  0  0  0  0  0  0  0  0  0  0
   -2.8915   -0.3429   27.5296 C   0  0  0  0  0  0  0  0  0  0  0  0
   -2.4169    0.0803   28.8595 N   0  0  0  0  0  0  0  0  0  0  0  0
  1  2  1  6  0  0  0
  1  7  1  0  0  0  0
  1 30  1  0  0  0  0
  3  4  1  1  0  0  0
  3  9  1  0  0  0  0
  3 39  1  0  0  0  0
  5 10  1  0  0  0  0
  5 26  1  0  0  0  0
  5 32  1  1  0  0  0
  6 12  1  0  0  0  0
  6 36  1  0  0  0  0
  6 19  1  6  0  0  0
  7  8  1  1  0  0  0
  7 14  1  0  0  0  0
  9 16  1  0  0  0  0
 10 11  1  6  0  0  0
 10 18  1  0  0  0  0
 12 13  1  1  0  0  0
 12 20  1  0  0  0  0
 14 15  1  6  0  0  0
 14 22  1  0  0  0  0
 16 17  1  1  0  0  0
 16 24  1  0  0  0  0
 18 19  1  6  0  0  0
 18 25  1  0  0  0  0
 20 21  1  1  0  0  0
 20 27  1  0  0  0  0
 22 23  1  6  0  0  0
 22 29  1  0  0  0  0
 24  2  1  6  0  0  0
 24 31  1  0  0  0  0
 25 26  1  0  0  0  0
 25 33  1  1  0  0  0
 27 28  1  6  0  0  0
 27 35  1  0  0  0  0
 29 30  1  0  0  0  0
 29 37  1  6  0  0  0
 31 32  1  1  0  0  0
 31 39  1  0  0  0  0
 33 34  1  0  0  0  0
 35 36  1  0  0  0  0
 35 41  1  1  0  0  0
 37 38  1  0  0  0  0
 39 40  1  6  0  0  0
 41 42  1  0  0  0  0
M  END
>  <CHROM.1>
-154.32687312,-77.25163966,-65.87540690,78.10986944,61.85357058,170.94207981
-144.11293628,-50.26544330,-177.73124625,-145.02467927,-46.49931309,61.89213639
-46.30665203,172.47807259,-175.28576980,117.91445573,10.39064363,-148.17371906
-176.22140679,177.38670713,60.18857713,-39.65466023,2.59187882,3.91969585
26.36333398,0.51906017,-0.75121337,-0.90627696

>  <Name>
1fyp_lig

>  <RI>
0

>  <Rbt.Current_Directory>
/home/itssahil/PROJECTS/Mol_Feturizer/New_Systems/rnas/1fyp

>  <Rbt.Executable>
rbdock ($Id: //depot/dev/client3/rdock/2013.1/src/exe/rbdock.cxx#4 $)

>  <Rbt.Library>
libRbt.so (2013.1, Build901 2013/11/27)

>  <Rbt.Parameter_File>
/export/apps/rDock/src/rDock_2013.1_src/data/scripts/dock_solv.prm

>  <Rbt.Receptor>
prm/blind_docking_100.prm

>  <SCORE>
-57.9768

>  <SCORE.INTER>
-56.9736

>  <SCORE.INTER.CONST>
1

>  <SCORE.INTER.POLAR>
-7.7867

>  <SCORE.INTER.ROT>
14

>  <SCORE.INTER.SOLV>
20.0132

>  <SCORE.INTER.VDW>
-31.6312

>  <SCORE.INTER.norm>
-1.35652

>  <SCORE.INTRA>
-1.00312

>  <SCORE.INTRA.DIHEDRAL>
-13.4847

>  <SCORE.INTRA.DIHEDRAL.0>
48.7173

>  <SCORE.INTRA.POLAR>
0.744174

>  <SCORE.INTRA.POLAR.0>
-1.54691

>  <SCORE.INTRA.REPUL>
0.0115407

>  <SCORE.INTRA.REPUL.0>
0

>  <SCORE.INTRA.SOLV>
-0.74685

>  <SCORE.INTRA.SOLV.lig_0>
-64.052

>  <SCORE.INTRA.VDW>
3.52478

>  <SCORE.INTRA.VDW.0>
-7.0667

>  <SCORE.INTRA.norm>
-0.0238838

>  <SCORE.RESTR>
0

>  <SCORE.RESTR.CAVITY>
0

>  <SCORE.RESTR.norm>
0

>  <SCORE.SYSTEM>
0

>  <SCORE.SYSTEM.CONST>
0

>  <SCORE.SYSTEM.DIHEDRAL>
0

>  <SCORE.SYSTEM.SOLV>
0

>  <SCORE.SYSTEM.norm>
0

>  <SCORE.heavy>
42

>  <SCORE.norm>
-1.3804

>  <RMSD>
4.531

$$$$
1fyp_lig
 OpenBabel11021811393D
libRbt.so/2013.1/901 2013/11/27
 42 45  0  0  0  0  0  0  0  0999 V2000
    4.1790    8.0708   25.9554 C   0  0  2  0  0  0  0  0  0  0  0  0
    3.6276    6.8131   25.4691 O   0  0  0  0  0  0  0  0  0  0  0  0
    5.6292    4.0595   28.0483 C   0  0  2  0  0  0  0  0  0  0  0  0
    6.0017    2.9898   28.9925 N   0  0  0  0  0  0  0  0  0  0  0  0
    2.6681    3.5639   24.6809 C   0  0  1  0  0  0  0  0  0  0  0  0
   -0.9062    0.8922   24.7112 C   0  0  1  0  0  0  0  0  0  0  0  0
    3.6606    9.2846   25.1187 C   0  0  2  0  0  0  0  0  0  0  0  0
    2.1870    9.2651   25.0020 N   0  0  0  0  0  0  0  0  0  0  0  0
    4.5447    4.9511   28.6853 C   0  0  0  0  0  0  0  0  0  0  0  0
    2.5410    2.0936   24.2734 C   0  0  2  0  0  0  0  0  0  0  0  0
    2.1617    2.0104   22.8991 O   0  0  0  0  0  0  0  0  0  0  0  0
   -0.2614   -0.5269   24.6714 C   0  0  2  0  0  0  0  0  0  0  0  0
    0.7623   -0.6598   23.6062 N   0  0  0  0  0  0  0  0  0  0  0  0
    4.3158    9.3039   23.7022 C   0  0  1  0  0  0  0  0  0  0  0  0
    3.9577   10.4981   23.0112 O   0  0  0  0  0  0  0  0  0  0  0  0
    4.1224    6.1196   27.7533 C   0  0  2  0  0  0  0  0  0  0  0  0
    3.0302    6.8577   28.4212 N   0  0  0  0  0  0  0  0  0  0  0  0
    1.4150    1.6100   25.1913 C   0  0  2  0  0  0  0  0  0  0  0  0
    0.1029    1.9338   24.6527 O   0  0  0  0  0  0  0  0  0  0  0  0
   -1.3559   -1.6313   24.5474 C   0  0  1  0  0  0  0  0  0  0  0  0
   -2.0271   -1.7472   25.8002 O   0  0  0  0  0  0  0  0  0  0  0  0
    5.8610    9.2247   23.7809 C   0  0  2  0  0  0  0  0  0  0  0  0
    6.3908    9.1522   22.4607 O   0  0  0  0  0  0  0  0  0  0  0  0
    3.6952    5.6340   26.3216 C   0  0  2  0  0  0  0  0  0  0  0  0
    1.6826    2.4065   26.4760 C   0  0  2  0  0  0  0  0  0  0  0  0
    2.2535    3.6599   26.0530 O   0  0  0  0  0  0  0  0  0  0  0  0
   -2.4229   -1.3490   23.4467 C   0  0  2  0  0  0  0  0  0  0  0  0
   -1.8225   -1.5589   22.1676 O   0  0  0  0  0  0  0  0  0  0  0  0
    6.2968    7.9863   24.6143 C   0  0  2  0  0  0  0  0  0  0  0  0
    5.6455    8.0349   25.9194 O   0  0  0  0  0  0  0  0  0  0  0  0
    4.7030    4.6003   25.7004 C   0  0  2  0  0  0  0  0  0  0  0  0
    4.0604    3.9723   24.5606 O   0  0  0  0  0  0  0  0  0  0  0  0
    2.6410    1.6880   27.4424 C   0  0  0  0  0  0  0  0  0  0  0  0
    2.0630    0.4892   27.9287 O   0  0  0  0  0  0  0  0  0  0  0  0
   -2.9594    0.1120   23.5569 C   0  0  1  0  0  0  0  0  0  0  0  0
   -1.8369    1.0457   23.5863 O   0  0  0  0  0  0  0  0  0  0  0  0
    7.8152    7.8858   24.8814 C   0  0  0  0  0  0  0  0  0  0  0  0
    8.3534    9.1378   25.2718 O   0  0  0  0  0  0  0  0  0  0  0  0
    5.1241    3.4822   26.7040 C   0  0  1  0  0  0  0  0  0  0  0  0
    6.1600    2.7000   26.1119 O   0  0  0  0  0  0  0  0  0  0  0  0
   -3.9031    0.4924   22.3873 C   0  0  0  0  0  0  0  0  0  0  0  0
   -5.0278   -0.4493   22.2420 N   0  0  0  0  0  0  0  0  0  0  0  0
  1  2  1  6  0  0  0
  1  7  1  0  0  0  0
  1 30  1  0  0  0  0
  3  4  1  1  0  0  0
  3  9  1  0  0  0  0
  3 39  1  0  0  0  0
  5 10  1  0  0  0  0
  5 26  1  0  0  0  0
  5 32  1  1  0  0  0
  6 12  1  0  0  0  0
  6 36  1  0  0  0  0
  6 19  1  6  0  0  0
  7  8  1  6  0  0  0
  7 14  1  0  0  0  0
  9 16  1  0  0  0  0
 10 11  1  6  0  0  0
 10 18  1  0  0  0  0
 12 13  1  6  0  0  0
 12 20  1  0  0  0  0
 14 15  1  1  0  0  0
 14 22  1  0  0  0  0
 16 17  1  1  0  0  0
 16 24  1  0  0  0  0
 18 19  1  6  0  0  0
 18 25  1  0  0  0  0
 20 21  1  1  0  0  0
 20 27  1  0  0  0  0
 22 23  1  6  0  0  0
 22 29  1  0  0  0  0
 24  2  1  6  0  0  0
 24 31  1  0  0  0  0
 25 26  1  0  0  0  0
 25 33  1  1  0  0  0
 27 28  1  6  0  0  0
 27 35  1  0  0  0  0
 29 30  1  0  0  0  0
 29 37  1  1  0  0  0
 31 32  1  6  0  0  0
 31 39  1  0  0  0  0
 33 34  1  0  0  0  0
 35 36  1  0  0  0  0
 35 41  1  6  0  0  0
 37 38  1  0  0  0  0
 39 40  1  6  0  0  0
 41 42  1  0  0  0  0
M  END
>  <CHROM.1>
-163.44122770,11.64776616,112.91069270,-87.66587969,162.51085506,-7.21747585
67.82533942,110.99689903,135.85983092,-28.32466198,65.01915460,77.31912774
-65.05555468,-50.63073606,44.62188432,-42.92135601,-127.46938940,175.03029944
54.90198511,-177.60388273,175.64205628,159.94650681,2.50841456,3.90666195
25.13742955,0.62743400,-0.64521578,-0.53407596

>  <Name>
1fyp_lig

>  <RI>
0

>  <Rbt.Current_Directory>
/home/itssahil/PROJECTS/Mol_Feturizer/New_Systems/rnas/1fyp

>  <Rbt.Executable>
rbdock ($Id: //depot/dev/client3/rdock/2013.1/src/exe/rbdock.cxx#4 $)

>  <Rbt.Library>
libRbt.so (2013.1, Build901 2013/11/27)

>  <Rbt.Parameter_File>
/export/apps/rDock/src/rDock_2013.1_src/data/scripts/dock_solv.prm

>  <Rbt.Receptor>
prm/pocket_docking_4.prm

>  <SCORE>
-29.1169

>  <SCORE.INTER>
-37.414

>  <SCORE.INTER.CONST>
1

>  <SCORE.INTER.POLAR>
-7.6498

>  <SCORE.INTER.ROT>
14

>  <SCORE.INTER.SOLV>
24.6629

>  <SCORE.INTER.VDW>
-20.5977

>  <SCORE.INTER.norm>
-0.890809

>  <SCORE.INTRA>
8.29705

>  <SCORE.INTRA.DIHEDRAL>
-9.30261

>  <SCORE.INTRA.DIHEDRAL.0>
48.7173

>  <SCORE.INTRA.POLAR>
1.02696

>  <SCORE.INTRA.POLAR.0>
-1.54691

>  <SCORE.INTRA.REPUL>
0.0101684

>  <SCORE.INTRA.REPUL.0>
0

>  <SCORE.INTRA.SOLV>
-0.652583

>  <SCORE.INTRA.SOLV.lig_0>
-64.052

>  <SCORE.INTRA.VDW>
9.73214

>  <SCORE.INTRA.VDW.0>
-7.0667

>  <SCORE.INTRA.norm>
0.197549

>  <SCORE.RESTR>
0

>  <SCORE.RESTR.CAVITY>
0

>  <SCORE.RESTR.norm>
0

>  <SCORE.SYSTEM>
0

>  <SCORE.SYSTEM.CONST>
0

>  <SCORE.SYSTEM.DIHEDRAL>
0

>  <SCORE.SYSTEM.SOLV>
0

>  <SCORE.SYSTEM.norm>
0

>  <SCORE.heavy>
42

>  <SCORE.norm>
-0.69326

>  <RMSD>
4.535

$$$$
1fyp_lig
 OpenBabel11021811393D
libRbt.so/2013.1/901 2013/11/27
 42 45  0  0  0  0  0  0  0  0999 V2000
    4.5009    7.7861   24.9382 C   0  0  2  0  0  0  0  0  0  0  0  0
    4.6484    6.3388   24.8621 O   0  0  0  0  0  0  0  0  0  0  0  0
    6.2124    4.2003   28.2119 C   0  0  2  0  0  0  0  0  0  0  0  0
    6.4232    3.4591   29.4692 N   0  0  0  0  0  0  0  0  0  0  0  0
    2.9447    3.0390   25.5539 C   0  0  1  0  0  0  0  0  0  0  0  0
   -0.5777    0.5949   26.7931 C   0  0  1  0  0  0  0  0  0  0  0  0
    3.4375    8.3075   23.9187 C   0  0  2  0  0  0  0  0  0  0  0  0
    2.1703    7.5548   24.0336 N   0  0  0  0  0  0  0  0  0  0  0  0
    5.4611    5.5131   28.5103 C   0  0  0  0  0  0  0  0  0  0  0  0
    2.6623    1.5501   25.3366 C   0  0  2  0  0  0  0  0  0  0  0  0
    1.9233    1.3762   24.1270 O   0  0  0  0  0  0  0  0  0  0  0  0
   -0.3235   -0.8013   26.1471 C   0  0  2  0  0  0  0  0  0  0  0  0
   -0.0710   -0.7183   24.6878 N   0  0  0  0  0  0  0  0  0  0  0  0
    3.9826    8.2303   22.4582 C   0  0  1  0  0  0  0  0  0  0  0  0
    3.0692    8.8537   21.5589 O   0  0  0  0  0  0  0  0  0  0  0  0
    5.2279    6.3609   27.2299 C   0  0  2  0  0  0  0  0  0  0  0  0
    4.4355    7.5480   27.6127 N   0  0  0  0  0  0  0  0  0  0  0  0
    1.8102    1.2104   26.5625 C   0  0  2  0  0  0  0  0  0  0  0  0
    0.4132    1.5647   26.3639 O   0  0  0  0  0  0  0  0  0  0  0  0
   -1.4938   -1.7822   26.4655 C   0  0  1  0  0  0  0  0  0  0  0  0
   -1.4002   -2.1706   27.8344 O   0  0  0  0  0  0  0  0  0  0  0  0
    5.3609    8.9243   22.3201 C   0  0  2  0  0  0  0  0  0  0  0  0
    5.8442    8.7386   20.9932 O   0  0  0  0  0  0  0  0  0  0  0  0
    4.5282    5.5500   26.0806 C   0  0  2  0  0  0  0  0  0  0  0  0
    2.4418    2.0930   27.6481 C   0  0  2  0  0  0  0  0  0  0  0  0
    2.9196    3.2718   26.9713 O   0  0  0  0  0  0  0  0  0  0  0  0
   -2.9116   -1.1806   26.2250 C   0  0  2  0  0  0  0  0  0  0  0  0
   -3.1368   -1.0972   24.8169 O   0  0  0  0  0  0  0  0  0  0  0  0
    6.3650    8.3421   23.3550 C   0  0  2  0  0  0  0  0  0  0  0  0
    5.7883    8.4457   24.6916 O   0  0  0  0  0  0  0  0  0  0  0  0
    5.1729    4.1353   25.8501 C   0  0  2  0  0  0  0  0  0  0  0  0
    4.2659    3.3541   25.0294 O   0  0  0  0  0  0  0  0  0  0  0  0
    3.6005    1.4019   28.3886 C   0  0  0  0  0  0  0  0  0  0  0  0
    3.1105    0.4458   29.3125 O   0  0  0  0  0  0  0  0  0  0  0  0
   -3.0310    0.2330   26.8745 C   0  0  1  0  0  0  0  0  0  0  0  0
   -1.9192    1.0708   26.4336 O   0  0  0  0  0  0  0  0  0  0  0  0
    7.7324    9.0596   23.4066 C   0  0  0  0  0  0  0  0  0  0  0  0
    7.7556   10.0513   24.4193 O   0  0  0  0  0  0  0  0  0  0  0  0
    5.4258    3.3578   27.1791 C   0  0  1  0  0  0  0  0  0  0  0  0
    6.1622    2.1719   26.8842 O   0  0  0  0  0  0  0  0  0  0  0  0
   -4.3660    0.9402   26.5265 C   0  0  0  0  0  0  0  0  0  0  0  0
   -4.3886    1.4519   25.1443 N   0  0  0  0  0  0  0  0  0  0  0  0
  1  2  1  6  0  0  0
  1  7  1  0  0  0  0
  1 30  1  0  0  0  0
  3  4  1  1  0  0  0
  3  9  1  0  0  0  0
  3 39  1  0  0  0  0
  5 10  1  0  0  0  0
  5 26  1  0  0  0  0
  5 32  1  1  0  0  0
  6 12  1  0  0  0  0
  6 36  1  0  0  0  0
  6 19  1  6  0  0  0
  7  8  1  6  0  0  0
  7 14  1  0  0  0  0
  9 16  1  0  0  0  0
 10 11  1  6  0  0  0
 10 18  1  0  0  0  0
 12 13  1  6  0  0  0
 12 20  1  0  0  0  0
 14 15  1  6  0  0  0
 14 22  1  0  0  0  0
 16 17  1  1  0  0  0
 16 24  1  0  0  0  0
 18 19  1  6  0  0  0
 18 25  1  0  0  0  0
 20 21  1  1  0  0  0
 20 27  1  0  0  0  0
 22 23  1  6  0  0  0
 22 29  1  0  0  0  0
 24  2  1  6  0  0  0
 24 31  1  0  0  0  0
 25 26  1  0  0  0  0
 25 33  1  6  0  0  0
 27 28  1  6  0  0  0
 27 35  1  0  0  0  0
 29 30  1  0  0  0  0
 29 37  1  1  0  0  0
 31 32  1  6  0  0  0
 31 39  1  0  0  0  0
 33 34  1  0  0  0  0
 35 36  1  0  0  0  0
 35 41  1  6  0  0  0
 37 38  1  0  0  0  0
 39 40  1  6  0  0  0
 41 42  1  0  0  0  0
M  END
>  <CHROM.1>
-127.25433504,-38.91129388,101.46503440,126.98866361,179.23185209,122.05795359
-55.17439047,-55.23316622,136.13586949,-54.43559899,36.17837852,24.19934731
-75.93905317,-58.40286741,94.85103057,-62.92342473,-132.69013173,-165.56056524
-74.90694440,68.67969832,-57.12209120,104.53726022,2.66405700,3.77479020
25.72038760,0.76575621,-0.47327211,-0.69953457

>  <Name>
1fyp_lig

>  <RI>
0

>  <Rbt.Current_Directory>
/home/itssahil/PROJECTS/Mol_Feturizer/New_Systems/rnas/1fyp

>  <Rbt.Executable>
rbdock ($Id: //depot/dev/client3/rdock/2013.1/src/exe/rbdock.cxx#4 $)

>  <Rbt.Library>
libRbt.so (2013.1, Build901 2013/11/27)

>  <Rbt.Parameter_File>
/export/apps/rDock/src/rDock_2013.1_src/data/scripts/dock_solv.prm

>  <Rbt.Receptor>
prm/pocket_docking_3.prm

>  <SCORE>
-43.6249

>  <SCORE.INTER>
-54.5642

>  <SCORE.INTER.CONST>
1

>  <SCORE.INTER.POLAR>
-7.04965

>  <SCORE.INTER.ROT>
14

>  <SCORE.INTER.SOLV>
25.1465

>  <SCORE.INTER.VDW>
-34.1928

>  <SCORE.INTER.norm>
-1.29915

>  <SCORE.INTRA>
10.6775

>  <SCORE.INTRA.DIHEDRAL>
-4.74353

>  <SCORE.INTRA.DIHEDRAL.0>
48.7173

>  <SCORE.INTRA.POLAR>
0.845598

>  <SCORE.INTRA.POLAR.0>
-1.54691

>  <SCORE.INTRA.REPUL>
0

>  <SCORE.INTRA.REPUL.0>
0

>  <SCORE.INTRA.SOLV>
0.058144

>  <SCORE.INTRA.SOLV.lig_0>
-64.052

>  <SCORE.INTRA.VDW>
10.1452

>  <SCORE.INTRA.VDW.0>
-7.0667

>  <SCORE.INTRA.norm>
0.254227

>  <SCORE.RESTR>
0.261781

>  <SCORE.RESTR.CAVITY>
0.261781

>  <SCORE.RESTR.norm>
0.00623288

>  <SCORE.SYSTEM>
0

>  <SCORE.SYSTEM.CONST>
0

>  <SCORE.SYSTEM.DIHEDRAL>
0

>  <SCORE.SYSTEM.SOLV>
0

>  <SCORE.SYSTEM.norm>
0

>  <SCORE.heavy>
42

>  <SCORE.norm>
-1.03869

>  <RMSD>
4.542

$$$$
1fyp_lig
 OpenBabel11021811393D
libRbt.so/2013.1/901 2013/11/27
 42 45  0  0  0  0  0  0  0  0999 V2000
    4.4479    7.4354   27.2455 C   0  0  2  0  0  0  0  0  0  0  0  0
    3.4426    6.5068   26.7461 O   0  0  0  0  0  0  0  0  0  0  0  0
    3.6302    3.8925   30.1183 C   0  0  2  0  0  0  0  0  0  0  0  0
    3.3611    2.9423   31.2133 N   0  0  0  0  0  0  0  0  0  0  0  0
    2.1126    3.2732   25.9694 C   0  0  1  0  0  0  0  0  0  0  0  0
   -1.4236    1.3359   24.0581 C   0  0  1  0  0  0  0  0  0  0  0  0
    5.3964    7.9212   26.1026 C   0  0  2  0  0  0  0  0  0  0  0  0
    4.6270    8.4164   24.9413 N   0  0  0  0  0  0  0  0  0  0  0  0
    2.6277    5.0613   30.1955 C   0  0  0  0  0  0  0  0  0  0  0  0
    2.0518    2.1907   24.8885 C   0  0  2  0  0  0  0  0  0  0  0  0
    1.9729    2.8051   23.6018 O   0  0  0  0  0  0  0  0  0  0  0  0
   -2.8379    1.6026   24.6578 C   0  0  2  0  0  0  0  0  0  0  0  0
   -2.8377    1.6089   26.1412 N   0  0  0  0  0  0  0  0  0  0  0  0
    6.3668    6.7806   25.6626 C   0  0  1  0  0  0  0  0  0  0  0  0
    7.3271    7.2821   24.7363 O   0  0  0  0  0  0  0  0  0  0  0  0
    2.8707    6.1186   29.0840 C   0  0  2  0  0  0  0  0  0  0  0  0
    1.8138    7.1450   29.1984 N   0  0  0  0  0  0  0  0  0  0  0  0
    0.7484    1.4686   25.2408 C   0  0  2  0  0  0  0  0  0  0  0  0
   -0.4133    2.1571   24.6997 O   0  0  0  0  0  0  0  0  0  0  0  0
   -3.8805    0.5882   24.0949 C   0  0  1  0  0  0  0  0  0  0  0  0
   -4.1645    0.9341   22.7410 O   0  0  0  0  0  0  0  0  0  0  0  0
    7.1201    6.1674   26.8696 C   0  0  2  0  0  0  0  0  0  0  0  0
    7.9148    5.0759   26.4160 O   0  0  0  0  0  0  0  0  0  0  0  0
    2.9085    5.4918   27.6438 C   0  0  2  0  0  0  0  0  0  0  0  0
    0.7487    1.5339   26.7744 C   0  0  2  0  0  0  0  0  0  0  0  0
    1.4166    2.7634   27.1181 O   0  0  0  0  0  0  0  0  0  0  0  0
   -3.4069   -0.8966   24.1300 C   0  0  2  0  0  0  0  0  0  0  0  0
   -3.4390   -1.3517   25.4836 O   0  0  0  0  0  0  0  0  0  0  0  0
    6.1100    5.6957   27.9538 C   0  0  2  0  0  0  0  0  0  0  0  0
    5.2380    6.8098   28.3121 O   0  0  0  0  0  0  0  0  0  0  0  0
    3.8029    4.2020   27.5614 C   0  0  2  0  0  0  0  0  0  0  0  0
    3.5049    3.5251   26.3127 O   0  0  0  0  0  0  0  0  0  0  0  0
    1.4674    0.3406   27.4287 C   0  0  0  0  0  0  0  0  0  0  0  0
    2.8739    0.4895   27.3435 O   0  0  0  0  0  0  0  0  0  0  0  0
   -1.9647   -1.0318   23.5501 C   0  0  1  0  0  0  0  0  0  0  0  0
   -1.0774   -0.0821   24.2159 O   0  0  0  0  0  0  0  0  0  0  0  0
    6.7536    5.1979   29.2672 C   0  0  0  0  0  0  0  0  0  0  0  0
    7.5436    6.2093   29.8692 O   0  0  0  0  0  0  0  0  0  0  0  0
    3.5439    3.2058   28.7340 C   0  0  1  0  0  0  0  0  0  0  0  0
    4.5116    2.1593   28.6696 O   0  0  0  0  0  0  0  0  0  0  0  0
   -1.3871   -2.4614   23.7107 C   0  0  0  0  0  0  0  0  0  0  0  0
   -2.1674   -3.4703   22.9716 N   0  0  0  0  0  0  0  0  0  0  0  0
  1  2  1  6  0  0  0
  1  7  1  0  0  0  0
  1 30  1  0  0  0  0
  3  4  1  1  0  0  0
  3  9  1  0  0  0  0
  3 39  1  0  0  0  0
  5 10  1  0  0  0  0
  5 26  1  0  0  0  0
  5 32  1  1  0  0  0
  6 12  1  0  0  0  0
  6 36  1  0  0  0  0
  6 19  1  1  0  0  0
  7  8  1  6  0  0  0
  7 14  1  0  0  0  0
  9 16  1  0  0  0  0
 10 11  1  6  0  0  0
 10 18  1  0  0  0  0
 12 13  1  1  0  0  0
 12 20  1  0  0  0  0
 14 15  1  6  0  0  0
 14 22  1  0  0  0  0
 16 17  1  6  0  0  0
 16 24  1  0  0  0  0
 18 19  1  6  0  0  0
 18 25  1  0  0  0  0
 20 21  1  6  0  0  0
 20 27  1  0  0  0  0
 22 23  1  6  0  0  0
 22 29  1  0  0  0  0
 24  2  1  6  0  0  0
 24 31  1  0  0  0  0
 25 26  1  0  0  0  0
 25 33  1  1  0  0  0
 27 28  1  1  0  0  0
 27 35  1  0  0  0  0
 29 30  1  0  0  0  0
 29 37  1  1  0  0  0
 31 32  1  6  0  0  0
 31 39  1  0  0  0  0
 33 34  1  0  0  0  0
 35 36  1  0  0  0  0
 35 41  1  1  0  0  0
 37 38  1  0  0  0  0
 39 40  1  1  0  0  0
 41 42  1  0  0  0  0
M  END
>  <CHROM.1>
151.10812435,33.56897615,67.30283308,-6.87942125,23.40012407,-61.61543794
-179.63417269,-145.84946612,135.41407648,126.78901362,-127.77520307,76.78331937
76.87844815,-80.74983379,59.05489592,-49.71718843,-162.00342364,173.56170362
62.70433012,-173.91803816,53.15258535,-159.81029707,2.14638768,3.24643236
26.46310751,-0.00776771,-0.75384136,-1.09582805

>  <Name>
1fyp_lig

>  <RI>
0

>  <Rbt.Current_Directory>
/home/itssahil/PROJECTS/Mol_Feturizer/New_Systems/rnas/1fyp

>  <Rbt.Executable>
rbdock ($Id: //depot/dev/client3/rdock/2013.1/src/exe/rbdock.cxx#4 $)

>  <Rbt.Library>
libRbt.so (2013.1, Build901 2013/11/27)

>  <Rbt.Parameter_File>
/export/apps/rDock/src/rDock_2013.1_src/data/scripts/dock_solv.prm

>  <Rbt.Receptor>
prm/pocket_docking_4.prm

>  <SCORE>
-24.7462

>  <SCORE.INTER>
-35.3657

>  <SCORE.INTER.CONST>
1

>  <SCORE.INTER.POLAR>
-4.69943

>  <SCORE.INTER.ROT>
14

>  <SCORE.INTER.SOLV>
17.6695

>  <SCORE.INTER.VDW>
-26.7355

>  <SCORE.INTER.norm>
-0.842041

>  <SCORE.INTRA>
10.2881

>  <SCORE.INTRA.DIHEDRAL>
-6.48219

>  <SCORE.INTRA.DIHEDRAL.0>
48.7173

>  <SCORE.INTRA.POLAR>
1.50705

>  <SCORE.INTRA.POLAR.0>
-1.54691

>  <SCORE.INTRA.REPUL>
0.0030968

>  <SCORE.INTRA.REPUL.0>
0

>  <SCORE.INTRA.SOLV>
0.594216

>  <SCORE.INTRA.SOLV.lig_0>
-64.052

>  <SCORE.INTRA.VDW>
8.09267

>  <SCORE.INTRA.VDW.0>
-7.0667

>  <SCORE.INTRA.norm>
0.244956

>  <SCORE.RESTR>
0.331407

>  <SCORE.RESTR.CAVITY>
0.331407

>  <SCORE.RESTR.norm>
0.00789064

>  <SCORE.SYSTEM>
0

>  <SCORE.SYSTEM.CONST>
0

>  <SCORE.SYSTEM.DIHEDRAL>
0

>  <SCORE.SYSTEM.SOLV>
0

>  <SCORE.SYSTEM.norm>
0

>  <SCORE.heavy>
42

>  <SCORE.norm>
-0.589194

>  <RMSD>
4.542

$$$$
1fyp_lig
 OpenBabel11021811393D
libRbt.so/2013.1/901 2013/11/27
 42 45  0  0  0  0  0  0  0  0999 V2000
    3.9617    4.6002   30.0412 C   0  0  2  0  0  0  0  0  0  0  0  0
    4.7130    3.8078   29.0769 O   0  0  0  0  0  0  0  0  0  0  0  0
    6.4626    7.1958   27.1530 C   0  0  2  0  0  0  0  0  0  0  0  0
    7.3225    8.1451   26.4224 N   0  0  0  0  0  0  0  0  0  0  0  0
    3.3245    3.4586   26.0641 C   0  0  1  0  0  0  0  0  0  0  0  0
   -0.0715    0.6082   25.5449 C   0  0  1  0  0  0  0  0  0  0  0  0
    2.7399    3.8065   30.6063 C   0  0  2  0  0  0  0  0  0  0  0  0
    3.1467    2.4713   31.0936 N   0  0  0  0  0  0  0  0  0  0  0  0
    7.2695    6.5474   28.2956 C   0  0  0  0  0  0  0  0  0  0  0  0
    3.3147    2.1179   25.3252 C   0  0  2  0  0  0  0  0  0  0  0  0
    2.9447    2.3272   23.9618 O   0  0  0  0  0  0  0  0  0  0  0  0
   -0.1681    0.0167   24.1055 C   0  0  2  0  0  0  0  0  0  0  0  0
   -0.2802    1.0659   23.0629 N   0  0  0  0  0  0  0  0  0  0  0  0
    1.6184    3.6712   29.5292 C   0  0  1  0  0  0  0  0  0  0  0  0
    0.4521    3.0876   30.1044 O   0  0  0  0  0  0  0  0  0  0  0  0
    6.4150    5.5524   29.1276 C   0  0  2  0  0  0  0  0  0  0  0  0
    7.2989    4.9322   30.1363 N   0  0  0  0  0  0  0  0  0  0  0  0
    2.2293    1.3495   26.0841 C   0  0  2  0  0  0  0  0  0  0  0  0
    0.8964    1.6879   25.6095 O   0  0  0  0  0  0  0  0  0  0  0  0
   -1.3372   -1.0109   24.0043 C   0  0  1  0  0  0  0  0  0  0  0  0
   -0.9546   -2.2018   24.6890 O   0  0  0  0  0  0  0  0  0  0  0  0
    1.2341    5.0437   28.9219 C   0  0  2  0  0  0  0  0  0  0  0  0
    0.2782    4.8424   27.8853 O   0  0  0  0  0  0  0  0  0  0  0  0
    5.7065    4.4668   28.2401 C   0  0  2  0  0  0  0  0  0  0  0  0
    2.4315    1.8440   27.5232 C   0  0  2  0  0  0  0  0  0  0  0  0
    2.9019    3.2013   27.4129 O   0  0  0  0  0  0  0  0  0  0  0  0
   -2.6809   -0.5081   24.6137 C   0  0  2  0  0  0  0  0  0  0  0  0
   -3.2386    0.4723   23.7371 O   0  0  0  0  0  0  0  0  0  0  0  0
    2.4974    5.7628   28.3695 C   0  0  2  0  0  0  0  0  0  0  0  0
    3.4990    5.8501   29.4273 O   0  0  0  0  0  0  0  0  0  0  0  0
    4.9995    5.0766   26.9758 C   0  0  2  0  0  0  0  0  0  0  0  0
    4.6803    3.9894   26.0688 O   0  0  0  0  0  0  0  0  0  0  0  0
    3.4425    0.9964   28.3157 C   0  0  0  0  0  0  0  0  0  0  0  0
    2.9163   -0.2898   28.5923 O   0  0  0  0  0  0  0  0  0  0  0  0
   -2.4519    0.1040   26.0306 C   0  0  1  0  0  0  0  0  0  0  0  0
   -1.3878    1.1021   25.9675 O   0  0  0  0  0  0  0  0  0  0  0  0
    2.2563    7.2045   27.8688 C   0  0  0  0  0  0  0  0  0  0  0  0
    1.2627    7.8581   28.6401 O   0  0  0  0  0  0  0  0  0  0  0  0
    5.8937    6.1042   26.2148 C   0  0  1  0  0  0  0  0  0  0  0  0
    5.1133    6.7246   25.1941 O   0  0  0  0  0  0  0  0  0  0  0  0
   -3.7295    0.7629   26.6110 C   0  0  0  0  0  0  0  0  0  0  0  0
   -4.3770    1.6767   25.6525 N   0  0  0  0  0  0  0  0  0  0  0  0
  1  2  1  6  0  0  0
  1  7  1  0  0  0  0
  1 30  1  0  0  0  0
  3  4  1  6  0  0  0
  3  9  1  0  0  0  0
  3 39  1  0  0  0  0
  5 10  1  0  0  0  0
  5 26  1  0  0  0  0
  5 32  1  1  0  0  0
  6 12  1  0  0  0  0
  6 36  1  0  0  0  0
  6 19  1  6  0  0  0
  7  8  1  6  0  0  0
  7 14  1  0  0  0  0
  9 16  1  0  0  0  0
 10 11  1  6  0  0  0
 10 18  1  0  0  0  0
 12 13  1  6  0  0  0
 12 20  1  0  0  0  0
 14 15  1  1  0  0  0
 14 22  1  0  0  0  0
 16 17  1  1  0  0  0
 16 24  1  0  0  0  0
 18 19  1  6  0  0  0
 18 25  1  0  0  0  0
 20 21  1  1  0  0  0
 20 27  1  0  0  0  0
 22 23  1  6  0  0  0
 22 29  1  0  0  0  0
 24  2  1  1  0  0  0
 24 31  1  0  0  0  0
 25 26  1  0  0  0  0
 25 33  1  6  0  0  0
 27 28  1  6  0  0  0
 27 35  1  0  0  0  0
 29 30  1  0  0  0  0
 29 37  1  1  0  0  0
 31 32  1  6  0  0  0
 31 39  1  0  0  0  0
 33 34  1  0  0  0  0
 35 36  1  0  0  0  0
 35 41  1  6  0  0  0
 37 38  1  0  0  0  0
 39 40  1  6  0  0  0
 41 42  1  0  0  0  0
M  END
>  <CHROM.1>
167.13260886,37.65997750,-163.42074125,47.00039453,-170.62786282,85.57886922
64.01456517,53.05537944,142.39652132,-97.24835241,-170.42669992,66.51055796
-69.71763558,-45.26301126,33.87484081,99.02114231,-165.35965497,-50.98227420
-49.02395564,-78.18037748,64.28291186,-145.14104109,2.16219206,3.22521888
27.09157395,0.55037085,0.52846187,1.19519253

>  <Name>
1fyp_lig

>  <RI>
0

>  <Rbt.Current_Directory>
/home/itssahil/PROJECTS/Mol_Feturizer/New_Systems/rnas/1fyp

>  <Rbt.Executable>
rbdock ($Id: //depot/dev/client3/rdock/2013.1/src/exe/rbdock.cxx#4 $)

>  <Rbt.Library>
libRbt.so (2013.1, Build901 2013/11/27)

>  <Rbt.Parameter_File>
/export/apps/rDock/src/rDock_2013.1_src/data/scripts/dock_solv.prm

>  <Rbt.Receptor>
prm/blind_docking_100.prm

>  <SCORE>
-54.597

>  <SCORE.INTER>
-52.6929

>  <SCORE.INTER.CONST>
1

>  <SCORE.INTER.POLAR>
-6.86115

>  <SCORE.INTER.ROT>
14

>  <SCORE.INTER.SOLV>
20.0625

>  <SCORE.INTER.VDW>
-31.8789

>  <SCORE.INTER.norm>
-1.25459

>  <SCORE.INTRA>
-1.90447

>  <SCORE.INTRA.DIHEDRAL>
-18.9479

>  <SCORE.INTRA.DIHEDRAL.0>
48.7173

>  <SCORE.INTRA.POLAR>
0.890727

>  <SCORE.INTRA.POLAR.0>
-1.54691

>  <SCORE.INTRA.REPUL>
0

>  <SCORE.INTRA.REPUL.0>
0

>  <SCORE.INTRA.SOLV>
1.44763

>  <SCORE.INTRA.SOLV.lig_0>
-64.052

>  <SCORE.INTRA.VDW>
3.81719

>  <SCORE.INTRA.VDW.0>
-7.0667

>  <SCORE.INTRA.norm>
-0.0453446

>  <SCORE.RESTR>
0.000360947

>  <SCORE.RESTR.CAVITY>
0.000360947

>  <SCORE.RESTR.norm>
8.59398e-06

>  <SCORE.SYSTEM>
0

>  <SCORE.SYSTEM.CONST>
0

>  <SCORE.SYSTEM.DIHEDRAL>
0

>  <SCORE.SYSTEM.SOLV>
0

>  <SCORE.SYSTEM.norm>
0

>  <SCORE.heavy>
42

>  <SCORE.norm>
-1.29993

>  <RMSD>
4.547

$$$$
1fyp_lig
 OpenBabel11021811393D
libRbt.so/2013.1/901 2013/11/27
 42 45  0  0  0  0  0  0  0  0999 V2000
    3.5781    7.6062   27.0235 C   0  0  2  0  0  0  0  0  0  0  0  0
    3.0665    6.2509   26.8693 O   0  0  0  0  0  0  0  0  0  0  0  0
    4.8678    4.6418   30.3917 C   0  0  2  0  0  0  0  0  0  0  0  0
    5.1914    3.9165   31.6341 N   0  0  0  0  0  0  0  0  0  0  0  0
    2.8047    2.9174   26.6877 C   0  0  1  0  0  0  0  0  0  0  0  0
   -0.4748    0.1019   25.5817 C   0  0  1  0  0  0  0  0  0  0  0  0
    3.0302    8.5551   25.9093 C   0  0  2  0  0  0  0  0  0  0  0  0
    1.5585    8.4633   25.8026 N   0  0  0  0  0  0  0  0  0  0  0  0
    3.5360    5.3976   30.5711 C   0  0  0  0  0  0  0  0  0  0  0  0
    2.8537    1.6211   25.8748 C   0  0  2  0  0  0  0  0  0  0  0  0
    2.5931    1.9094   24.5006 O   0  0  0  0  0  0  0  0  0  0  0  0
   -0.3551   -0.2557   24.0688 C   0  0  2  0  0  0  0  0  0  0  0  0
   -0.3851    0.9420   23.1943 N   0  0  0  0  0  0  0  0  0  0  0  0
    3.6938    8.2376   24.5327 C   0  0  1  0  0  0  0  0  0  0  0  0
    3.3058    9.2088   23.5642 O   0  0  0  0  0  0  0  0  0  0  0  0
    3.1455    6.2089   29.3055 C   0  0  2  0  0  0  0  0  0  0  0  0
    1.8248    6.8239   29.5532 N   0  0  0  0  0  0  0  0  0  0  0  0
    1.7118    0.8153   26.5002 C   0  0  2  0  0  0  0  0  0  0  0  0
    0.4206    1.1860   25.9416 O   0  0  0  0  0  0  0  0  0  0  0  0
   -1.4478   -1.2886   23.6539 C   0  0  1  0  0  0  0  0  0  0  0  0
   -1.0967   -2.5613   24.1928 O   0  0  0  0  0  0  0  0  0  0  0  0
    5.2401    8.2265   24.6273 C   0  0  2  0  0  0  0  0  0  0  0  0
    5.7804    7.8406   23.3671 O   0  0  0  0  0  0  0  0  0  0  0  0
    3.1359    5.3352   27.9998 C   0  0  2  0  0  0  0  0  0  0  0  0
    1.7991    1.2261   27.9767 C   0  0  2  0  0  0  0  0  0  0  0  0
    2.2765    2.5855   27.9818 O   0  0  0  0  0  0  0  0  0  0  0  0
   -2.8826   -0.9295   24.1460 C   0  0  2  0  0  0  0  0  0  0  0  0
   -3.3717    0.1607   23.3632 O   0  0  0  0  0  0  0  0  0  0  0  0
    5.7061    7.2506   25.7447 C   0  0  2  0  0  0  0  0  0  0  0  0
    5.0451    7.6060   26.9963 O   0  0  0  0  0  0  0  0  0  0  0  0
    4.4140    4.4314   27.8593 C   0  0  2  0  0  0  0  0  0  0  0  0
    4.1557    3.4412   26.8301 O   0  0  0  0  0  0  0  0  0  0  0  0
    2.7443    0.3303   28.7970 C   0  0  0  0  0  0  0  0  0  0  0  0
    4.0951    0.5543   28.4327 O   0  0  0  0  0  0  0  0  0  0  0  0
   -2.8693   -0.5439   25.6579 C   0  0  1  0  0  0  0  0  0  0  0  0
   -1.8580    0.4828   25.8933 O   0  0  0  0  0  0  0  0  0  0  0  0
    7.2250    7.2654   26.0270 C   0  0  0  0  0  0  0  0  0  0  0  0
    7.5743    6.3118   27.0160 O   0  0  0  0  0  0  0  0  0  0  0  0
    4.7789    3.6838   29.1793 C   0  0  1  0  0  0  0  0  0  0  0  0
    6.0359    3.0316   29.0052 O   0  0  0  0  0  0  0  0  0  0  0  0
   -4.2428   -0.0242   26.1546 C   0  0  0  0  0  0  0  0  0  0  0  0
   -4.5601    1.3170   25.6314 N   0  0  0  0  0  0  0  0  0  0  0  0
  1  2  1  6  0  0  0
  1  7  1  0  0  0  0
  1 30  1  0  0  0  0
  3  4  1  1  0  0  0
  3  9  1  0  0  0  0
  3 39  1  0  0  0  0
  5 10  1  0  0  0  0
  5 26  1  0  0  0  0
  5 32  1  1  0  0  0
  6 12  1  0  0  0  0
  6 36  1  0  0  0  0
  6 19  1  6  0  0  0
  7  8  1  6  0  0  0
  7 14  1  0  0  0  0
  9 16  1  0  0  0  0
 10 11  1  6  0  0  0
 10 18  1  0  0  0  0
 12 13  1  6  0  0  0
 12 20  1  0  0  0  0
 14 15  1  6  0  0  0
 14 22  1  0  0  0  0
 16 17  1  1  0  0  0
 16 24  1  0  0  0  0
 18 19  1  6  0  0  0
 18 25  1  0  0  0  0
 20 21  1  1  0  0  0
 20 27  1  0  0  0  0
 22 23  1  6  0  0  0
 22 29  1  0  0  0  0
 24  2  1  6  0  0  0
 24 31  1  0  0  0  0
 25 26  1  0  0  0  0
 25 33  1  1  0  0  0
 27 28  1  6  0  0  0
 27 35  1  0  0  0  0
 29 30  1  0  0  0  0
 29 37  1  1  0  0  0
 31 32  1  6  0  0  0
 31 39  1  0  0  0  0
 33 34  1  0  0  0  0
 35 36  1  0  0  0  0
 35 41  1  6  0  0  0
 37 38  1  0  0  0  0
 39 40  1  6  0  0  0
 41 42  1  0  0  0  0
M  END
>  <CHROM.1>
-162.10347523,25.86839545,143.23590642,-146.86493561,85.00482021,99.09409916
-172.87030472,-42.88178660,134.85034449,-95.59775802,-165.94380301,-61.46549939
70.24918817,73.67845442,-177.56920584,-34.36743173,-162.71761863,74.72169596
-71.66102394,-51.21366922,-57.15400024,-142.57008959,2.23758858,3.57839523
26.49558021,0.45615501,-0.72655371,-0.65724195

>  <Name>
1fyp_lig

>  <RI>
0

>  <Rbt.Current_Directory>
/home/itssahil/PROJECTS/Mol_Feturizer/New_Systems/rnas/1fyp

>  <Rbt.Executable>
rbdock ($Id: //depot/dev/client3/rdock/2013.1/src/exe/rbdock.cxx#4 $)

>  <Rbt.Library>
libRbt.so (2013.1, Build901 2013/11/27)

>  <Rbt.Parameter_File>
/export/apps/rDock/src/rDock_2013.1_src/data/scripts/dock_solv.prm

>  <Rbt.Receptor>
prm/pocket_docking_6.prm

>  <SCORE>
-58.2281

>  <SCORE.INTER>
-59.6018

>  <SCORE.INTER.CONST>
1

>  <SCORE.INTER.POLAR>
-7.85965

>  <SCORE.INTER.ROT>
14

>  <SCORE.INTER.SOLV>
20.2051

>  <SCORE.INTER.VDW>
-33.204

>  <SCORE.INTER.norm>
-1.41909

>  <SCORE.INTRA>
1.37373

>  <SCORE.INTRA.DIHEDRAL>
-14.0009

>  <SCORE.INTRA.DIHEDRAL.0>
48.7173

>  <SCORE.INTRA.POLAR>
1.14293

>  <SCORE.INTRA.POLAR.0>
-1.54691

>  <SCORE.INTRA.REPUL>
0

>  <SCORE.INTRA.REPUL.0>
0

>  <SCORE.INTRA.SOLV>
-0.0945112

>  <SCORE.INTRA.SOLV.lig_0>
-64.052

>  <SCORE.INTRA.VDW>
4.53546

>  <SCORE.INTRA.VDW.0>
-7.0667

>  <SCORE.INTRA.norm>
0.0327078

>  <SCORE.RESTR>
0

>  <SCORE.RESTR.CAVITY>
0

>  <SCORE.RESTR.norm>
0

>  <SCORE.SYSTEM>
0

>  <SCORE.SYSTEM.CONST>
0

>  <SCORE.SYSTEM.DIHEDRAL>
0

>  <SCORE.SYSTEM.SOLV>
0

>  <SCORE.SYSTEM.norm>
0

>  <SCORE.heavy>
42

>  <SCORE.norm>
-1.38638

>  <RMSD>
4.556

$$$$
1fyp_lig
 OpenBabel11021811393D
libRbt.so/2013.1/901 2013/11/27
 42 45  0  0  0  0  0  0  0  0999 V2000
    4.1191    7.9764   26.1928 C   0  0  2  0  0  0  0  0  0  0  0  0
    4.0304    6.5353   26.3871 O   0  0  0  0  0  0  0  0  0  0  0  0
    6.1935    3.8560   28.9135 C   0  0  2  0  0  0  0  0  0  0  0  0
    6.8113    3.1276   30.0370 N   0  0  0  0  0  0  0  0  0  0  0  0
    1.7702    3.5177   27.0347 C   0  0  1  0  0  0  0  0  0  0  0  0
   -0.4742    0.1679   25.3268 C   0  0  1  0  0  0  0  0  0  0  0  0
    3.0316    8.4873   25.1935 C   0  0  2  0  0  0  0  0  0  0  0  0
    1.6871    8.0005   25.5691 N   0  0  0  0  0  0  0  0  0  0  0  0
    6.5506    5.3524   29.0141 C   0  0  0  0  0  0  0  0  0  0  0  0
    2.1566    2.0643   27.3207 C   0  0  2  0  0  0  0  0  0  0  0  0
    3.1581    1.6453   26.3928 O   0  0  0  0  0  0  0  0  0  0  0  0
   -1.2155    0.6387   24.0384 C   0  0  2  0  0  0  0  0  0  0  0  0
   -1.5304    2.0881   24.0576 N   0  0  0  0  0  0  0  0  0  0  0  0
    3.3739    8.0587   23.7322 C   0  0  1  0  0  0  0  0  0  0  0  0
    2.4641    8.6633   22.8166 O   0  0  0  0  0  0  0  0  0  0  0  0
    5.9532    6.1793   27.8428 C   0  0  2  0  0  0  0  0  0  0  0  0
    6.2842    7.6000   28.0784 N   0  0  0  0  0  0  0  0  0  0  0  0
    0.8329    1.3342   27.0775 C   0  0  2  0  0  0  0  0  0  0  0  0
    0.6188    1.0611   25.6647 O   0  0  0  0  0  0  0  0  0  0  0  0
   -2.4959   -0.2168   23.7900 C   0  0  1  0  0  0  0  0  0  0  0  0
   -2.0973   -1.5084   23.3356 O   0  0  0  0  0  0  0  0  0  0  0  0
    4.8153    8.4652   23.3352 C   0  0  2  0  0  0  0  0  0  0  0  0
    5.0967    7.9660   22.0312 O   0  0  0  0  0  0  0  0  0  0  0  0
    4.4050    5.9706   27.6763 C   0  0  2  0  0  0  0  0  0  0  0  0
   -0.1950    2.3514   27.5924 C   0  0  2  0  0  0  0  0  0  0  0  0
    0.3721    3.6510   27.3369 O   0  0  0  0  0  0  0  0  0  0  0  0
   -3.3940   -0.3991   25.0510 C   0  0  2  0  0  0  0  0  0  0  0  0
   -4.0619    0.8357   25.3153 O   0  0  0  0  0  0  0  0  0  0  0  0
    5.8371    7.9085   24.3668 C   0  0  2  0  0  0  0  0  0  0  0  0
    5.4526    8.3462   25.7048 O   0  0  0  0  0  0  0  0  0  0  0  0
    3.9832    4.4573   27.7235 C   0  0  2  0  0  0  0  0  0  0  0  0
    2.5441    4.3951   27.9013 O   0  0  0  0  0  0  0  0  0  0  0  0
   -0.5007    2.1932   29.0924 C   0  0  0  0  0  0  0  0  0  0  0  0
    0.6961    2.0832   29.8430 O   0  0  0  0  0  0  0  0  0  0  0  0
   -2.5376   -0.8232   26.2844 C   0  0  1  0  0  0  0  0  0  0  0  0
   -1.4203    0.1029   26.4475 O   0  0  0  0  0  0  0  0  0  0  0  0
    7.2948    8.3732   24.1515 C   0  0  0  0  0  0  0  0  0  0  0  0
    8.1895    7.6708   24.9975 O   0  0  0  0  0  0  0  0  0  0  0  0
    4.6567    3.6740   28.8928 C   0  0  1  0  0  0  0  0  0  0  0  0
    4.3515    2.2873   28.7523 O   0  0  0  0  0  0  0  0  0  0  0  0
   -3.3592   -0.8608   27.5984 C   0  0  0  0  0  0  0  0  0  0  0  0
   -4.1353    0.3740   27.8130 N   0  0  0  0  0  0  0  0  0  0  0  0
  1  2  1  6  0  0  0
  1  7  1  0  0  0  0
  1 30  1  0  0  0  0
  3  4  1  1  0  0  0
  3  9  1  0  0  0  0
  3 39  1  0  0  0  0
  5 10  1  0  0  0  0
  5 26  1  0  0  0  0
  5 32  1  1  0  0  0
  6 12  1  0  0  0  0
  6 36  1  0  0  0  0
  6 19  1  1  0  0  0
  7  8  1  1  0  0  0
  7 14  1  0  0  0  0
  9 16  1  0  0  0  0
 10 11  1  6  0  0  0
 10 18  1  0  0  0  0
 12 13  1  1  0  0  0
 12 20  1  0  0  0  0
 14 15  1  6  0  0  0
 14 22  1  0  0  0  0
 16 17  1  1  0  0  0
 16 24  1  0  0  0  0
 18 19  1  6  0  0  0
 18 25  1  0  0  0  0
 20 21  1  1  0  0  0
 20 27  1  0  0  0  0
 22 23  1  6  0  0  0
 22 29  1  0  0  0  0
 24  2  1  6  0  0  0
 24 31  1  0  0  0  0
 25 26  1  0  0  0  0
 25 33  1  1  0  0  0
 27 28  1  1  0  0  0
 27 35  1  0  0  0  0
 29 30  1  0  0  0  0
 29 37  1  6  0  0  0
 31 32  1  1  0  0  0
 31 39  1  0  0  0  0
 33 34  1  0  0  0  0
 35 36  1  0  0  0  0
 35 41  1  1  0  0  0
 37 38  1  0  0  0  0
 39 40  1  6  0  0  0
 41 42  1  0  0  0  0
M  END
>  <CHROM.1>
-148.54558962,-67.39199254,-167.55797855,170.97529901,179.28866977,-92.97900403
62.58729281,47.13719846,169.24115784,141.60353228,176.50576697,-62.80804309
47.65524943,73.77443040,-171.12858744,131.79860190,65.52517226,-79.48948304
-49.91460841,66.84136962,-59.21619669,-76.52988570,2.12121071,3.89276052
26.31263116,0.48413934,-0.59874397,-0.85380113

>  <Name>
1fyp_lig

>  <RI>
0

>  <Rbt.Current_Directory>
/home/itssahil/PROJECTS/Mol_Feturizer/New_Systems/rnas/1fyp

>  <Rbt.Executable>
rbdock ($Id: //depot/dev/client3/rdock/2013.1/src/exe/rbdock.cxx#4 $)

>  <Rbt.Library>
libRbt.so (2013.1, Build901 2013/11/27)

>  <Rbt.Parameter_File>
/export/apps/rDock/src/rDock_2013.1_src/data/scripts/dock_solv.prm

>  <Rbt.Receptor>
prm/blind_docking_60.prm

>  <SCORE>
-47.0514

>  <SCORE.INTER>
-40.983

>  <SCORE.INTER.CONST>
1

>  <SCORE.INTER.POLAR>
-5.31684

>  <SCORE.INTER.ROT>
14

>  <SCORE.INTER.SOLV>
17.4632

>  <SCORE.INTER.VDW>
-28.3536

>  <SCORE.INTER.norm>
-0.975785

>  <SCORE.INTRA>
-6.2797

>  <SCORE.INTRA.DIHEDRAL>
-24.9471

>  <SCORE.INTRA.DIHEDRAL.0>
48.7173

>  <SCORE.INTRA.POLAR>
0.253049

>  <SCORE.INTRA.POLAR.0>
-1.54691

>  <SCORE.INTRA.REPUL>
0

>  <SCORE.INTRA.REPUL.0>
0

>  <SCORE.INTRA.SOLV>
1.25479

>  <SCORE.INTRA.SOLV.lig_0>
-64.052

>  <SCORE.INTRA.VDW>
4.70607

>  <SCORE.INTRA.VDW.0>
-7.0667

>  <SCORE.INTRA.norm>
-0.149517

>  <SCORE.RESTR>
0.211303

>  <SCORE.RESTR.CAVITY>
0.211303

>  <SCORE.RESTR.norm>
0.00503102

>  <SCORE.SYSTEM>
0

>  <SCORE.SYSTEM.CONST>
0

>  <SCORE.SYSTEM.DIHEDRAL>
0

>  <SCORE.SYSTEM.SOLV>
0

>  <SCORE.SYSTEM.norm>
0

>  <SCORE.heavy>
42

>  <SCORE.norm>
-1.12027

>  <RMSD>
4.558

$$$$
1fyp_lig
 OpenBabel11021811393D
libRbt.so/2013.1/901 2013/11/27
 42 45  0  0  0  0  0  0  0  0999 V2000
    3.7495    4.8822   29.2082 C   0  0  2  0  0  0  0  0  0  0  0  0
    4.2589    4.0306   28.1416 O   0  0  0  0  0  0  0  0  0  0  0  0
    5.4190    7.2280   25.5586 C   0  0  2  0  0  0  0  0  0  0  0  0
    6.0780    8.1192   24.5860 N   0  0  0  0  0  0  0  0  0  0  0  0
    2.4485    3.2045   25.4740 C   0  0  1  0  0  0  0  0  0  0  0  0
   -0.7580    0.3040   26.4074 C   0  0  1  0  0  0  0  0  0  0  0  0
    3.9421    4.2201   30.6106 C   0  0  2  0  0  0  0  0  0  0  0  0
    5.3356    3.7648   30.8018 N   0  0  0  0  0  0  0  0  0  0  0  0
    6.4432    6.7818   26.6212 C   0  0  0  0  0  0  0  0  0  0  0  0
    2.4900    1.7265   25.0771 C   0  0  2  0  0  0  0  0  0  0  0  0
    1.9572    1.5706   23.7613 O   0  0  0  0  0  0  0  0  0  0  0  0
   -0.4003   -1.1831   26.1044 C   0  0  2  0  0  0  0  0  0  0  0  0
   -0.1348   -1.4252   24.6652 N   0  0  0  0  0  0  0  0  0  0  0  0
    2.9520    3.0292   30.8041 C   0  0  1  0  0  0  0  0  0  0  0  0
    3.0282    2.5386   32.1402 O   0  0  0  0  0  0  0  0  0  0  0  0
    5.8091    5.8590   27.6976 C   0  0  2  0  0  0  0  0  0  0  0  0
    6.8858    5.4273   28.6131 N   0  0  0  0  0  0  0  0  0  0  0  0
    1.5725    1.0939   26.1270 C   0  0  2  0  0  0  0  0  0  0  0  0
    0.1697    1.2137   25.7605 O   0  0  0  0  0  0  0  0  0  0  0  0
   -1.5047   -2.1419   26.6466 C   0  0  1  0  0  0  0  0  0  0  0  0
   -1.4028   -2.1930   28.0681 O   0  0  0  0  0  0  0  0  0  0  0  0
    1.4877    3.4444   30.5146 C   0  0  2  0  0  0  0  0  0  0  0  0
    0.6500    2.2970   30.6170 O   0  0  0  0  0  0  0  0  0  0  0  0
    5.0547    4.6280   27.0780 C   0  0  2  0  0  0  0  0  0  0  0  0
    1.8789    1.9375   27.3724 C   0  0  2  0  0  0  0  0  0  0  0  0
    2.2003    3.2558   26.8881 O   0  0  0  0  0  0  0  0  0  0  0  0
   -2.9571   -1.7132   26.2769 C   0  0  2  0  0  0  0  0  0  0  0  0
   -3.1689   -1.9762   24.8889 O   0  0  0  0  0  0  0  0  0  0  0  0
    1.3759    4.0792   29.0994 C   0  0  2  0  0  0  0  0  0  0  0  0
    2.3289    5.1792   28.9920 O   0  0  0  0  0  0  0  0  0  0  0  0
    4.1128    5.0255   25.8843 C   0  0  2  0  0  0  0  0  0  0  0  0
    3.7387    3.8122   25.1812 O   0  0  0  0  0  0  0  0  0  0  0  0
    3.0470    1.3806   28.2056 C   0  0  0  0  0  0  0  0  0  0  0  0
    2.9819   -0.0326   28.2852 O   0  0  0  0  0  0  0  0  0  0  0  0
   -3.1817   -0.1990   26.5788 C   0  0  1  0  0  0  0  0  0  0  0  0
   -2.1241    0.5883   25.9510 O   0  0  0  0  0  0  0  0  0  0  0  0
   -0.0134    4.6628   28.7581 C   0  0  0  0  0  0  0  0  0  0  0  0
   -0.0061    5.3042   27.4940 O   0  0  0  0  0  0  0  0  0  0  0  0
    4.7946    5.9922   24.8669 C   0  0  1  0  0  0  0  0  0  0  0  0
    3.8180    6.4282   23.9225 O   0  0  0  0  0  0  0  0  0  0  0  0
   -4.5572    0.3128   26.0796 C   0  0  0  0  0  0  0  0  0  0  0  0
   -4.4949    1.6979   25.5791 N   0  0  0  0  0  0  0  0  0  0  0  0
  1  2  1  6  0  0  0
  1  7  1  0  0  0  0
  1 30  1  0  0  0  0
  3  4  1  6  0  0  0
  3  9  1  0  0  0  0
  3 39  1  0  0  0  0
  5 10  1  0  0  0  0
  5 26  1  0  0  0  0
  5 32  1  1  0  0  0
  6 12  1  0  0  0  0
  6 36  1  0  0  0  0
  6 19  1  6  0  0  0
  7  8  1  6  0  0  0
  7 14  1  0  0  0  0
  9 16  1  0  0  0  0
 10 11  1  6  0  0  0
 10 18  1  0  0  0  0
 12 13  1  6  0  0  0
 12 20  1  0  0  0  0
 14 15  1  1  0  0  0
 14 22  1  0  0  0  0
 16 17  1  1  0  0  0
 16 24  1  0  0  0  0
 18 19  1  6  0  0  0
 18 25  1  0  0  0  0
 20 21  1  1  0  0  0
 20 27  1  0  0  0  0
 22 23  1  6  0  0  0
 22 29  1  0  0  0  0
 24  2  1  1  0  0  0
 24 31  1  0  0  0  0
 25 26  1  0  0  0  0
 25 33  1  6  0  0  0
 27 28  1  6  0  0  0
 27 35  1  0  0  0  0
 29 30  1  0  0  0  0
 29 37  1  1  0  0  0
 31 32  1  6  0  0  0
 31 39  1  0  0  0  0
 33 34  1  0  0  0  0
 35 36  1  0  0  0  0
 35 41  1  6  0  0  0
 37 38  1  0  0  0  0
 39 40  1  6  0  0  0
 41 42  1  0  0  0  0
M  END
>  <CHROM.1>
-135.86783416,30.06711591,-70.47911799,161.30821400,72.61662347,147.36204287
-73.03742866,71.57811254,160.30668715,-59.96042651,-173.83080244,-49.62940808
-40.73743567,78.60839498,175.84288081,98.51538116,-158.01407647,99.36638489
-144.34104522,-44.92040817,-49.67366980,33.78995459,1.77601086,2.69538548
27.17168627,-0.01379070,0.73233189,1.77959080

>  <Name>
1fyp_lig

>  <RI>
0

>  <Rbt.Current_Directory>
/home/itssahil/PROJECTS/Mol_Feturizer/New_Systems/rnas/1fyp

>  <Rbt.Executable>
rbdock ($Id: //depot/dev/client3/rdock/2013.1/src/exe/rbdock.cxx#4 $)

>  <Rbt.Library>
libRbt.so (2013.1, Build901 2013/11/27)

>  <Rbt.Parameter_File>
/export/apps/rDock/src/rDock_2013.1_src/data/scripts/dock_solv.prm

>  <Rbt.Receptor>
prm/blind_docking_60.prm

>  <SCORE>
-40.8471

>  <SCORE.INTER>
-41.2687

>  <SCORE.INTER.CONST>
1

>  <SCORE.INTER.POLAR>
-6.10282

>  <SCORE.INTER.ROT>
14

>  <SCORE.INTER.SOLV>
18.4591

>  <SCORE.INTER.VDW>
-26.2561

>  <SCORE.INTER.norm>
-0.982587

>  <SCORE.INTRA>
0.272227

>  <SCORE.INTRA.DIHEDRAL>
-10.9101

>  <SCORE.INTRA.DIHEDRAL.0>
48.7173

>  <SCORE.INTRA.POLAR>
-0.0726514

>  <SCORE.INTRA.POLAR.0>
-1.54691

>  <SCORE.INTRA.REPUL>
0.195303

>  <SCORE.INTRA.REPUL.0>
0

>  <SCORE.INTRA.SOLV>
0.31105

>  <SCORE.INTRA.SOLV.lig_0>
-64.052

>  <SCORE.INTRA.VDW>
4.84225

>  <SCORE.INTRA.VDW.0>
-7.0667

>  <SCORE.INTRA.norm>
0.00648159

>  <SCORE.RESTR>
0.149379

>  <SCORE.RESTR.CAVITY>
0.149379

>  <SCORE.RESTR.norm>
0.00355665

>  <SCORE.SYSTEM>
0

>  <SCORE.SYSTEM.CONST>
0

>  <SCORE.SYSTEM.DIHEDRAL>
0

>  <SCORE.SYSTEM.SOLV>
0

>  <SCORE.SYSTEM.norm>
0

>  <SCORE.heavy>
42

>  <SCORE.norm>
-0.972549

>  <RMSD>
4.561

$$$$
1fyp_lig
 OpenBabel11021811393D
libRbt.so/2013.1/901 2013/11/27
 42 45  0  0  0  0  0  0  0  0999 V2000
    3.6065    7.3730   26.7266 C   0  0  2  0  0  0  0  0  0  0  0  0
    3.0416    6.0320   26.6562 O   0  0  0  0  0  0  0  0  0  0  0  0
    5.2187    4.4057   29.9511 C   0  0  2  0  0  0  0  0  0  0  0  0
    5.6727    3.6843   31.1543 N   0  0  0  0  0  0  0  0  0  0  0  0
    2.6619    2.6986   26.5655 C   0  0  1  0  0  0  0  0  0  0  0  0
   -0.6861   -0.0551   25.6819 C   0  0  1  0  0  0  0  0  0  0  0  0
    2.9216    8.3370   25.7049 C   0  0  2  0  0  0  0  0  0  0  0  0
    1.4489    8.2847   25.8225 N   0  0  0  0  0  0  0  0  0  0  0  0
    3.9431    5.2054   30.2832 C   0  0  0  0  0  0  0  0  0  0  0  0
    2.5856    1.3629   25.8214 C   0  0  2  0  0  0  0  0  0  0  0  0
    2.1738    1.5906   24.4731 O   0  0  0  0  0  0  0  0  0  0  0  0
   -0.5981   -0.1596   24.1287 C   0  0  2  0  0  0  0  0  0  0  0  0
   -0.7141    1.1592   23.4597 N   0  0  0  0  0  0  0  0  0  0  0  0
    3.3604    8.0027   24.2448 C   0  0  1  0  0  0  0  0  0  0  0  0
    2.8562    8.9846   23.3429 O   0  0  0  0  0  0  0  0  0  0  0  0
    3.4225    6.0146   29.0640 C   0  0  2  0  0  0  0  0  0  0  0  0
    2.1622    6.6739   29.4647 N   0  0  0  0  0  0  0  0  0  0  0  0
    1.5055    0.6229   26.6153 C   0  0  2  0  0  0  0  0  0  0  0  0
    0.1672    1.0033   26.1901 O   0  0  0  0  0  0  0  0  0  0  0  0
   -1.6526   -1.1691   23.5791 C   0  0  1  0  0  0  0  0  0  0  0  0
   -1.2233   -2.4913   23.8972 O   0  0  0  0  0  0  0  0  0  0  0  0
    4.9024    7.9502   24.1042 C   0  0  2  0  0  0  0  0  0  0  0  0
    5.2351    7.5507   22.7781 O   0  0  0  0  0  0  0  0  0  0  0  0
    3.2238    5.1272   27.7829 C   0  0  2  0  0  0  0  0  0  0  0  0
    1.7735    1.1032   28.0484 C   0  0  2  0  0  0  0  0  0  0  0  0
    2.2801    2.4465   27.9273 O   0  0  0  0  0  0  0  0  0  0  0  0
   -3.0864   -0.9695   24.1572 C   0  0  2  0  0  0  0  0  0  0  0  0
   -3.6526    0.2045   23.5724 O   0  0  0  0  0  0  0  0  0  0  0  0
    5.5061    6.9613   25.1415 C   0  0  2  0  0  0  0  0  0  0  0  0
    5.0520    7.3335   26.4776 O   0  0  0  0  0  0  0  0  0  0  0  0
    4.4466    4.1817   27.4982 C   0  0  2  0  0  0  0  0  0  0  0  0
    4.0322    3.1888   26.5240 O   0  0  0  0  0  0  0  0  0  0  0  0
    2.7864    0.2216   28.8004 C   0  0  0  0  0  0  0  0  0  0  0  0
    3.0214    0.7225   30.1048 O   0  0  0  0  0  0  0  0  0  0  0  0
   -3.0429   -0.8303   25.7107 C   0  0  1  0  0  0  0  0  0  0  0  0
   -2.0752    0.1976   26.0841 O   0  0  0  0  0  0  0  0  0  0  0  0
    7.0501    6.9353   25.1905 C   0  0  0  0  0  0  0  0  0  0  0  0
    7.5192    6.0029   26.1497 O   0  0  0  0  0  0  0  0  0  0  0  0
    4.9505    3.4376   28.7737 C   0  0  1  0  0  0  0  0  0  0  0  0
    6.1557    2.7438   28.4544 O   0  0  0  0  0  0  0  0  0  0  0  0
   -4.4231   -0.4698   26.3177 C   0  0  0  0  0  0  0  0  0  0  0  0
   -4.3331   -0.1029   27.7426 N   0  0  0  0  0  0  0  0  0  0  0  0
  1  2  1  6  0  0  0
  1  7  1  0  0  0  0
  1 30  1  0  0  0  0
  3  4  1  1  0  0  0
  3  9  1  0  0  0  0
  3 39  1  0  0  0  0
  5 10  1  0  0  0  0
  5 26  1  0  0  0  0
  5 32  1  1  0  0  0
  6 12  1  0  0  0  0
  6 36  1  0  0  0  0
  6 19  1  6  0  0  0
  7  8  1  6  0  0  0
  7 14  1  0  0  0  0
  9 16  1  0  0  0  0
 10 11  1  6  0  0  0
 10 18  1  0  0  0  0
 12 13  1  6  0  0  0
 12 20  1  0  0  0  0
 14 15  1  6  0  0  0
 14 22  1  0  0  0  0
 16 17  1  1  0  0  0
 16 24  1  0  0  0  0
 18 19  1  6  0  0  0
 18 25  1  0  0  0  0
 20 21  1  1  0  0  0
 20 27  1  0  0  0  0
 22 23  1  6  0  0  0
 22 29  1  0  0  0  0
 24  2  1  6  0  0  0
 24 31  1  0  0  0  0
 25 26  1  0  0  0  0
 25 33  1  6  0  0  0
 27 28  1  6  0  0  0
 27 35  1  0  0  0  0
 29 30  1  0  0  0  0
 29 37  1  1  0  0  0
 31 32  1  6  0  0  0
 31 39  1  0  0  0  0
 33 34  1  0  0  0  0
 35 36  1  0  0  0  0
 35 41  1  6  0  0  0
 37 38  1  0  0  0  0
 39 40  1  6  0  0  0
 41 42  1  0  0  0  0
M  END
>  <CHROM.1>
-160.32828163,25.73137190,92.47196906,-155.08193577,174.01036722,-179.93104835
-66.33112960,-49.09404094,120.29375340,-93.91900088,-56.34415033,61.71241389
178.70151542,166.81754293,-179.47684942,-34.86699373,-160.27566485,-166.97365715
-169.71319410,172.51421109,-50.92177662,68.34216372,2.12701389,3.36724094
26.41565320,0.43936784,-0.70844161,-0.77613972

>  <Name>
1fyp_lig

>  <RI>
0

>  <Rbt.Current_Directory>
/home/itssahil/PROJECTS/Mol_Feturizer/New_Systems/rnas/1fyp

>  <Rbt.Executable>
rbdock ($Id: //depot/dev/client3/rdock/2013.1/src/exe/rbdock.cxx#4 $)

>  <Rbt.Library>
libRbt.so (2013.1, Build901 2013/11/27)

>  <Rbt.Parameter_File>
/export/apps/rDock/src/rDock_2013.1_src/data/scripts/dock_solv.prm

>  <Rbt.Receptor>
prm/pocket_docking_4.prm

>  <SCORE>
-57.7333

>  <SCORE.INTER>
-56.034

>  <SCORE.INTER.CONST>
1

>  <SCORE.INTER.POLAR>
-7.35152

>  <SCORE.INTER.ROT>
14

>  <SCORE.INTER.SOLV>
20.1886

>  <SCORE.INTER.VDW>
-32.5138

>  <SCORE.INTER.norm>
-1.33414

>  <SCORE.INTRA>
-1.87695

>  <SCORE.INTRA.DIHEDRAL>
-20.8663

>  <SCORE.INTRA.DIHEDRAL.0>
48.7173

>  <SCORE.INTRA.POLAR>
1.40371

>  <SCORE.INTRA.POLAR.0>
-1.54691

>  <SCORE.INTRA.REPUL>
0.00193757

>  <SCORE.INTRA.REPUL.0>
0

>  <SCORE.INTRA.SOLV>
-1.72054

>  <SCORE.INTRA.SOLV.lig_0>
-64.052

>  <SCORE.INTRA.VDW>
4.63419

>  <SCORE.INTRA.VDW.0>
-7.0667

>  <SCORE.INTRA.norm>
-0.0446892

>  <SCORE.RESTR>
0.177635

>  <SCORE.RESTR.CAVITY>
0.177635

>  <SCORE.RESTR.norm>
0.00422939

>  <SCORE.SYSTEM>
0

>  <SCORE.SYSTEM.CONST>
0

>  <SCORE.SYSTEM.DIHEDRAL>
0

>  <SCORE.SYSTEM.SOLV>
0

>  <SCORE.SYSTEM.norm>
0

>  <SCORE.heavy>
42

>  <SCORE.norm>
-1.3746

>  <RMSD>
4.562

$$$$
1fyp_lig
 OpenBabel11021811393D
libRbt.so/2013.1/901 2013/11/27
 42 45  0  0  0  0  0  0  0  0999 V2000
    3.3759    7.6030   24.8636 C   0  0  2  0  0  0  0  0  0  0  0  0
    3.4057    6.1499   24.7635 O   0  0  0  0  0  0  0  0  0  0  0  0
    5.5506    4.1575   27.8732 C   0  0  2  0  0  0  0  0  0  0  0  0
    5.9788    3.4404   29.0885 N   0  0  0  0  0  0  0  0  0  0  0  0
    2.0538    2.7646   25.6263 C   0  0  1  0  0  0  0  0  0  0  0  0
   -1.4194    0.2241   26.7904 C   0  0  1  0  0  0  0  0  0  0  0  0
    2.8953    8.2589   23.5291 C   0  0  2  0  0  0  0  0  0  0  0  0
    1.6335    7.6505   23.0565 N   0  0  0  0  0  0  0  0  0  0  0  0
    4.7397    5.4061   28.2734 C   0  0  0  0  0  0  0  0  0  0  0  0
    1.6137    1.3887   25.1193 C   0  0  2  0  0  0  0  0  0  0  0  0
    0.6703    1.5501   24.0594 O   0  0  0  0  0  0  0  0  0  0  0  0
   -2.7687    0.5432   26.0772 C   0  0  2  0  0  0  0  0  0  0  0  0
   -3.1949    1.9516   26.2641 N   0  0  0  0  0  0  0  0  0  0  0  0
    3.9955    8.1487   22.4275 C   0  0  1  0  0  0  0  0  0  0  0  0
    3.6090    8.8869   21.2710 O   0  0  0  0  0  0  0  0  0  0  0  0
    4.2778    6.2276   27.0387 C   0  0  2  0  0  0  0  0  0  0  0  0
    3.4471    7.3479   27.5270 N   0  0  0  0  0  0  0  0  0  0  0  0
    0.9535    0.7919   26.3652 C   0  0  2  0  0  0  0  0  0  0  0  0
   -0.4219    1.2418   26.5153 O   0  0  0  0  0  0  0  0  0  0  0  0
   -3.8834   -0.4512   26.5264 C   0  0  1  0  0  0  0  0  0  0  0  0
   -3.6295   -1.7189   25.9248 O   0  0  0  0  0  0  0  0  0  0  0  0
    5.3617    8.6868   22.9216 C   0  0  2  0  0  0  0  0  0  0  0  0
    6.3397    8.4731   21.9084 O   0  0  0  0  0  0  0  0  0  0  0  0
    3.5055    5.3584   25.9821 C   0  0  2  0  0  0  0  0  0  0  0  0
    1.8307    1.3517   27.4937 C   0  0  2  0  0  0  0  0  0  0  0  0
    2.2865    2.6404   27.0384 O   0  0  0  0  0  0  0  0  0  0  0  0
   -3.9724   -0.6526   28.0696 C   0  0  2  0  0  0  0  0  0  0  0  0
   -4.5463    0.5206   28.6484 O   0  0  0  0  0  0  0  0  0  0  0  0
    5.7767    7.9768   24.2414 C   0  0  2  0  0  0  0  0  0  0  0  0
    4.7026    8.1191   25.2192 O   0  0  0  0  0  0  0  0  0  0  0  0
    4.2280    3.9999   25.6621 C   0  0  2  0  0  0  0  0  0  0  0  0
    3.2902    3.1447   24.9581 O   0  0  0  0  0  0  0  0  0  0  0  0
    3.0342    0.4515   27.8250 C   0  0  0  0  0  0  0  0  0  0  0  0
    3.2461    0.3863   29.2245 O   0  0  0  0  0  0  0  0  0  0  0  0
   -2.5593   -0.9167   28.6761 C   0  0  1  0  0  0  0  0  0  0  0  0
   -1.6353    0.1264   28.2393 O   0  0  0  0  0  0  0  0  0  0  0  0
    7.0553    8.5360   24.9045 C   0  0  0  0  0  0  0  0  0  0  0  0
    8.1955    8.3151   24.0918 O   0  0  0  0  0  0  0  0  0  0  0  0
    4.7098    3.2503   26.9430 C   0  0  1  0  0  0  0  0  0  0  0  0
    5.4963    2.1269   26.5490 O   0  0  0  0  0  0  0  0  0  0  0  0
   -2.5729   -0.9636   30.2256 C   0  0  0  0  0  0  0  0  0  0  0  0
   -3.0778    0.2862   30.8225 N   0  0  0  0  0  0  0  0  0  0  0  0
  1  2  1  6  0  0  0
  1  7  1  0  0  0  0
  1 30  1  0  0  0  0
  3  4  1  1  0  0  0
  3  9  1  0  0  0  0
  3 39  1  0  0  0  0
  5 10  1  0  0  0  0
  5 26  1  0  0  0  0
  5 32  1  6  0  0  0
  6 12  1  0  0  0  0
  6 36  1  0  0  0  0
  6 19  1  1  0  0  0
  7  8  1  6  0  0  0
  7 14  1  0  0  0  0
  9 16  1  0  0  0  0
 10 11  1  6  0  0  0
 10 18  1  0  0  0  0
 12 13  1  1  0  0  0
 12 20  1  0  0  0  0
 14 15  1  6  0  0  0
 14 22  1  0  0  0  0
 16 17  1  1  0  0  0
 16 24  1  0  0  0  0
 18 19  1  1  0  0  0
 18 25  1  0  0  0  0
 20 21  1  6  0  0  0
 20 27  1  0  0  0  0
 22 23  1  6  0  0  0
 22 29  1  0  0  0  0
 24  2  1  6  0  0  0
 24 31  1  0  0  0  0
 25 26  1  0  0  0  0
 25 33  1  6  0  0  0
 27 28  1  1  0  0  0
 27 35  1  0  0  0  0
 29 30  1  0  0  0  0
 29 37  1  1  0  0  0
 31 32  1  1  0  0  0
 31 39  1  0  0  0  0
 33 34  1  0  0  0  0
 35 36  1  0  0  0  0
 35 41  1  1  0  0  0
 37 38  1  0  0  0  0
 39 40  1  6  0  0  0
 41 42  1  0  0  0  0
M  END
>  <CHROM.1>
-165.02790956,-28.79587881,141.30749340,58.37497095,178.26891110,171.87013309
-111.88663891,-58.51108758,132.18185281,-143.69840128,172.56416136,74.13763887
-139.64951423,70.64378359,-65.30758909,-60.74817680,-150.14224130,84.84053357
-58.64549281,47.09134362,178.29040524,-68.51638254,1.98536724,3.63999409
26.14699609,0.78737103,-0.35458206,-0.77494542

>  <Name>
1fyp_lig

>  <RI>
0

>  <Rbt.Current_Directory>
/home/itssahil/PROJECTS/Mol_Feturizer/New_Systems/rnas/1fyp

>  <Rbt.Executable>
rbdock ($Id: //depot/dev/client3/rdock/2013.1/src/exe/rbdock.cxx#4 $)

>  <Rbt.Library>
libRbt.so (2013.1, Build901 2013/11/27)

>  <Rbt.Parameter_File>
/export/apps/rDock/src/rDock_2013.1_src/data/scripts/dock_solv.prm

>  <Rbt.Receptor>
prm/blind_docking_60.prm

>  <SCORE>
-47.3058

>  <SCORE.INTER>
-50.9973

>  <SCORE.INTER.CONST>
1

>  <SCORE.INTER.POLAR>
-6.904

>  <SCORE.INTER.ROT>
14

>  <SCORE.INTER.SOLV>
22.7599

>  <SCORE.INTER.VDW>
-31.5049

>  <SCORE.INTER.norm>
-1.21422

>  <SCORE.INTRA>
3.69149

>  <SCORE.INTRA.DIHEDRAL>
-10.4499

>  <SCORE.INTRA.DIHEDRAL.0>
48.7173

>  <SCORE.INTRA.POLAR>
0.675906

>  <SCORE.INTRA.POLAR.0>
-1.54691

>  <SCORE.INTRA.REPUL>
0.0282667

>  <SCORE.INTRA.REPUL.0>
0

>  <SCORE.INTRA.SOLV>
-0.890464

>  <SCORE.INTRA.SOLV.lig_0>
-64.052

>  <SCORE.INTRA.VDW>
6.92226

>  <SCORE.INTRA.VDW.0>
-7.0667

>  <SCORE.INTRA.norm>
0.0878926

>  <SCORE.RESTR>
0

>  <SCORE.RESTR.CAVITY>
0

>  <SCORE.RESTR.norm>
0

>  <SCORE.SYSTEM>
0

>  <SCORE.SYSTEM.CONST>
0

>  <SCORE.SYSTEM.DIHEDRAL>
0

>  <SCORE.SYSTEM.SOLV>
0

>  <SCORE.SYSTEM.norm>
0

>  <SCORE.heavy>
42

>  <SCORE.norm>
-1.12633

>  <RMSD>
4.572

$$$$
1fyp_lig
 OpenBabel11021811393D
libRbt.so/2013.1/901 2013/11/27
 42 45  0  0  0  0  0  0  0  0999 V2000
    4.0084    7.6523   26.1893 C   0  0  2  0  0  0  0  0  0  0  0  0
    3.8247    6.2142   26.0460 O   0  0  0  0  0  0  0  0  0  0  0  0
    4.5690    4.5305   29.8998 C   0  0  2  0  0  0  0  0  0  0  0  0
    4.4919    3.8678   31.2149 N   0  0  0  0  0  0  0  0  0  0  0  0
    2.7343    2.6846   26.3498 C   0  0  1  0  0  0  0  0  0  0  0  0
   -0.5514   -0.1822   25.4826 C   0  0  1  0  0  0  0  0  0  0  0  0
    2.9871    8.4497   25.3157 C   0  0  2  0  0  0  0  0  0  0  0  0
    1.6038    7.9819   25.5465 N   0  0  0  0  0  0  0  0  0  0  0  0
    3.4876    5.6259   29.8132 C   0  0  0  0  0  0  0  0  0  0  0  0
    2.7130    1.3725   25.5615 C   0  0  2  0  0  0  0  0  0  0  0  0
    2.3031    1.6296   24.2178 O   0  0  0  0  0  0  0  0  0  0  0  0
   -0.3040   -0.5652   23.9916 C   0  0  2  0  0  0  0  0  0  0  0  0
   -0.2648    0.6172   23.0967 N   0  0  0  0  0  0  0  0  0  0  0  0
    3.3490    8.3435   23.8011 C   0  0  1  0  0  0  0  0  0  0  0  0
    2.5080    9.2009   23.0334 O   0  0  0  0  0  0  0  0  0  0  0  0
    3.5284    6.3865   28.4596 C   0  0  2  0  0  0  0  0  0  0  0  0
    2.4085    7.3504   28.4495 N   0  0  0  0  0  0  0  0  0  0  0  0
    1.6551    0.5673   26.3211 C   0  0  2  0  0  0  0  0  0  0  0  0
    0.3069    0.9124   25.8971 O   0  0  0  0  0  0  0  0  0  0  0  0
   -1.3545   -1.6105   23.5047 C   0  0  1  0  0  0  0  0  0  0  0  0
   -1.0454   -2.8720   24.0934 O   0  0  0  0  0  0  0  0  0  0  0  0
    4.8247    8.7316   23.5327 C   0  0  2  0  0  0  0  0  0  0  0  0
    5.1164    8.5251   22.1539 O   0  0  0  0  0  0  0  0  0  0  0  0
    3.4699    5.4256   27.2181 C   0  0  2  0  0  0  0  0  0  0  0  0
    1.8945    1.0093   27.7716 C   0  0  2  0  0  0  0  0  0  0  0  0
    2.3520    2.3736   27.6992 O   0  0  0  0  0  0  0  0  0  0  0  0
   -2.8268   -1.2501   23.8686 C   0  0  2  0  0  0  0  0  0  0  0  0
   -3.2524   -0.1759   23.0286 O   0  0  0  0  0  0  0  0  0  0  0  0
    5.7766    7.8868   24.4261 C   0  0  2  0  0  0  0  0  0  0  0  0
    5.3771    8.0328   25.8222 O   0  0  0  0  0  0  0  0  0  0  0  0
    4.4536    4.2061   27.3416 C   0  0  2  0  0  0  0  0  0  0  0  0
    4.0858    3.2259   26.3364 O   0  0  0  0  0  0  0  0  0  0  0  0
    2.9336    0.1409   28.5029 C   0  0  0  0  0  0  0  0  0  0  0  0
    3.0724    0.5486   29.8528 O   0  0  0  0  0  0  0  0  0  0  0  0
   -2.9416   -0.8385   25.3693 C   0  0  1  0  0  0  0  0  0  0  0  0
   -1.9572    0.1972   25.6705 O   0  0  0  0  0  0  0  0  0  0  0  0
    7.2663    8.2889   24.3481 C   0  0  0  0  0  0  0  0  0  0  0  0
    8.0476    7.5524   25.2737 O   0  0  0  0  0  0  0  0  0  0  0  0
    4.3981    3.5187   28.7412 C   0  0  1  0  0  0  0  0  0  0  0  0
    5.4364    2.5429   28.8150 O   0  0  0  0  0  0  0  0  0  0  0  0
   -4.3537   -0.3171   25.7400 C   0  0  0  0  0  0  0  0  0  0  0  0
   -5.3892   -1.3589   25.6160 N   0  0  0  0  0  0  0  0  0  0  0  0
  1  2  1  6  0  0  0
  1  7  1  0  0  0  0
  1 30  1  0  0  0  0
  3  4  1  1  0  0  0
  3  9  1  0  0  0  0
  3 39  1  0  0  0  0
  5 10  1  0  0  0  0
  5 26  1  0  0  0  0
  5 32  1  1  0  0  0
  6 12  1  0  0  0  0
  6 36  1  0  0  0  0
  6 19  1  6  0  0  0
  7  8  1  6  0  0  0
  7 14  1  0  0  0  0
  9 16  1  0  0  0  0
 10 11  1  6  0  0  0
 10 18  1  0  0  0  0
 12 13  1  6  0  0  0
 12 20  1  0  0  0  0
 14 15  1  6  0  0  0
 14 22  1  0  0  0  0
 16 17  1  1  0  0  0
 16 24  1  0  0  0  0
 18 19  1  6  0  0  0
 18 25  1  0  0  0  0
 20 21  1  1  0  0  0
 20 27  1  0  0  0  0
 22 23  1  6  0  0  0
 22 29  1  0  0  0  0
 24  2  1  6  0  0  0
 24 31  1  0  0  0  0
 25 26  1  0  0  0  0
 25 33  1  6  0  0  0
 27 28  1  6  0  0  0
 27 35  1  0  0  0  0
 29 30  1  0  0  0  0
 29 37  1  1  0  0  0
 31 32  1  6  0  0  0
 31 39  1  0  0  0  0
 33 34  1  0  0  0  0
 35 36  1  0  0  0  0
 35 41  1  6  0  0  0
 37 38  1  0  0  0  0
 39 40  1  6  0  0  0
 41 42  1  0  0  0  0
M  END
>  <CHROM.1>
-118.57491502,-6.25140455,56.79768793,62.22154426,-48.37335677,95.78393539
66.31347591,-68.25978695,126.75712926,-83.67097499,68.00293748,177.83537371
-177.25376529,-50.69823344,174.92030231,-58.06065339,-160.62537218,37.16398142
64.80427002,178.39103268,70.75930291,-150.64551002,2.15649707,3.48840094
26.01974027,0.50981942,-0.76319163,-0.80152696

>  <Name>
1fyp_lig

>  <RI>
0

>  <Rbt.Current_Directory>
/home/itssahil/PROJECTS/Mol_Feturizer/New_Systems/rnas/1fyp

>  <Rbt.Executable>
rbdock ($Id: //depot/dev/client3/rdock/2013.1/src/exe/rbdock.cxx#4 $)

>  <Rbt.Library>
libRbt.so (2013.1, Build901 2013/11/27)

>  <Rbt.Parameter_File>
/export/apps/rDock/src/rDock_2013.1_src/data/scripts/dock_solv.prm

>  <Rbt.Receptor>
prm/blind_docking_80.prm

>  <SCORE>
-51.1655

>  <SCORE.INTER>
-51.2057

>  <SCORE.INTER.CONST>
1

>  <SCORE.INTER.POLAR>
-6.34001

>  <SCORE.INTER.ROT>
14

>  <SCORE.INTER.SOLV>
19.9089

>  <SCORE.INTER.VDW>
-32.5734

>  <SCORE.INTER.norm>
-1.21918

>  <SCORE.INTRA>
0.0401396

>  <SCORE.INTRA.DIHEDRAL>
-15.6074

>  <SCORE.INTRA.DIHEDRAL.0>
48.7173

>  <SCORE.INTRA.POLAR>
0.180626

>  <SCORE.INTRA.POLAR.0>
-1.54691

>  <SCORE.INTRA.REPUL>
0

>  <SCORE.INTRA.REPUL.0>
0

>  <SCORE.INTRA.SOLV>
-0.429476

>  <SCORE.INTRA.SOLV.lig_0>
-64.052

>  <SCORE.INTRA.VDW>
7.44445

>  <SCORE.INTRA.VDW.0>
-7.0667

>  <SCORE.INTRA.norm>
0.000955705

>  <SCORE.RESTR>
0

>  <SCORE.RESTR.CAVITY>
0

>  <SCORE.RESTR.norm>
0

>  <SCORE.SYSTEM>
0

>  <SCORE.SYSTEM.CONST>
0

>  <SCORE.SYSTEM.DIHEDRAL>
0

>  <SCORE.SYSTEM.SOLV>
0

>  <SCORE.SYSTEM.norm>
0

>  <SCORE.heavy>
42

>  <SCORE.norm>
-1.21823

>  <RMSD>
4.590

$$$$
1fyp_lig
 OpenBabel11021811393D
libRbt.so/2013.1/901 2013/11/27
 42 45  0  0  0  0  0  0  0  0999 V2000
    4.2369    8.0425   25.3685 C   0  0  2  0  0  0  0  0  0  0  0  0
    3.8339    6.6715   25.0850 O   0  0  0  0  0  0  0  0  0  0  0  0
    4.9093    4.4088   28.5440 C   0  0  2  0  0  0  0  0  0  0  0  0
    4.9402    3.5843   29.7662 N   0  0  0  0  0  0  0  0  0  0  0  0
    2.3284    3.4244   25.0398 C   0  0  1  0  0  0  0  0  0  0  0  0
   -1.4869    1.1716   25.5362 C   0  0  1  0  0  0  0  0  0  0  0  0
    3.6365    9.0423   24.3283 C   0  0  2  0  0  0  0  0  0  0  0  0
    2.1783    8.8498   24.1793 N   0  0  0  0  0  0  0  0  0  0  0  0
    3.9700    5.6121   28.7607 C   0  0  0  0  0  0  0  0  0  0  0  0
    2.0762    1.9248   25.2175 C   0  0  2  0  0  0  0  0  0  0  0  0
    1.8377    1.3268   23.9427 O   0  0  0  0  0  0  0  0  0  0  0  0
   -2.2103    1.5173   26.8735 C   0  0  2  0  0  0  0  0  0  0  0  0
   -1.2639    1.7474   27.9923 N   0  0  0  0  0  0  0  0  0  0  0  0
    4.3458    8.8986   22.9454 C   0  0  1  0  0  0  0  0  0  0  0  0
    3.9007    9.9197   22.0561 O   0  0  0  0  0  0  0  0  0  0  0  0
    3.9101    6.5422   27.5182 C   0  0  2  0  0  0  0  0  0  0  0  0
    2.9277    7.6094   27.8002 N   0  0  0  0  0  0  0  0  0  0  0  0
    0.8108    1.9196   26.0795 C   0  0  2  0  0  0  0  0  0  0  0  0
   -0.3905    2.0864   25.2759 O   0  0  0  0  0  0  0  0  0  0  0  0
   -3.2614    0.4232   27.2356 C   0  0  1  0  0  0  0  0  0  0  0  0
   -4.3777    0.5591   26.3587 O   0  0  0  0  0  0  0  0  0  0  0  0
    5.8866    8.9956   23.0752 C   0  0  2  0  0  0  0  0  0  0  0  0
    6.4762    8.7643   21.7994 O   0  0  0  0  0  0  0  0  0  0  0  0
    3.5562    5.7713   26.1958 C   0  0  2  0  0  0  0  0  0  0  0  0
    1.0308    3.1421   26.9815 C   0  0  2  0  0  0  0  0  0  0  0  0
    1.7844    4.0844   26.1941 O   0  0  0  0  0  0  0  0  0  0  0  0
   -2.7260   -1.0363   27.1212 C   0  0  2  0  0  0  0  0  0  0  0  0
   -1.8399   -1.2821   28.2143 O   0  0  0  0  0  0  0  0  0  0  0  0
    6.4073    7.9624   24.1142 C   0  0  2  0  0  0  0  0  0  0  0  0
    5.6999    8.1550   25.3760 O   0  0  0  0  0  0  0  0  0  0  0  0
    4.3894    4.4509   26.0160 C   0  0  2  0  0  0  0  0  0  0  0  0
    3.7634    3.6607   24.9718 O   0  0  0  0  0  0  0  0  0  0  0  0
    1.7917    2.8068   28.2766 C   0  0  0  0  0  0  0  0  0  0  0  0
    1.3571    3.6297   29.3451 O   0  0  0  0  0  0  0  0  0  0  0  0
   -1.9821   -1.2488   25.7663 C   0  0  1  0  0  0  0  0  0  0  0  0
   -0.9772   -0.2042   25.5894 O   0  0  0  0  0  0  0  0  0  0  0  0
    7.9156    8.0665   24.4325 C   0  0  0  0  0  0  0  0  0  0  0  0
    8.2173    9.2762   25.1070 O   0  0  0  0  0  0  0  0  0  0  0  0
    4.4506    3.5881   27.3146 C   0  0  1  0  0  0  0  0  0  0  0  0
    5.3605    2.5089   27.1065 O   0  0  0  0  0  0  0  0  0  0  0  0
   -1.2930   -2.6343   25.6733 C   0  0  0  0  0  0  0  0  0  0  0  0
   -0.5619   -2.8158   24.4061 N   0  0  0  0  0  0  0  0  0  0  0  0
  1  2  1  6  0  0  0
  1  7  1  0  0  0  0
  1 30  1  0  0  0  0
  3  4  1  1  0  0  0
  3  9  1  0  0  0  0
  3 39  1  0  0  0  0
  5 10  1  0  0  0  0
  5 26  1  0  0  0  0
  5 32  1  1  0  0  0
  6 12  1  0  0  0  0
  6 36  1  0  0  0  0
  6 19  1  1  0  0  0
  7  8  1  6  0  0  0
  7 14  1  0  0  0  0
  9 16  1  0  0  0  0
 10 11  1  6  0  0  0
 10 18  1  0  0  0  0
 12 13  1  1  0  0  0
 12 20  1  0  0  0  0
 14 15  1  6  0  0  0
 14 22  1  0  0  0  0
 16 17  1  1  0  0  0
 16 24  1  0  0  0  0
 18 19  1  6  0  0  0
 18 25  1  0  0  0  0
 20 21  1  6  0  0  0
 20 27  1  0  0  0  0
 22 23  1  6  0  0  0
 22 29  1  0  0  0  0
 24  2  1  6  0  0  0
 24 31  1  0  0  0  0
 25 26  1  0  0  0  0
 25 33  1  1  0  0  0
 27 28  1  1  0  0  0
 27 35  1  0  0  0  0
 29 30  1  0  0  0  0
 29 37  1  1  0  0  0
 31 32  1  6  0  0  0
 31 39  1  0  0  0  0
 33 34  1  0  0  0  0
 35 36  1  0  0  0  0
 35 41  1  1  0  0  0
 37 38  1  0  0  0  0
 39 40  1  6  0  0  0
 41 42  1  0  0  0  0
M  END
>  <CHROM.1>
-143.27710034,-5.09488750,-71.63874121,-142.81019446,-73.98646524,105.19321869
-58.87424798,-55.65027221,132.50685238,73.90994817,66.50178832,66.89981348
-147.12853659,-52.25273732,67.00612218,-49.56631822,-116.04042103,176.47448466
-178.48201910,-173.30004005,170.79502786,91.83206848,2.28091620,4.07579630
25.91860154,0.61020324,-0.69418815,-0.97036816

>  <Name>
1fyp_lig

>  <RI>
0

>  <Rbt.Current_Directory>
/home/itssahil/PROJECTS/Mol_Feturizer/New_Systems/rnas/1fyp

>  <Rbt.Executable>
rbdock ($Id: //depot/dev/client3/rdock/2013.1/src/exe/rbdock.cxx#4 $)

>  <Rbt.Library>
libRbt.so (2013.1, Build901 2013/11/27)

>  <Rbt.Parameter_File>
/export/apps/rDock/src/rDock_2013.1_src/data/scripts/dock_solv.prm

>  <Rbt.Receptor>
prm/blind_docking_60.prm

>  <SCORE>
-23.2911

>  <SCORE.INTER>
-31.8287

>  <SCORE.INTER.CONST>
1

>  <SCORE.INTER.POLAR>
-3.69353

>  <SCORE.INTER.ROT>
14

>  <SCORE.INTER.SOLV>
18.1548

>  <SCORE.INTER.VDW>
-27.8923

>  <SCORE.INTER.norm>
-0.757827

>  <SCORE.INTRA>
8.48338

>  <SCORE.INTRA.DIHEDRAL>
-10.8521

>  <SCORE.INTRA.DIHEDRAL.0>
48.7173

>  <SCORE.INTRA.POLAR>
0.956639

>  <SCORE.INTRA.POLAR.0>
-1.54691

>  <SCORE.INTRA.REPUL>
0.0172842

>  <SCORE.INTRA.REPUL.0>
0

>  <SCORE.INTRA.SOLV>
-0.0128593

>  <SCORE.INTRA.SOLV.lig_0>
-64.052

>  <SCORE.INTRA.VDW>
10.5769

>  <SCORE.INTRA.VDW.0>
-7.0667

>  <SCORE.INTRA.norm>
0.201985

>  <SCORE.RESTR>
0.0542817

>  <SCORE.RESTR.CAVITY>
0.0542817

>  <SCORE.RESTR.norm>
0.00129242

>  <SCORE.SYSTEM>
0

>  <SCORE.SYSTEM.CONST>
0

>  <SCORE.SYSTEM.DIHEDRAL>
0

>  <SCORE.SYSTEM.SOLV>
0

>  <SCORE.SYSTEM.norm>
0

>  <SCORE.heavy>
42

>  <SCORE.norm>
-0.554549

>  <RMSD>
4.598

$$$$
1fyp_lig
 OpenBabel11021811393D
libRbt.so/2013.1/901 2013/11/27
 42 45  0  0  0  0  0  0  0  0999 V2000
    3.4017    8.5087   26.4017 C   0  0  2  0  0  0  0  0  0  0  0  0
    2.6724    7.2725   26.1519 O   0  0  0  0  0  0  0  0  0  0  0  0
    3.7365    5.5176   29.8974 C   0  0  2  0  0  0  0  0  0  0  0  0
    3.8083    4.7405   31.1485 N   0  0  0  0  0  0  0  0  0  0  0  0
    2.5142    3.8144   25.8984 C   0  0  1  0  0  0  0  0  0  0  0  0
   -0.8948    1.1415   25.6437 C   0  0  1  0  0  0  0  0  0  0  0  0
    3.7095    9.2704   25.0724 C   0  0  2  0  0  0  0  0  0  0  0  0
    2.4899    9.4325   24.2525 N   0  0  0  0  0  0  0  0  0  0  0  0
    2.3886    6.2632   29.8333 C   0  0  0  0  0  0  0  0  0  0  0  0
    2.7328    2.2997   25.8573 C   0  0  2  0  0  0  0  0  0  0  0  0
    2.9736    1.8887   24.5110 O   0  0  0  0  0  0  0  0  0  0  0  0
   -0.7340   -0.2721   26.2816 C   0  0  2  0  0  0  0  0  0  0  0  0
    0.1990   -1.1394   25.5216 N   0  0  0  0  0  0  0  0  0  0  0  0
    4.8179    8.5364   24.2547 C   0  0  1  0  0  0  0  0  0  0  0  0
    5.1998    9.3222   23.1284 O   0  0  0  0  0  0  0  0  0  0  0  0
    2.2553    7.1271   28.5494 C   0  0  2  0  0  0  0  0  0  0  0  0
    0.9058    7.7291   28.5485 N   0  0  0  0  0  0  0  0  0  0  0  0
    1.3878    1.7747   26.3668 C   0  0  2  0  0  0  0  0  0  0  0  0
    0.3933    1.7193   25.3064 O   0  0  0  0  0  0  0  0  0  0  0  0
   -2.1222   -0.9587   26.4681 C   0  0  1  0  0  0  0  0  0  0  0  0
   -2.8009   -0.3229   27.5491 O   0  0  0  0  0  0  0  0  0  0  0  0
    6.0782    8.2592   25.1121 C   0  0  2  0  0  0  0  0  0  0  0  0
    7.0103    7.5086   24.3397 O   0  0  0  0  0  0  0  0  0  0  0  0
    2.5199    6.3097   27.2341 C   0  0  2  0  0  0  0  0  0  0  0  0
    1.0045    2.8322   27.4115 C   0  0  2  0  0  0  0  0  0  0  0  0
    1.5569    4.0755   26.9373 O   0  0  0  0  0  0  0  0  0  0  0  0
   -3.0394   -0.8918   25.2095 C   0  0  2  0  0  0  0  0  0  0  0  0
   -2.5312   -1.7974   24.2285 O   0  0  0  0  0  0  0  0  0  0  0  0
    5.6925    7.4875   26.4059 C   0  0  2  0  0  0  0  0  0  0  0  0
    4.6540    8.2295   27.1136 O   0  0  0  0  0  0  0  0  0  0  0  0
    3.8088    5.4144   27.3192 C   0  0  2  0  0  0  0  0  0  0  0  0
    3.7749    4.4685   26.2189 O   0  0  0  0  0  0  0  0  0  0  0  0
    1.5452    2.5150   28.8171 C   0  0  0  0  0  0  0  0  0  0  0  0
    0.6641    2.9954   29.8174 O   0  0  0  0  0  0  0  0  0  0  0  0
   -3.0843    0.5574   24.6331 C   0  0  1  0  0  0  0  0  0  0  0  0
   -1.7235    1.0490   24.4354 O   0  0  0  0  0  0  0  0  0  0  0  0
    6.8502    7.2821   27.4082 C   0  0  0  0  0  0  0  0  0  0  0  0
    6.5112    6.3249   28.3973 O   0  0  0  0  0  0  0  0  0  0  0  0
    3.9054    4.6119   28.6538 C   0  0  1  0  0  0  0  0  0  0  0  0
    5.1780    3.9693   28.7121 O   0  0  0  0  0  0  0  0  0  0  0  0
   -3.8531    0.6431   23.2897 C   0  0  0  0  0  0  0  0  0  0  0  0
   -3.2287   -0.1701   22.2306 N   0  0  0  0  0  0  0  0  0  0  0  0
  1  2  1  6  0  0  0
  1  7  1  0  0  0  0
  1 30  1  0  0  0  0
  3  4  1  1  0  0  0
  3  9  1  0  0  0  0
  3 39  1  0  0  0  0
  5 10  1  0  0  0  0
  5 26  1  0  0  0  0
  5 32  1  1  0  0  0
  6 12  1  0  0  0  0
  6 36  1  0  0  0  0
  6 19  1  6  0  0  0
  7  8  1  6  0  0  0
  7 14  1  0  0  0  0
  9 16  1  0  0  0  0
 10 11  1  6  0  0  0
 10 18  1  0  0  0  0
 12 13  1  6  0  0  0
 12 20  1  0  0  0  0
 14 15  1  6  0  0  0
 14 22  1  0  0  0  0
 16 17  1  6  0  0  0
 16 24  1  0  0  0  0
 18 19  1  6  0  0  0
 18 25  1  0  0  0  0
 20 21  1  1  0  0  0
 20 27  1  0  0  0  0
 22 23  1  6  0  0  0
 22 29  1  0  0  0  0
 24  2  1  6  0  0  0
 24 31  1  0  0  0  0
 25 26  1  0  0  0  0
 25 33  1  1  0  0  0
 27 28  1  6  0  0  0
 27 35  1  0  0  0  0
 29 30  1  0  0  0  0
 29 37  1  1  0  0  0
 31 32  1  6  0  0  0
 31 39  1  0  0  0  0
 33 34  1  0  0  0  0
 35 36  1  0  0  0  0
 35 41  1  6  0  0  0
 37 38  1  0  0  0  0
 39 40  1  1  0  0  0
 41 42  1  0  0  0  0
M  END
>  <CHROM.1>
168.48597511,39.47364448,71.30706316,-138.29487126,-70.11568082,-67.84838095
-167.71412282,-129.94866635,175.44310067,-53.05896102,-167.07763345,-53.44221957
-148.07566739,-166.64469777,-166.55478092,-42.43793982,-127.52206357,-65.93467110
-61.51888922,-172.64252955,-57.65277904,-74.19057637,1.96954895,4.15601675
26.42056889,0.16808371,-0.84868320,-1.17073876

>  <Name>
1fyp_lig

>  <RI>
0

>  <Rbt.Current_Directory>
/home/itssahil/PROJECTS/Mol_Feturizer/New_Systems/rnas/1fyp

>  <Rbt.Executable>
rbdock ($Id: //depot/dev/client3/rdock/2013.1/src/exe/rbdock.cxx#4 $)

>  <Rbt.Library>
libRbt.so (2013.1, Build901 2013/11/27)

>  <Rbt.Parameter_File>
/export/apps/rDock/src/rDock_2013.1_src/data/scripts/dock_solv.prm

>  <Rbt.Receptor>
prm/blind_docking_100.prm

>  <SCORE>
-41.981

>  <SCORE.INTER>
-35.4375

>  <SCORE.INTER.CONST>
1

>  <SCORE.INTER.POLAR>
-4.55201

>  <SCORE.INTER.ROT>
14

>  <SCORE.INTER.SOLV>
14.8209

>  <SCORE.INTER.VDW>
-26.3253

>  <SCORE.INTER.norm>
-0.84375

>  <SCORE.INTRA>
-6.54355

>  <SCORE.INTRA.DIHEDRAL>
-25.4604

>  <SCORE.INTRA.DIHEDRAL.0>
48.7173

>  <SCORE.INTRA.POLAR>
-0.770282

>  <SCORE.INTRA.POLAR.0>
-1.54691

>  <SCORE.INTRA.REPUL>
0

>  <SCORE.INTRA.REPUL.0>
0

>  <SCORE.INTRA.SOLV>
1.27748

>  <SCORE.INTRA.SOLV.lig_0>
-64.052

>  <SCORE.INTRA.VDW>
8.16685

>  <SCORE.INTRA.VDW.0>
-7.0667

>  <SCORE.INTRA.norm>
-0.155799

>  <SCORE.RESTR>
0

>  <SCORE.RESTR.CAVITY>
0

>  <SCORE.RESTR.norm>
0

>  <SCORE.SYSTEM>
0

>  <SCORE.SYSTEM.CONST>
0

>  <SCORE.SYSTEM.DIHEDRAL>
0

>  <SCORE.SYSTEM.SOLV>
0

>  <SCORE.SYSTEM.norm>
0

>  <SCORE.heavy>
42

>  <SCORE.norm>
-0.999549

>  <RMSD>
4.610

$$$$
1fyp_lig
 OpenBabel11021811393D
libRbt.so/2013.1/901 2013/11/27
 42 45  0  0  0  0  0  0  0  0999 V2000
    3.2704    8.2105   26.7223 C   0  0  2  0  0  0  0  0  0  0  0  0
    2.3950    7.0662   26.5063 O   0  0  0  0  0  0  0  0  0  0  0  0
    4.0978    4.7088   29.6342 C   0  0  2  0  0  0  0  0  0  0  0  0
    4.3667    3.7676   30.7371 N   0  0  0  0  0  0  0  0  0  0  0  0
    1.6928    3.6160   26.0228 C   0  0  1  0  0  0  0  0  0  0  0  0
   -1.4030    0.9489   24.6387 C   0  0  1  0  0  0  0  0  0  0  0  0
    3.5892    8.9483   25.3821 C   0  0  2  0  0  0  0  0  0  0  0  0
    2.3530    9.2547   24.6314 N   0  0  0  0  0  0  0  0  0  0  0  0
    2.9069    5.6128   30.0102 C   0  0  0  0  0  0  0  0  0  0  0  0
    1.6629    2.3292   25.1940 C   0  0  2  0  0  0  0  0  0  0  0  0
    1.2229    2.6257   23.8681 O   0  0  0  0  0  0  0  0  0  0  0  0
   -2.8762    1.3926   24.3863 C   0  0  2  0  0  0  0  0  0  0  0  0
   -3.6018    1.7058   25.6416 N   0  0  0  0  0  0  0  0  0  0  0  0
    4.5629    8.1048   24.5010 C   0  0  1  0  0  0  0  0  0  0  0  0
    4.9689    8.8560   23.3596 O   0  0  0  0  0  0  0  0  0  0  0  0
    2.5840    6.6511   28.9011 C   0  0  2  0  0  0  0  0  0  0  0  0
    1.3858    7.4055   29.3241 N   0  0  0  0  0  0  0  0  0  0  0  0
    0.6264    1.4934   25.9500 C   0  0  2  0  0  0  0  0  0  0  0  0
   -0.7327    1.8424   25.5656 O   0  0  0  0  0  0  0  0  0  0  0  0
   -3.6400    0.3279   23.5400 C   0  0  1  0  0  0  0  0  0  0  0  0
   -3.1725    0.3976   22.1946 O   0  0  0  0  0  0  0  0  0  0  0  0
    5.8287    7.6792   25.2864 C   0  0  2  0  0  0  0  0  0  0  0  0
    6.6279    6.8383   24.4600 O   0  0  0  0  0  0  0  0  0  0  0  0
    2.3785    5.9920   27.4898 C   0  0  2  0  0  0  0  0  0  0  0  0
    0.8938    1.8911   27.4083 C   0  0  2  0  0  0  0  0  0  0  0  0
    1.3413    3.2601   27.3695 O   0  0  0  0  0  0  0  0  0  0  0  0
   -3.4580   -1.1358   24.0444 C   0  0  2  0  0  0  0  0  0  0  0  0
   -4.2127   -1.2991   25.2463 O   0  0  0  0  0  0  0  0  0  0  0  0
    5.4294    6.9405   26.5953 C   0  0  2  0  0  0  0  0  0  0  0  0
    4.5202    7.7854   27.3629 O   0  0  0  0  0  0  0  0  0  0  0  0
    3.4958    4.9451   27.1352 C   0  0  2  0  0  0  0  0  0  0  0  0
    3.0404    4.1666   25.9981 O   0  0  0  0  0  0  0  0  0  0  0  0
    1.9536    1.0072   28.0897 C   0  0  0  0  0  0  0  0  0  0  0  0
    1.6574   -0.3666   27.9092 O   0  0  0  0  0  0  0  0  0  0  0  0
   -1.9521   -1.4480   24.3072 C   0  0  1  0  0  0  0  0  0  0  0  0
   -1.3814   -0.4188   25.1718 O   0  0  0  0  0  0  0  0  0  0  0  0
    6.6093    6.5960   27.5314 C   0  0  0  0  0  0  0  0  0  0  0  0
    7.1342    5.3104   27.2465 O   0  0  0  0  0  0  0  0  0  0  0  0
    3.8058    3.9647   28.3088 C   0  0  1  0  0  0  0  0  0  0  0  0
    4.9389    3.1719   27.9577 O   0  0  0  0  0  0  0  0  0  0  0  0
   -1.7346   -2.8362   24.9620 C   0  0  0  0  0  0  0  0  0  0  0  0
   -1.9554   -3.9456   24.0167 N   0  0  0  0  0  0  0  0  0  0  0  0
  1  2  1  6  0  0  0
  1  7  1  0  0  0  0
  1 30  1  0  0  0  0
  3  4  1  1  0  0  0
  3  9  1  0  0  0  0
  3 39  1  0  0  0  0
  5 10  1  0  0  0  0
  5 26  1  0  0  0  0
  5 32  1  1  0  0  0
  6 12  1  0  0  0  0
  6 36  1  0  0  0  0
  6 19  1  1  0  0  0
  7  8  1  6  0  0  0
  7 14  1  0  0  0  0
  9 16  1  0  0  0  0
 10 11  1  6  0  0  0
 10 18  1  0  0  0  0
 12 13  1  1  0  0  0
 12 20  1  0  0  0  0
 14 15  1  6  0  0  0
 14 22  1  0  0  0  0
 16 17  1  1  0  0  0
 16 24  1  0  0  0  0
 18 19  1  6  0  0  0
 18 25  1  0  0  0  0
 20 21  1  6  0  0  0
 20 27  1  0  0  0  0
 22 23  1  6  0  0  0
 22 29  1  0  0  0  0
 24  2  1  6  0  0  0
 24 31  1  0  0  0  0
 25 26  1  0  0  0  0
 25 33  1  6  0  0  0
 27 28  1  1  0  0  0
 27 35  1  0  0  0  0
 29 30  1  0  0  0  0
 29 37  1  1  0  0  0
 31 32  1  6  0  0  0
 31 39  1  0  0  0  0
 33 34  1  0  0  0  0
 35 36  1  0  0  0  0
 35 41  1  1  0  0  0
 37 38  1  0  0  0  0
 39 40  1  6  0  0  0
 41 42  1  0  0  0  0
M  END
>  <CHROM.1>
157.54700862,34.87297250,157.70668984,-163.20505278,176.17055657,-87.66887751
56.28837060,-37.88674156,101.52945447,176.39011708,-174.05695495,176.99906290
-50.36707376,176.28117424,-90.94848308,-47.88581574,-150.87469189,-63.60732135
72.99492010,-65.12738581,168.69707745,-72.66854940,1.70113849,3.62009884
26.18937061,0.45542919,-0.75749117,-0.68986222

>  <Name>
1fyp_lig

>  <RI>
0

>  <Rbt.Current_Directory>
/home/itssahil/PROJECTS/Mol_Feturizer/New_Systems/rnas/1fyp

>  <Rbt.Executable>
rbdock ($Id: //depot/dev/client3/rdock/2013.1/src/exe/rbdock.cxx#4 $)

>  <Rbt.Library>
libRbt.so (2013.1, Build901 2013/11/27)

>  <Rbt.Parameter_File>
/export/apps/rDock/src/rDock_2013.1_src/data/scripts/dock_solv.prm

>  <Rbt.Receptor>
prm/blind_docking_100.prm

>  <SCORE>
-49.0161

>  <SCORE.INTER>
-40.8765

>  <SCORE.INTER.CONST>
1

>  <SCORE.INTER.POLAR>
-6.00112

>  <SCORE.INTER.ROT>
14

>  <SCORE.INTER.SOLV>
19.2827

>  <SCORE.INTER.VDW>
-26.6082

>  <SCORE.INTER.norm>
-0.97325

>  <SCORE.INTRA>
-8.13959

>  <SCORE.INTRA.DIHEDRAL>
-25.5795

>  <SCORE.INTRA.DIHEDRAL.0>
48.7173

>  <SCORE.INTRA.POLAR>
0.15363

>  <SCORE.INTRA.POLAR.0>
-1.54691

>  <SCORE.INTRA.REPUL>
0

>  <SCORE.INTRA.REPUL.0>
0

>  <SCORE.INTRA.SOLV>
-0.870391

>  <SCORE.INTRA.SOLV.lig_0>
-64.052

>  <SCORE.INTRA.VDW>
4.56302

>  <SCORE.INTRA.VDW.0>
-7.0667

>  <SCORE.INTRA.norm>
-0.1938

>  <SCORE.RESTR>
0

>  <SCORE.RESTR.CAVITY>
0

>  <SCORE.RESTR.norm>
0

>  <SCORE.SYSTEM>
0

>  <SCORE.SYSTEM.CONST>
0

>  <SCORE.SYSTEM.DIHEDRAL>
0

>  <SCORE.SYSTEM.SOLV>
0

>  <SCORE.SYSTEM.norm>
0

>  <SCORE.heavy>
42

>  <SCORE.norm>
-1.16705

>  <RMSD>
4.616

$$$$
1fyp_lig
 OpenBabel11021811393D
libRbt.so/2013.1/901 2013/11/27
 42 45  0  0  0  0  0  0  0  0999 V2000
    4.5095    7.9737   25.2875 C   0  0  2  0  0  0  0  0  0  0  0  0
    4.5038    6.5655   24.9141 O   0  0  0  0  0  0  0  0  0  0  0  0
    6.3569    3.5526   27.3076 C   0  0  2  0  0  0  0  0  0  0  0  0
    6.7047    2.5335   28.3151 N   0  0  0  0  0  0  0  0  0  0  0  0
    2.3790    3.5814   25.4127 C   0  0  1  0  0  0  0  0  0  0  0  0
   -1.3364    1.7129   26.2615 C   0  0  1  0  0  0  0  0  0  0  0  0
    3.3400    8.7521   24.6031 C   0  0  2  0  0  0  0  0  0  0  0  0
    2.0462    8.0675   24.8109 N   0  0  0  0  0  0  0  0  0  0  0  0
    5.9557    4.8606   28.0184 C   0  0  0  0  0  0  0  0  0  0  0  0
    1.7720    2.1965   25.1734 C   0  0  2  0  0  0  0  0  0  0  0  0
    0.7968    2.2762   24.1332 O   0  0  0  0  0  0  0  0  0  0  0  0
   -2.4652    1.7883   27.3345 C   0  0  2  0  0  0  0  0  0  0  0  0
   -1.9546    1.6048   28.7150 N   0  0  0  0  0  0  0  0  0  0  0  0
    3.6144    8.9400   23.0781 C   0  0  1  0  0  0  0  0  0  0  0  0
    2.6223    9.7849   22.5005 O   0  0  0  0  0  0  0  0  0  0  0  0
    5.6014    5.9907   27.0136 C   0  0  2  0  0  0  0  0  0  0  0  0
    5.1565    7.1646   27.7931 N   0  0  0  0  0  0  0  0  0  0  0  0
    1.1188    1.9023   26.5266 C   0  0  2  0  0  0  0  0  0  0  0  0
   -0.1924    2.5225   26.6392 O   0  0  0  0  0  0  0  0  0  0  0  0
   -3.6065    0.7751   27.0124 C   0  0  1  0  0  0  0  0  0  0  0  0
   -4.3496    1.2678   25.8995 O   0  0  0  0  0  0  0  0  0  0  0  0
    5.0074    9.5653   22.8160 C   0  0  2  0  0  0  0  0  0  0  0  0
    5.2340    9.6237   21.4110 O   0  0  0  0  0  0  0  0  0  0  0  0
    4.5176    5.5551   25.9630 C   0  0  2  0  0  0  0  0  0  0  0  0
    2.1071    2.5476   27.5081 C   0  0  2  0  0  0  0  0  0  0  0  0
    2.6706    3.6787   26.8160 O   0  0  0  0  0  0  0  0  0  0  0  0
   -3.1049   -0.6599   26.6672 C   0  0  2  0  0  0  0  0  0  0  0  0
   -2.6553   -1.2855   27.8701 O   0  0  0  0  0  0  0  0  0  0  0  0
    6.1157    8.7278   23.5149 C   0  0  2  0  0  0  0  0  0  0  0  0
    5.7913    8.5927   24.9314 O   0  0  0  0  0  0  0  0  0  0  0  0
    4.8132    4.1488   25.3266 C   0  0  2  0  0  0  0  0  0  0  0  0
    3.6120    3.6992   24.6473 O   0  0  0  0  0  0  0  0  0  0  0  0
    3.2257    1.5896   27.9547 C   0  0  0  0  0  0  0  0  0  0  0  0
    3.7842    2.0056   29.1887 O   0  0  0  0  0  0  0  0  0  0  0  0
   -1.9471   -0.6056   25.6227 C   0  0  1  0  0  0  0  0  0  0  0  0
   -0.9141    0.3182   26.0832 O   0  0  0  0  0  0  0  0  0  0  0  0
    7.5331    9.3384   23.4422 C   0  0  0  0  0  0  0  0  0  0  0  0
    7.9990    9.4007   22.1048 O   0  0  0  0  0  0  0  0  0  0  0  0
    5.2107    3.0732   26.3847 C   0  0  1  0  0  0  0  0  0  0  0  0
    5.6224    1.8891   25.7035 O   0  0  0  0  0  0  0  0  0  0  0  0
   -1.3065   -1.9940   25.3674 C   0  0  0  0  0  0  0  0  0  0  0  0
   -2.2890   -2.9912   24.9056 N   0  0  0  0  0  0  0  0  0  0  0  0
  1  2  1  6  0  0  0
  1  7  1  0  0  0  0
  1 30  1  0  0  0  0
  3  4  1  1  0  0  0
  3  9  1  0  0  0  0
  3 39  1  0  0  0  0
  5 10  1  0  0  0  0
  5 26  1  0  0  0  0
  5 32  1  6  0  0  0
  6 12  1  0  0  0  0
  6 36  1  0  0  0  0
  6 19  1  1  0  0  0
  7  8  1  6  0  0  0
  7 14  1  0  0  0  0
  9 16  1  0  0  0  0
 10 11  1  6  0  0  0
 10 18  1  0  0  0  0
 12 13  1  1  0  0  0
 12 20  1  0  0  0  0
 14 15  1  1  0  0  0
 14 22  1  0  0  0  0
 16 17  1  1  0  0  0
 16 24  1  0  0  0  0
 18 19  1  6  0  0  0
 18 25  1  0  0  0  0
 20 21  1  6  0  0  0
 20 27  1  0  0  0  0
 22 23  1  6  0  0  0
 22 29  1  0  0  0  0
 24  2  1  6  0  0  0
 24 31  1  0  0  0  0
 25 26  1  0  0  0  0
 25 33  1  6  0  0  0
 27 28  1  1  0  0  0
 27 35  1  0  0  0  0
 29 30  1  0  0  0  0
 29 37  1  1  0  0  0
 31 32  1  1  0  0  0
 31 39  1  0  0  0  0
 33 34  1  0  0  0  0
 35 36  1  0  0  0  0
 35 41  1  1  0  0  0
 37 38  1  0  0  0  0
 39 40  1  6  0  0  0
 41 42  1  0  0  0  0
M  END
>  <CHROM.1>
-127.05474057,-45.43738255,169.27826756,-177.07350872,113.78540412,63.12741946
-60.51902697,-42.59025079,93.15465030,132.53910981,-68.06240741,-62.92225501
-157.52824956,60.20962286,-64.35510387,-57.41466801,-129.26040531,175.00994145
57.68301372,178.95763671,-78.04147023,-162.55971079,2.46311314,4.04408074
25.72110400,0.82112371,-0.31440956,-0.57658514

>  <Name>
1fyp_lig

>  <RI>
0

>  <Rbt.Current_Directory>
/home/itssahil/PROJECTS/Mol_Feturizer/New_Systems/rnas/1fyp

>  <Rbt.Executable>
rbdock ($Id: //depot/dev/client3/rdock/2013.1/src/exe/rbdock.cxx#4 $)

>  <Rbt.Library>
libRbt.so (2013.1, Build901 2013/11/27)

>  <Rbt.Parameter_File>
/export/apps/rDock/src/rDock_2013.1_src/data/scripts/dock_solv.prm

>  <Rbt.Receptor>
prm/blind_docking_80.prm

>  <SCORE>
-49.0224

>  <SCORE.INTER>
-54.3089

>  <SCORE.INTER.CONST>
1

>  <SCORE.INTER.POLAR>
-8.52285

>  <SCORE.INTER.ROT>
14

>  <SCORE.INTER.SOLV>
23.2831

>  <SCORE.INTER.VDW>
-28.4908

>  <SCORE.INTER.norm>
-1.29307

>  <SCORE.INTRA>
5.28652

>  <SCORE.INTRA.DIHEDRAL>
-11.4387

>  <SCORE.INTRA.DIHEDRAL.0>
48.7173

>  <SCORE.INTRA.POLAR>
1.54532

>  <SCORE.INTRA.POLAR.0>
-1.54691

>  <SCORE.INTRA.REPUL>
0

>  <SCORE.INTRA.REPUL.0>
0

>  <SCORE.INTRA.SOLV>
-0.224825

>  <SCORE.INTRA.SOLV.lig_0>
-64.052

>  <SCORE.INTRA.VDW>
5.86423

>  <SCORE.INTRA.VDW.0>
-7.0667

>  <SCORE.INTRA.norm>
0.12587

>  <SCORE.RESTR>
0

>  <SCORE.RESTR.CAVITY>
0

>  <SCORE.RESTR.norm>
0

>  <SCORE.SYSTEM>
0

>  <SCORE.SYSTEM.CONST>
0

>  <SCORE.SYSTEM.DIHEDRAL>
0

>  <SCORE.SYSTEM.SOLV>
0

>  <SCORE.SYSTEM.norm>
0

>  <SCORE.heavy>
42

>  <SCORE.norm>
-1.1672

>  <RMSD>
4.625

$$$$
1fyp_lig
 OpenBabel11021811393D
libRbt.so/2013.1/901 2013/11/27
 42 45  0  0  0  0  0  0  0  0999 V2000
    3.2729    7.9386   26.7460 C   0  0  2  0  0  0  0  0  0  0  0  0
    2.6747    6.6240   26.5550 O   0  0  0  0  0  0  0  0  0  0  0  0
    3.8699    5.0373   30.3358 C   0  0  2  0  0  0  0  0  0  0  0  0
    3.9771    4.3315   31.6261 N   0  0  0  0  0  0  0  0  0  0  0  0
    2.3764    3.0694   26.6132 C   0  0  1  0  0  0  0  0  0  0  0  0
   -0.8961    0.6923   26.8232 C   0  0  1  0  0  0  0  0  0  0  0  0
    3.4005    8.7114   25.3937 C   0  0  2  0  0  0  0  0  0  0  0  0
    2.1176    8.7220   24.6590 N   0  0  0  0  0  0  0  0  0  0  0  0
    2.5577    5.8459   30.3010 C   0  0  0  0  0  0  0  0  0  0  0  0
    2.6181    1.7184   25.9351 C   0  0  2  0  0  0  0  0  0  0  0  0
    2.3698    1.8367   24.5337 O   0  0  0  0  0  0  0  0  0  0  0  0
   -0.9040   -0.7943   27.2933 C   0  0  2  0  0  0  0  0  0  0  0  0
   -0.6354   -1.7450   26.1868 N   0  0  0  0  0  0  0  0  0  0  0  0
    4.5277    8.0967   24.5062 C   0  0  1  0  0  0  0  0  0  0  0  0
    4.7398    8.9048   23.3513 O   0  0  0  0  0  0  0  0  0  0  0  0
    2.3913    6.6395   28.9763 C   0  0  2  0  0  0  0  0  0  0  0  0
    1.0743    7.3087   29.0133 N   0  0  0  0  0  0  0  0  0  0  0  0
    1.5675    0.8347   26.6132 C   0  0  2  0  0  0  0  0  0  0  0  0
    0.2595    0.9786   25.9929 O   0  0  0  0  0  0  0  0  0  0  0  0
   -2.2375   -1.1384   28.0257 C   0  0  1  0  0  0  0  0  0  0  0  0
   -2.2225   -0.5185   29.3099 O   0  0  0  0  0  0  0  0  0  0  0  0
    5.8667    7.9770   25.2764 C   0  0  2  0  0  0  0  0  0  0  0  0
    6.8241    7.3265   24.4463 O   0  0  0  0  0  0  0  0  0  0  0  0
    2.5395    5.7347   27.7005 C   0  0  2  0  0  0  0  0  0  0  0  0
    1.5513    1.3935   28.0428 C   0  0  2  0  0  0  0  0  0  0  0  0
    1.8511    2.7976   27.9224 O   0  0  0  0  0  0  0  0  0  0  0  0
   -3.5177   -0.6673   27.2715 C   0  0  2  0  0  0  0  0  0  0  0  0
   -3.7186   -1.5184   26.1420 O   0  0  0  0  0  0  0  0  0  0  0  0
    5.6605    7.1849   26.5986 C   0  0  2  0  0  0  0  0  0  0  0  0
    4.5943    7.8139   27.3716 O   0  0  0  0  0  0  0  0  0  0  0  0
    3.7870    4.7811   27.7686 C   0  0  2  0  0  0  0  0  0  0  0  0
    3.6440    3.7759   26.7315 O   0  0  0  0  0  0  0  0  0  0  0  0
    2.5745    0.7116   28.9685 C   0  0  0  0  0  0  0  0  0  0  0  0
    3.8920    0.8782   28.4746 O   0  0  0  0  0  0  0  0  0  0  0  0
   -3.3742    0.8162   26.8097 C   0  0  1  0  0  0  0  0  0  0  0  0
   -2.1244    0.9817   26.0729 O   0  0  0  0  0  0  0  0  0  0  0  0
    6.8994    7.1269   27.5199 C   0  0  0  0  0  0  0  0  0  0  0  0
    6.5446    6.7382   28.8361 O   0  0  0  0  0  0  0  0  0  0  0  0
    3.9227    4.0535   29.1422 C   0  0  1  0  0  0  0  0  0  0  0  0
    5.1643    3.3512   29.1691 O   0  0  0  0  0  0  0  0  0  0  0  0
   -4.5530    1.2812   25.9168 C   0  0  0  0  0  0  0  0  0  0  0  0
   -4.2034    1.2951   24.4848 N   0  0  0  0  0  0  0  0  0  0  0  0
  1  2  1  6  0  0  0
  1  7  1  0  0  0  0
  1 30  1  0  0  0  0
  3  4  1  1  0  0  0
  3  9  1  0  0  0  0
  3 39  1  0  0  0  0
  5 10  1  0  0  0  0
  5 26  1  0  0  0  0
  5 32  1  1  0  0  0
  6 12  1  0  0  0  0
  6 36  1  0  0  0  0
  6 19  1  6  0  0  0
  7  8  1  6  0  0  0
  7 14  1  0  0  0  0
  9 16  1  0  0  0  0
 10 11  1  6  0  0  0
 10 18  1  0  0  0  0
 12 13  1  6  0  0  0
 12 20  1  0  0  0  0
 14 15  1  6  0  0  0
 14 22  1  0  0  0  0
 16 17  1  1  0  0  0
 16 24  1  0  0  0  0
 18 19  1  6  0  0  0
 18 25  1  0  0  0  0
 20 21  1  1  0  0  0
 20 27  1  0  0  0  0
 22 23  1  6  0  0  0
 22 29  1  0  0  0  0
 24  2  1  6  0  0  0
 24 31  1  0  0  0  0
 25 26  1  0  0  0  0
 25 33  1  1  0  0  0
 27 28  1  6  0  0  0
 27 35  1  0  0  0  0
 29 30  1  0  0  0  0
 29 37  1  1  0  0  0
 31 32  1  6  0  0  0
 31 39  1  0  0  0  0
 33 34  1  0  0  0  0
 35 36  1  0  0  0  0
 35 41  1  6  0  0  0
 37 38  1  0  0  0  0
 39 40  1  6  0  0  0
 41 42  1  0  0  0  0
M  END
>  <CHROM.1>
176.94980511,28.86961645,87.74636299,-174.97841170,71.76646523,174.84223547
-168.60271762,-153.11934078,-154.19756280,-62.51845268,-48.32576269,-50.16427237
59.88287916,77.69258091,163.28090688,-48.78425132,-155.64686829,-67.85585124
-101.56406775,-48.20569320,76.57317728,146.34883436,1.93467728,3.71574001
27.10526422,0.57660933,-0.62617375,-0.74796296

>  <Name>
1fyp_lig

>  <RI>
0

>  <Rbt.Current_Directory>
/home/itssahil/PROJECTS/Mol_Feturizer/New_Systems/rnas/1fyp

>  <Rbt.Executable>
rbdock ($Id: //depot/dev/client3/rdock/2013.1/src/exe/rbdock.cxx#4 $)

>  <Rbt.Library>
libRbt.so (2013.1, Build901 2013/11/27)

>  <Rbt.Parameter_File>
/export/apps/rDock/src/rDock_2013.1_src/data/scripts/dock_solv.prm

>  <Rbt.Receptor>
prm/blind_docking_80.prm

>  <SCORE>
-59.0069

>  <SCORE.INTER>
-55.8593

>  <SCORE.INTER.CONST>
1

>  <SCORE.INTER.POLAR>
-7.22488

>  <SCORE.INTER.ROT>
14

>  <SCORE.INTER.SOLV>
18.8851

>  <SCORE.INTER.VDW>
-32.385

>  <SCORE.INTER.norm>
-1.32998

>  <SCORE.INTRA>
-3.14752

>  <SCORE.INTRA.DIHEDRAL>
-24.0202

>  <SCORE.INTRA.DIHEDRAL.0>
48.7173

>  <SCORE.INTRA.POLAR>
1.18024

>  <SCORE.INTRA.POLAR.0>
-1.54691

>  <SCORE.INTRA.REPUL>
0

>  <SCORE.INTRA.REPUL.0>
0

>  <SCORE.INTRA.SOLV>
0.923513

>  <SCORE.INTRA.SOLV.lig_0>
-64.052

>  <SCORE.INTRA.VDW>
4.388

>  <SCORE.INTRA.VDW.0>
-7.0667

>  <SCORE.INTRA.norm>
-0.0749409

>  <SCORE.RESTR>
0

>  <SCORE.RESTR.CAVITY>
0

>  <SCORE.RESTR.norm>
0

>  <SCORE.SYSTEM>
0

>  <SCORE.SYSTEM.CONST>
0

>  <SCORE.SYSTEM.DIHEDRAL>
0

>  <SCORE.SYSTEM.SOLV>
0

>  <SCORE.SYSTEM.norm>
0

>  <SCORE.heavy>
42

>  <SCORE.norm>
-1.40493

>  <RMSD>
4.638

$$$$
1fyp_lig
 OpenBabel11021811393D
libRbt.so/2013.1/901 2013/11/27
 42 45  0  0  0  0  0  0  0  0999 V2000
    4.5966    4.8434   29.8879 C   0  0  2  0  0  0  0  0  0  0  0  0
    3.8635    5.5828   28.8690 O   0  0  0  0  0  0  0  0  0  0  0  0
    4.2163    7.3272   24.9865 C   0  0  2  0  0  0  0  0  0  0  0  0
    4.6115    7.7216   23.6217 N   0  0  0  0  0  0  0  0  0  0  0  0
    1.8039    3.5454   25.7640 C   0  0  1  0  0  0  0  0  0  0  0  0
   -1.2066    0.7558   24.0072 C   0  0  1  0  0  0  0  0  0  0  0  0
    5.3591    3.6254   29.2738 C   0  0  2  0  0  0  0  0  0  0  0  0
    6.1718    4.0337   28.1082 N   0  0  0  0  0  0  0  0  0  0  0  0
    5.4215    7.4846   25.9351 C   0  0  0  0  0  0  0  0  0  0  0  0
    1.9121    2.0368   25.5273 C   0  0  2  0  0  0  0  0  0  0  0  0
    2.4229    1.7950   24.2158 O   0  0  0  0  0  0  0  0  0  0  0  0
   -2.5076    0.8014   24.8654 C   0  0  2  0  0  0  0  0  0  0  0  0
   -2.2304    0.9233   26.3175 N   0  0  0  0  0  0  0  0  0  0  0  0
    4.3641    2.4926   28.8700 C   0  0  1  0  0  0  0  0  0  0  0  0
    5.0815    1.3308   28.4612 O   0  0  0  0  0  0  0  0  0  0  0  0
    5.0685    7.1110   27.4008 C   0  0  2  0  0  0  0  0  0  0  0  0
    6.3043    7.2180   28.2040 N   0  0  0  0  0  0  0  0  0  0  0  0
    0.4508    1.5952   25.6450 C   0  0  2  0  0  0  0  0  0  0  0  0
   -0.2761    1.7977   24.4012 O   0  0  0  0  0  0  0  0  0  0  0  0
   -3.4164   -0.4297   24.5627 C   0  0  1  0  0  0  0  0  0  0  0  0
   -4.0119   -0.2492   23.2796 O   0  0  0  0  0  0  0  0  0  0  0  0
    3.4257    2.1057   30.0405 C   0  0  2  0  0  0  0  0  0  0  0  0
    2.4854    1.1389   29.5825 O   0  0  0  0  0  0  0  0  0  0  0  0
    4.4230    5.6844   27.5281 C   0  0  2  0  0  0  0  0  0  0  0  0
   -0.0810    2.5311   26.7394 C   0  0  2  0  0  0  0  0  0  0  0  0
    0.6566    3.7610   26.6014 O   0  0  0  0  0  0  0  0  0  0  0  0
   -2.6612   -1.7934   24.5625 C   0  0  2  0  0  0  0  0  0  0  0  0
   -2.3484   -2.1396   25.9126 O   0  0  0  0  0  0  0  0  0  0  0  0
    2.6944    3.3652   30.5856 C   0  0  2  0  0  0  0  0  0  0  0  0
    3.6843    4.3777   30.9386 O   0  0  0  0  0  0  0  0  0  0  0  0
    3.2886    5.4298   26.4706 C   0  0  2  0  0  0  0  0  0  0  0  0
    3.0031    4.0069   26.4485 O   0  0  0  0  0  0  0  0  0  0  0  0
    0.0986    1.9628   28.1584 C   0  0  0  0  0  0  0  0  0  0  0  0
   -0.3687    2.8796   29.1325 O   0  0  0  0  0  0  0  0  0  0  0  0
   -1.3556   -1.7035   23.7130 C   0  0  1  0  0  0  0  0  0  0  0  0
   -0.5642   -0.5566   24.1499 O   0  0  0  0  0  0  0  0  0  0  0  0
    1.8398    3.1227   31.8497 C   0  0  0  0  0  0  0  0  0  0  0  0
    2.6069    2.5302   32.8840 O   0  0  0  0  0  0  0  0  0  0  0  0
    3.6898    5.8724   25.0291 C   0  0  1  0  0  0  0  0  0  0  0  0
    2.5479    5.7630   24.1807 O   0  0  0  0  0  0  0  0  0  0  0  0
   -0.4878   -2.9841   23.8128 C   0  0  0  0  0  0  0  0  0  0  0  0
   -1.1640   -4.1678   23.2519 N   0  0  0  0  0  0  0  0  0  0  0  0
  1  2  1  6  0  0  0
  1  7  1  0  0  0  0
  1 30  1  0  0  0  0
  3  4  1  6  0  0  0
  3  9  1  0  0  0  0
  3 39  1  0  0  0  0
  5 10  1  0  0  0  0
  5 26  1  0  0  0  0
  5 32  1  1  0  0  0
  6 12  1  0  0  0  0
  6 36  1  0  0  0  0
  6 19  1  1  0  0  0
  7  8  1  6  0  0  0
  7 14  1  0  0  0  0
  9 16  1  0  0  0  0
 10 11  1  6  0  0  0
 10 18  1  0  0  0  0
 12 13  1  1  0  0  0
 12 20  1  0  0  0  0
 14 15  1  1  0  0  0
 14 22  1  0  0  0  0
 16 17  1  1  0  0  0
 16 24  1  0  0  0  0
 18 19  1  6  0  0  0
 18 25  1  0  0  0  0
 20 21  1  6  0  0  0
 20 27  1  0  0  0  0
 22 23  1  6  0  0  0
 22 29  1  0  0  0  0
 24  2  1  1  0  0  0
 24 31  1  0  0  0  0
 25 26  1  0  0  0  0
 25 33  1  1  0  0  0
 27 28  1  1  0  0  0
 27 35  1  0  0  0  0
 29 30  1  0  0  0  0
 29 37  1  1  0  0  0
 31 32  1  6  0  0  0
 31 39  1  0  0  0  0
 33 34  1  0  0  0  0
 35 36  1  0  0  0  0
 35 41  1  1  0  0  0
 37 38  1  0  0  0  0
 39 40  1  6  0  0  0
 41 42  1  0  0  0  0
M  END
>  <CHROM.1>
-34.16836526,-101.54425755,-164.90227584,-91.19826470,-179.25691847,164.91344171
57.24951905,42.59899706,139.54750312,75.03192021,-85.41803457,67.55272354
178.17901180,172.67561510,54.60320113,167.17281643,164.16271368,-53.79302127
64.25132276,-62.11785875,65.99445436,-11.49769766,1.73489123,2.64763107,26.76755964
0.09457793,0.85186999,1.96752710

>  <Name>
1fyp_lig

>  <RI>
0

>  <Rbt.Current_Directory>
/home/itssahil/PROJECTS/Mol_Feturizer/New_Systems/rnas/1fyp

>  <Rbt.Executable>
rbdock ($Id: //depot/dev/client3/rdock/2013.1/src/exe/rbdock.cxx#4 $)

>  <Rbt.Library>
libRbt.so (2013.1, Build901 2013/11/27)

>  <Rbt.Parameter_File>
/export/apps/rDock/src/rDock_2013.1_src/data/scripts/dock_solv.prm

>  <Rbt.Receptor>
prm/blind_docking_60.prm

>  <SCORE>
-30.8488

>  <SCORE.INTER>
-30.7898

>  <SCORE.INTER.CONST>
1

>  <SCORE.INTER.POLAR>
-4.43372

>  <SCORE.INTER.ROT>
14

>  <SCORE.INTER.SOLV>
14.1935

>  <SCORE.INTER.VDW>
-23.412

>  <SCORE.INTER.norm>
-0.73309

>  <SCORE.INTRA>
-0.756297

>  <SCORE.INTRA.DIHEDRAL>
-22.6476

>  <SCORE.INTRA.DIHEDRAL.0>
48.7173

>  <SCORE.INTRA.POLAR>
0.20277

>  <SCORE.INTRA.POLAR.0>
-1.54691

>  <SCORE.INTRA.REPUL>
0

>  <SCORE.INTRA.REPUL.0>
0

>  <SCORE.INTRA.SOLV>
1.541

>  <SCORE.INTRA.SOLV.lig_0>
-64.052

>  <SCORE.INTRA.VDW>
9.10758

>  <SCORE.INTRA.VDW.0>
-7.0667

>  <SCORE.INTRA.norm>
-0.0180071

>  <SCORE.RESTR>
0.697323

>  <SCORE.RESTR.CAVITY>
0.697323

>  <SCORE.RESTR.norm>
0.0166029

>  <SCORE.SYSTEM>
0

>  <SCORE.SYSTEM.CONST>
0

>  <SCORE.SYSTEM.DIHEDRAL>
0

>  <SCORE.SYSTEM.SOLV>
0

>  <SCORE.SYSTEM.norm>
0

>  <SCORE.heavy>
42

>  <SCORE.norm>
-0.734494

>  <RMSD>
4.648

$$$$
1fyp_lig
 OpenBabel11021811393D
libRbt.so/2013.1/901 2013/11/27
 42 45  0  0  0  0  0  0  0  0999 V2000
    3.4884    7.4976   26.5388 C   0  0  2  0  0  0  0  0  0  0  0  0
    2.9953    6.1283   26.4737 O   0  0  0  0  0  0  0  0  0  0  0  0
    4.3733    4.8578   30.3114 C   0  0  2  0  0  0  0  0  0  0  0  0
    4.5404    4.2676   31.6523 N   0  0  0  0  0  0  0  0  0  0  0  0
    2.5961    3.1190   26.2730 C   0  0  1  0  0  0  0  0  0  0  0  0
   -0.9482    1.4026   24.2241 C   0  0  1  0  0  0  0  0  0  0  0  0
    3.7176    8.0919   25.1118 C   0  0  2  0  0  0  0  0  0  0  0  0
    2.5253    7.9092   24.2569 N   0  0  0  0  0  0  0  0  0  0  0  0
    3.0762    5.6904   30.2755 C   0  0  0  0  0  0  0  0  0  0  0  0
    2.6358    1.9757   25.2557 C   0  0  2  0  0  0  0  0  0  0  0  0
    2.8428    2.5084   23.9470 O   0  0  0  0  0  0  0  0  0  0  0  0
   -2.1100    1.6389   25.2368 C   0  0  2  0  0  0  0  0  0  0  0  0
   -1.6799    1.4787   26.6474 N   0  0  0  0  0  0  0  0  0  0  0  0
    4.9708    7.4511   24.4372 C   0  0  1  0  0  0  0  0  0  0  0  0
    5.2599    8.1127   23.2082 O   0  0  0  0  0  0  0  0  0  0  0  0
    2.8496    6.3663   28.8956 C   0  0  2  0  0  0  0  0  0  0  0  0
    1.5492    7.0666   28.9440 N   0  0  0  0  0  0  0  0  0  0  0  0
    1.2324    1.3803   25.3981 C   0  0  2  0  0  0  0  0  0  0  0  0
    0.2511    2.1188   24.6181 O   0  0  0  0  0  0  0  0  0  0  0  0
   -3.3288    0.7228   24.9078 C   0  0  1  0  0  0  0  0  0  0  0  0
   -3.9718    1.2261   23.7387 O   0  0  0  0  0  0  0  0  0  0  0  0
    6.2215    7.5348   25.3478 C   0  0  2  0  0  0  0  0  0  0  0  0
    7.3019    6.8535   24.7177 O   0  0  0  0  0  0  0  0  0  0  0  0
    2.9089    5.3481   27.7006 C   0  0  2  0  0  0  0  0  0  0  0  0
    0.9633    1.5462   26.9003 C   0  0  2  0  0  0  0  0  0  0  0  0
    1.6636    2.7408   27.2983 O   0  0  0  0  0  0  0  0  0  0  0  0
   -2.9538   -0.7688   24.6544 C   0  0  2  0  0  0  0  0  0  0  0  0
   -2.6193   -1.3719   25.9054 O   0  0  0  0  0  0  0  0  0  0  0  0
    5.9188    6.9116   26.7400 C   0  0  2  0  0  0  0  0  0  0  0  0
    4.7379    7.5560   27.3059 O   0  0  0  0  0  0  0  0  0  0  0  0
    4.1406    4.3757   27.7862 C   0  0  2  0  0  0  0  0  0  0  0  0
    3.9209    3.2856   26.8536 O   0  0  0  0  0  0  0  0  0  0  0  0
    1.4461    0.3469   27.7353 C   0  0  0  0  0  0  0  0  0  0  0  0
    2.8601    0.3298   27.8243 O   0  0  0  0  0  0  0  0  0  0  0  0
   -1.7519   -0.8775   23.6654 C   0  0  1  0  0  0  0  0  0  0  0  0
   -0.6554   -0.0330   24.1314 O   0  0  0  0  0  0  0  0  0  0  0  0
    7.0498    7.0688   27.7808 C   0  0  0  0  0  0  0  0  0  0  0  0
    7.0156    6.0256   28.7399 O   0  0  0  0  0  0  0  0  0  0  0  0
    4.3405    3.7705   29.2104 C   0  0  1  0  0  0  0  0  0  0  0  0
    5.5687    3.0447   29.2328 O   0  0  0  0  0  0  0  0  0  0  0  0
   -1.2379   -2.3313   23.5062 C   0  0  0  0  0  0  0  0  0  0  0  0
   -0.6926   -2.8766   24.7625 N   0  0  0  0  0  0  0  0  0  0  0  0
  1  2  1  6  0  0  0
  1  7  1  0  0  0  0
  1 30  1  0  0  0  0
  3  4  1  1  0  0  0
  3  9  1  0  0  0  0
  3 39  1  0  0  0  0
  5 10  1  0  0  0  0
  5 26  1  0  0  0  0
  5 32  1  1  0  0  0
  6 12  1  0  0  0  0
  6 36  1  0  0  0  0
  6 19  1  1  0  0  0
  7  8  1  6  0  0  0
  7 14  1  0  0  0  0
  9 16  1  0  0  0  0
 10 11  1  6  0  0  0
 10 18  1  0  0  0  0
 12 13  1  1  0  0  0
 12 20  1  0  0  0  0
 14 15  1  6  0  0  0
 14 22  1  0  0  0  0
 16 17  1  1  0  0  0
 16 24  1  0  0  0  0
 18 19  1  6  0  0  0
 18 25  1  0  0  0  0
 20 21  1  6  0  0  0
 20 27  1  0  0  0  0
 22 23  1  6  0  0  0
 22 29  1  0  0  0  0
 24  2  1  6  0  0  0
 24 31  1  0  0  0  0
 25 26  1  0  0  0  0
 25 33  1  1  0  0  0
 27 28  1  1  0  0  0
 27 35  1  0  0  0  0
 29 30  1  0  0  0  0
 29 37  1  1  0  0  0
 31 32  1  6  0  0  0
 31 39  1  0  0  0  0
 33 34  1  0  0  0  0
 35 36  1  0  0  0  0
 35 41  1  1  0  0  0
 37 38  1  0  0  0  0
 39 40  1  6  0  0  0
 41 42  1  0  0  0  0
M  END
>  <CHROM.1>
171.16491623,22.00978229,174.68571464,-49.99513689,-67.14947337,167.59731176
-64.51928980,-42.95823776,155.93336809,94.58168906,-167.10035321,-179.68184293
72.78152611,66.44338030,-152.91514321,-12.72095899,176.06668902,68.07528915
-63.76942369,82.99559447,71.12328788,154.09231419,2.22788308,3.54144441,26.38780365
0.21421724,-0.80167663,-0.95279011

>  <Name>
1fyp_lig

>  <RI>
0

>  <Rbt.Current_Directory>
/home/itssahil/PROJECTS/Mol_Feturizer/New_Systems/rnas/1fyp

>  <Rbt.Executable>
rbdock ($Id: //depot/dev/client3/rdock/2013.1/src/exe/rbdock.cxx#4 $)

>  <Rbt.Library>
libRbt.so (2013.1, Build901 2013/11/27)

>  <Rbt.Parameter_File>
/export/apps/rDock/src/rDock_2013.1_src/data/scripts/dock_solv.prm

>  <Rbt.Receptor>
prm/blind_docking_100.prm

>  <SCORE>
-55.3638

>  <SCORE.INTER>
-52.5196

>  <SCORE.INTER.CONST>
1

>  <SCORE.INTER.POLAR>
-6.63141

>  <SCORE.INTER.ROT>
14

>  <SCORE.INTER.SOLV>
17.4495

>  <SCORE.INTER.VDW>
-31.6582

>  <SCORE.INTER.norm>
-1.25047

>  <SCORE.INTRA>
-2.84422

>  <SCORE.INTRA.DIHEDRAL>
-20.2322

>  <SCORE.INTRA.DIHEDRAL.0>
48.7173

>  <SCORE.INTRA.POLAR>
0.379666

>  <SCORE.INTRA.POLAR.0>
-1.54691

>  <SCORE.INTRA.REPUL>
0

>  <SCORE.INTRA.REPUL.0>
0

>  <SCORE.INTRA.SOLV>
0.494222

>  <SCORE.INTRA.SOLV.lig_0>
-64.052

>  <SCORE.INTRA.VDW>
5.73391

>  <SCORE.INTRA.VDW.0>
-7.0667

>  <SCORE.INTRA.norm>
-0.0677194

>  <SCORE.RESTR>
0

>  <SCORE.RESTR.CAVITY>
0

>  <SCORE.RESTR.norm>
0

>  <SCORE.SYSTEM>
0

>  <SCORE.SYSTEM.CONST>
0

>  <SCORE.SYSTEM.DIHEDRAL>
0

>  <SCORE.SYSTEM.SOLV>
0

>  <SCORE.SYSTEM.norm>
0

>  <SCORE.heavy>
42

>  <SCORE.norm>
-1.31819

>  <RMSD>
4.651

$$$$
1fyp_lig
 OpenBabel11021811393D
libRbt.so/2013.1/901 2013/11/27
 42 45  0  0  0  0  0  0  0  0999 V2000
    3.7878    7.7168   24.6332 C   0  0  2  0  0  0  0  0  0  0  0  0
    4.0127    6.2776   24.6110 O   0  0  0  0  0  0  0  0  0  0  0  0
    6.0246    4.4300   27.8942 C   0  0  2  0  0  0  0  0  0  0  0  0
    6.4017    3.7729   29.1593 N   0  0  0  0  0  0  0  0  0  0  0  0
    2.4999    3.1596   25.4611 C   0  0  1  0  0  0  0  0  0  0  0  0
   -1.4903    1.3077   26.1441 C   0  0  1  0  0  0  0  0  0  0  0  0
    3.2043    8.2259   23.2758 C   0  0  2  0  0  0  0  0  0  0  0  0
    2.0301    7.4278   22.8638 N   0  0  0  0  0  0  0  0  0  0  0  0
    5.2130    5.7045   28.2003 C   0  0  0  0  0  0  0  0  0  0  0  0
    1.8911    1.8568   24.9360 C   0  0  2  0  0  0  0  0  0  0  0  0
    1.1343    2.1256   23.7552 O   0  0  0  0  0  0  0  0  0  0  0  0
   -2.2281    1.5285   27.4998 C   0  0  2  0  0  0  0  0  0  0  0  0
   -1.3085    1.4943   28.6632 N   0  0  0  0  0  0  0  0  0  0  0  0
    4.2939    8.2027   22.1585 C   0  0  1  0  0  0  0  0  0  0  0  0
    3.7950    8.8159   20.9724 O   0  0  0  0  0  0  0  0  0  0  0  0
    4.8039    6.4650   26.9092 C   0  0  2  0  0  0  0  0  0  0  0  0
    3.9681    7.6162   27.3091 N   0  0  0  0  0  0  0  0  0  0  0  0
    0.9822    1.4449   26.0973 C   0  0  2  0  0  0  0  0  0  0  0  0
   -0.2993    2.1320   26.0495 O   0  0  0  0  0  0  0  0  0  0  0  0
   -3.3958    0.5083   27.6695 C   0  0  1  0  0  0  0  0  0  0  0  0
   -4.4577    0.8850   26.7955 O   0  0  0  0  0  0  0  0  0  0  0  0
    5.5814    8.9465   22.5936 C   0  0  2  0  0  0  0  0  0  0  0  0
    6.5651    8.8095   21.5726 O   0  0  0  0  0  0  0  0  0  0  0  0
    4.0608    5.5492   25.8714 C   0  0  2  0  0  0  0  0  0  0  0  0
    1.7936    1.9004   27.3182 C   0  0  2  0  0  0  0  0  0  0  0  0
    2.5249    3.0672   26.8945 O   0  0  0  0  0  0  0  0  0  0  0  0
   -3.0033   -0.9666   27.3527 C   0  0  2  0  0  0  0  0  0  0  0  0
   -2.1897   -1.4591   28.4185 O   0  0  0  0  0  0  0  0  0  0  0  0
    6.1070    8.3742   23.9406 C   0  0  2  0  0  0  0  0  0  0  0  0
    5.0373    8.4257   24.9320 O   0  0  0  0  0  0  0  0  0  0  0  0
    4.7801    4.1698   25.6478 C   0  0  2  0  0  0  0  0  0  0  0  0
    3.8591    3.2875   24.9551 O   0  0  0  0  0  0  0  0  0  0  0  0
    2.7662    0.8238   27.8316 C   0  0  0  0  0  0  0  0  0  0  0  0
    3.6623    1.3664   28.7857 O   0  0  0  0  0  0  0  0  0  0  0  0
   -2.2311   -1.0560   25.9998 C   0  0  1  0  0  0  0  0  0  0  0  0
   -1.1216   -0.1065   26.0048 O   0  0  0  0  0  0  0  0  0  0  0  0
    7.3072    9.1366   24.5450 C   0  0  0  0  0  0  0  0  0  0  0  0
    7.8099    8.4771   25.6948 O   0  0  0  0  0  0  0  0  0  0  0  0
    5.2081    3.4832   26.9819 C   0  0  1  0  0  0  0  0  0  0  0  0
    5.9964    2.3343   26.6748 O   0  0  0  0  0  0  0  0  0  0  0  0
   -1.6792   -2.4771   25.7190 C   0  0  0  0  0  0  0  0  0  0  0  0
   -2.6440   -3.3226   24.9927 N   0  0  0  0  0  0  0  0  0  0  0  0
  1  2  1  6  0  0  0
  1  7  1  0  0  0  0
  1 30  1  0  0  0  0
  3  4  1  1  0  0  0
  3  9  1  0  0  0  0
  3 39  1  0  0  0  0
  5 10  1  0  0  0  0
  5 26  1  0  0  0  0
  5 32  1  6  0  0  0
  6 12  1  0  0  0  0
  6 36  1  0  0  0  0
  6 19  1  1  0  0  0
  7  8  1  6  0  0  0
  7 14  1  0  0  0  0
  9 16  1  0  0  0  0
 10 11  1  6  0  0  0
 10 18  1  0  0  0  0
 12 13  1  1  0  0  0
 12 20  1  0  0  0  0
 14 15  1  6  0  0  0
 14 22  1  0  0  0  0
 16 17  1  1  0  0  0
 16 24  1  0  0  0  0
 18 19  1  6  0  0  0
 18 25  1  0  0  0  0
 20 21  1  6  0  0  0
 20 27  1  0  0  0  0
 22 23  1  6  0  0  0
 22 29  1  0  0  0  0
 24  2  1  6  0  0  0
 24 31  1  0  0  0  0
 25 26  1  0  0  0  0
 25 33  1  6  0  0  0
 27 28  1  1  0  0  0
 27 35  1  0  0  0  0
 29 30  1  0  0  0  0
 29 37  1  1  0  0  0
 31 32  1  1  0  0  0
 31 39  1  0  0  0  0
 33 34  1  0  0  0  0
 35 36  1  0  0  0  0
 35 41  1  1  0  0  0
 37 38  1  0  0  0  0
 39 40  1  6  0  0  0
 41 42  1  0  0  0  0
M  END
>  <CHROM.1>
-157.05297149,-38.13743069,108.50556176,153.83996796,-165.86886710,-69.42431549
-85.40707511,-64.96723322,129.02162352,110.45996482,-49.22039798,55.42387466
168.99530546,65.01538232,-174.09749671,-48.83229477,-159.47931424,63.42361042
89.24451774,176.71777453,53.32529100,-164.21934796,2.41221853,3.79653231
25.79842935,0.73916717,-0.50275198,-0.78505228

>  <Name>
1fyp_lig

>  <RI>
0

>  <Rbt.Current_Directory>
/home/itssahil/PROJECTS/Mol_Feturizer/New_Systems/rnas/1fyp

>  <Rbt.Executable>
rbdock ($Id: //depot/dev/client3/rdock/2013.1/src/exe/rbdock.cxx#4 $)

>  <Rbt.Library>
libRbt.so (2013.1, Build901 2013/11/27)

>  <Rbt.Parameter_File>
/export/apps/rDock/src/rDock_2013.1_src/data/scripts/dock_solv.prm

>  <Rbt.Receptor>
prm/pocket_docking_3.prm

>  <SCORE>
-56.3066

>  <SCORE.INTER>
-57.8464

>  <SCORE.INTER.CONST>
1

>  <SCORE.INTER.POLAR>
-8.2484

>  <SCORE.INTER.ROT>
14

>  <SCORE.INTER.SOLV>
21.6896

>  <SCORE.INTER.VDW>
-31.2328

>  <SCORE.INTER.norm>
-1.37729

>  <SCORE.INTRA>
1.53974

>  <SCORE.INTRA.DIHEDRAL>
-16.198

>  <SCORE.INTRA.DIHEDRAL.0>
48.7173

>  <SCORE.INTRA.POLAR>
1.41962

>  <SCORE.INTRA.POLAR.0>
-1.54691

>  <SCORE.INTRA.REPUL>
0.0244534

>  <SCORE.INTRA.REPUL.0>
0

>  <SCORE.INTRA.SOLV>
-0.621304

>  <SCORE.INTRA.SOLV.lig_0>
-64.052

>  <SCORE.INTRA.VDW>
5.00042

>  <SCORE.INTRA.VDW.0>
-7.0667

>  <SCORE.INTRA.norm>
0.0366604

>  <SCORE.RESTR>
0

>  <SCORE.RESTR.CAVITY>
0

>  <SCORE.RESTR.norm>
0

>  <SCORE.SYSTEM>
0

>  <SCORE.SYSTEM.CONST>
0

>  <SCORE.SYSTEM.DIHEDRAL>
0

>  <SCORE.SYSTEM.SOLV>
0

>  <SCORE.SYSTEM.norm>
0

>  <SCORE.heavy>
42

>  <SCORE.norm>
-1.34063

>  <RMSD>
4.663

$$$$
1fyp_lig
 OpenBabel11021811393D
libRbt.so/2013.1/901 2013/11/27
 42 45  0  0  0  0  0  0  0  0999 V2000
    3.7191    7.6358   24.6447 C   0  0  2  0  0  0  0  0  0  0  0  0
    3.8134    6.1838   24.5743 O   0  0  0  0  0  0  0  0  0  0  0  0
    5.7312    4.1315   27.7916 C   0  0  2  0  0  0  0  0  0  0  0  0
    6.0754    3.4162   29.0343 N   0  0  0  0  0  0  0  0  0  0  0  0
    2.2088    2.9473   25.4390 C   0  0  1  0  0  0  0  0  0  0  0  0
   -1.3994    0.8957   25.5628 C   0  0  1  0  0  0  0  0  0  0  0  0
    2.9562    8.2203   23.4125 C   0  0  2  0  0  0  0  0  0  0  0  0
    1.6650    7.5310   23.2048 N   0  0  0  0  0  0  0  0  0  0  0  0
    4.9873    5.4362   28.1401 C   0  0  0  0  0  0  0  0  0  0  0  0
    1.7282    1.5486   25.0436 C   0  0  2  0  0  0  0  0  0  0  0  0
    0.8661    1.6433   23.9090 O   0  0  0  0  0  0  0  0  0  0  0  0
   -2.7856    1.6086   25.6001 C   0  0  2  0  0  0  0  0  0  0  0  0
   -3.1652    2.0491   26.9647 N   0  0  0  0  0  0  0  0  0  0  0  0
    3.8313    8.1309   22.1231 C   0  0  1  0  0  0  0  0  0  0  0  0
    3.1897    8.8084   21.0456 O   0  0  0  0  0  0  0  0  0  0  0  0
    4.6165    6.2573   26.8749 C   0  0  2  0  0  0  0  0  0  0  0  0
    3.8422    7.4370   27.3133 N   0  0  0  0  0  0  0  0  0  0  0  0
    0.9566    1.1171   26.2937 C   0  0  2  0  0  0  0  0  0  0  0  0
   -0.3990    1.6453   26.3004 O   0  0  0  0  0  0  0  0  0  0  0  0
   -3.8906    0.7082   24.9667 C   0  0  1  0  0  0  0  0  0  0  0  0
   -3.7073    0.6924   23.5526 O   0  0  0  0  0  0  0  0  0  0  0  0
    5.2330    8.7563   22.3335 C   0  0  2  0  0  0  0  0  0  0  0  0
    6.0111    8.5601   21.1567 O   0  0  0  0  0  0  0  0  0  0  0  0
    3.8254    5.4144   25.8110 C   0  0  2  0  0  0  0  0  0  0  0  0
    1.7877    1.7492   27.4190 C   0  0  2  0  0  0  0  0  0  0  0  0
    2.3419    2.9602   26.8693 O   0  0  0  0  0  0  0  0  0  0  0  0
   -3.8807   -0.7649   25.4764 C   0  0  2  0  0  0  0  0  0  0  0  0
   -4.3870   -0.7869   26.8120 O   0  0  0  0  0  0  0  0  0  0  0  0
    5.9319    8.1139   23.5652 C   0  0  2  0  0  0  0  0  0  0  0  0
    5.0571    8.2325   24.7273 O   0  0  0  0  0  0  0  0  0  0  0  0
    4.4717    4.0073   25.5419 C   0  0  2  0  0  0  0  0  0  0  0  0
    3.5051    3.1963   24.8246 O   0  0  0  0  0  0  0  0  0  0  0  0
    2.9161    0.8322   27.9233 C   0  0  0  0  0  0  0  0  0  0  0  0
    3.7024    1.4900   28.9015 O   0  0  0  0  0  0  0  0  0  0  0  0
   -2.4368   -1.3548   25.4377 C   0  0  1  0  0  0  0  0  0  0  0  0
   -1.5200   -0.4531   26.1298 O   0  0  0  0  0  0  0  0  0  0  0  0
    7.2787    8.7613   23.9577 C   0  0  0  0  0  0  0  0  0  0  0  0
    8.0962    7.8536   24.6769 O   0  0  0  0  0  0  0  0  0  0  0  0
    4.8653    3.2577   26.8525 C   0  0  1  0  0  0  0  0  0  0  0  0
    5.5924    2.0797   26.5070 O   0  0  0  0  0  0  0  0  0  0  0  0
   -2.3476   -2.7608   26.0845 C   0  0  0  0  0  0  0  0  0  0  0  0
   -3.1622   -3.7613   25.3715 N   0  0  0  0  0  0  0  0  0  0  0  0
  1  2  1  6  0  0  0
  1  7  1  0  0  0  0
  1 30  1  0  0  0  0
  3  4  1  1  0  0  0
  3  9  1  0  0  0  0
  3 39  1  0  0  0  0
  5 10  1  0  0  0  0
  5 26  1  0  0  0  0
  5 32  1  6  0  0  0
  6 12  1  0  0  0  0
  6 36  1  0  0  0  0
  6 19  1  1  0  0  0
  7  8  1  6  0  0  0
  7 14  1  0  0  0  0
  9 16  1  0  0  0  0
 10 11  1  6  0  0  0
 10 18  1  0  0  0  0
 12 13  1  1  0  0  0
 12 20  1  0  0  0  0
 14 15  1  6  0  0  0
 14 22  1  0  0  0  0
 16 17  1  1  0  0  0
 16 24  1  0  0  0  0
 18 19  1  6  0  0  0
 18 25  1  0  0  0  0
 20 21  1  6  0  0  0
 20 27  1  0  0  0  0
 22 23  1  6  0  0  0
 22 29  1  0  0  0  0
 24  2  1  6  0  0  0
 24 31  1  0  0  0  0
 25 26  1  0  0  0  0
 25 33  1  6  0  0  0
 27 28  1  1  0  0  0
 27 35  1  0  0  0  0
 29 30  1  0  0  0  0
 29 37  1  1  0  0  0
 31 32  1  1  0  0  0
 31 39  1  0  0  0  0
 33 34  1  0  0  0  0
 35 36  1  0  0  0  0
 35 41  1  1  0  0  0
 37 38  1  0  0  0  0
 39 40  1  6  0  0  0
 41 42  1  0  0  0  0
M  END
>  <CHROM.1>
-148.45855185,-35.63362210,113.37711560,65.52967412,102.48847757,50.25342842
55.03045501,140.22701226,83.76932001,-177.33848232,66.28810092,-22.31087483
176.44391759,174.02516929,-156.09379108,-58.59131719,-146.37296365,-177.13002391
62.76412619,69.05816372,-54.68235059,-107.67884752,2.09052043,3.64410292
25.41974891,0.69349094,-0.47342998,-0.70474948

>  <Name>
1fyp_lig

>  <RI>
0

>  <Rbt.Current_Directory>
/home/itssahil/PROJECTS/Mol_Feturizer/New_Systems/rnas/1fyp

>  <Rbt.Executable>
rbdock ($Id: //depot/dev/client3/rdock/2013.1/src/exe/rbdock.cxx#4 $)

>  <Rbt.Library>
libRbt.so (2013.1, Build901 2013/11/27)

>  <Rbt.Parameter_File>
/export/apps/rDock/src/rDock_2013.1_src/data/scripts/dock_solv.prm

>  <Rbt.Receptor>
prm/pocket_docking_5.prm

>  <SCORE>
-62.6598

>  <SCORE.INTER>
-63.8221

>  <SCORE.INTER.CONST>
1

>  <SCORE.INTER.POLAR>
-9.3106

>  <SCORE.INTER.ROT>
14

>  <SCORE.INTER.SOLV>
21.7469

>  <SCORE.INTER.VDW>
-31.695

>  <SCORE.INTER.norm>
-1.51957

>  <SCORE.INTRA>
1.1623

>  <SCORE.INTRA.DIHEDRAL>
-15.1575

>  <SCORE.INTRA.DIHEDRAL.0>
48.7173

>  <SCORE.INTRA.POLAR>
0.178754

>  <SCORE.INTRA.POLAR.0>
-1.54691

>  <SCORE.INTRA.REPUL>
0

>  <SCORE.INTRA.REPUL.0>
0

>  <SCORE.INTRA.SOLV>
-0.300301

>  <SCORE.INTRA.SOLV.lig_0>
-64.052

>  <SCORE.INTRA.VDW>
8.28346

>  <SCORE.INTRA.VDW.0>
-7.0667

>  <SCORE.INTRA.norm>
0.0276738

>  <SCORE.RESTR>
0

>  <SCORE.RESTR.CAVITY>
0

>  <SCORE.RESTR.norm>
0

>  <SCORE.SYSTEM>
0

>  <SCORE.SYSTEM.CONST>
0

>  <SCORE.SYSTEM.DIHEDRAL>
0

>  <SCORE.SYSTEM.SOLV>
0

>  <SCORE.SYSTEM.norm>
0

>  <SCORE.heavy>
42

>  <SCORE.norm>
-1.4919

>  <RMSD>
4.666

$$$$
1fyp_lig
 OpenBabel11021811393D
libRbt.so/2013.1/901 2013/11/27
 42 45  0  0  0  0  0  0  0  0999 V2000
    4.2264    5.7289   29.9103 C   0  0  2  0  0  0  0  0  0  0  0  0
    3.4760    6.1312   28.7282 O   0  0  0  0  0  0  0  0  0  0  0  0
    3.4230    6.1990   24.4581 C   0  0  2  0  0  0  0  0  0  0  0  0
    3.7274    6.1074   23.0182 N   0  0  0  0  0  0  0  0  0  0  0  0
    1.9869    2.7543   27.4357 C   0  0  1  0  0  0  0  0  0  0  0  0
   -2.0664    1.0136   27.1432 C   0  0  1  0  0  0  0  0  0  0  0  0
    5.3778    4.7366   29.5471 C   0  0  2  0  0  0  0  0  0  0  0  0
    6.2084    5.2604   28.4420 N   0  0  0  0  0  0  0  0  0  0  0  0
    4.5006    7.0519   25.1569 C   0  0  0  0  0  0  0  0  0  0  0  0
    0.7754    3.5052   26.8772 C   0  0  2  0  0  0  0  0  0  0  0  0
    0.1526    4.2514   27.9235 O   0  0  0  0  0  0  0  0  0  0  0  0
   -1.9819   -0.4344   27.7151 C   0  0  2  0  0  0  0  0  0  0  0  0
   -0.6649   -1.0706   27.4678 N   0  0  0  0  0  0  0  0  0  0  0  0
    4.8056    3.3327   29.1759 C   0  0  1  0  0  0  0  0  0  0  0  0
    5.8683    2.3988   29.0027 O   0  0  0  0  0  0  0  0  0  0  0  0
    4.2275    7.2139   26.6772 C   0  0  2  0  0  0  0  0  0  0  0  0
    5.3535    7.9731   27.2598 N   0  0  0  0  0  0  0  0  0  0  0  0
   -0.1181    2.3539   26.4074 C   0  0  2  0  0  0  0  0  0  0  0  0
   -0.8958    1.7933   27.5016 O   0  0  0  0  0  0  0  0  0  0  0  0
   -3.1486   -1.3156   27.1716 C   0  0  1  0  0  0  0  0  0  0  0  0
   -4.3573   -0.9133   27.8125 O   0  0  0  0  0  0  0  0  0  0  0  0
    3.8488    2.7932   30.2685 C   0  0  2  0  0  0  0  0  0  0  0  0
    3.2906    1.5585   29.8294 O   0  0  0  0  0  0  0  0  0  0  0  0
    4.0221    5.8394   27.4098 C   0  0  2  0  0  0  0  0  0  0  0  0
    0.9111    1.3347   25.8991 C   0  0  2  0  0  0  0  0  0  0  0  0
    2.0829    1.5134   26.7182 O   0  0  0  0  0  0  0  0  0  0  0  0
   -3.3571   -1.2151   25.6300 C   0  0  2  0  0  0  0  0  0  0  0  0
   -2.2957   -1.9175   24.9814 O   0  0  0  0  0  0  0  0  0  0  0  0
    2.7257    3.8279   30.5621 C   0  0  2  0  0  0  0  0  0  0  0  0
    3.3339    5.1114   30.8978 O   0  0  0  0  0  0  0  0  0  0  0  0
    3.0438    4.8777   26.6429 C   0  0  2  0  0  0  0  0  0  0  0  0
    3.1860    3.5471   27.2048 O   0  0  0  0  0  0  0  0  0  0  0  0
    1.2687    1.5278   24.4147 C   0  0  0  0  0  0  0  0  0  0  0  0
    0.9026    0.3894   23.6548 O   0  0  0  0  0  0  0  0  0  0  0  0
   -3.3770    0.2756   25.1697 C   0  0  1  0  0  0  0  0  0  0  0  0
   -2.1945    0.9628   25.6815 O   0  0  0  0  0  0  0  0  0  0  0  0
    1.7948    3.4586   31.7386 C   0  0  0  0  0  0  0  0  0  0  0  0
    1.0074    2.3198   31.4342 O   0  0  0  0  0  0  0  0  0  0  0  0
    3.3422    4.7992   25.1134 C   0  0  1  0  0  0  0  0  0  0  0  0
    2.3080    4.0459   24.4819 O   0  0  0  0  0  0  0  0  0  0  0  0
   -3.4205    0.4247   23.6273 C   0  0  0  0  0  0  0  0  0  0  0  0
   -2.3022   -0.2686   22.9627 N   0  0  0  0  0  0  0  0  0  0  0  0
  1  2  1  6  0  0  0
  1  7  1  0  0  0  0
  1 30  1  0  0  0  0
  3  4  1  6  0  0  0
  3  9  1  0  0  0  0
  3 39  1  0  0  0  0
  5 10  1  0  0  0  0
  5 26  1  0  0  0  0
  5 32  1  6  0  0  0
  6 12  1  0  0  0  0
  6 36  1  0  0  0  0
  6 19  1  6  0  0  0
  7  8  1  6  0  0  0
  7 14  1  0  0  0  0
  9 16  1  0  0  0  0
 10 11  1  1  0  0  0
 10 18  1  0  0  0  0
 12 13  1  6  0  0  0
 12 20  1  0  0  0  0
 14 15  1  1  0  0  0
 14 22  1  0  0  0  0
 16 17  1  1  0  0  0
 16 24  1  0  0  0  0
 18 19  1  1  0  0  0
 18 25  1  0  0  0  0
 20 21  1  1  0  0  0
 20 27  1  0  0  0  0
 22 23  1  6  0  0  0
 22 29  1  0  0  0  0
 24  2  1  1  0  0  0
 24 31  1  0  0  0  0
 25 26  1  0  0  0  0
 25 33  1  6  0  0  0
 27 28  1  6  0  0  0
 27 35  1  0  0  0  0
 29 30  1  0  0  0  0
 29 37  1  1  0  0  0
 31 32  1  1  0  0  0
 31 39  1  0  0  0  0
 33 34  1  0  0  0  0
 35 36  1  0  0  0  0
 35 41  1  6  0  0  0
 37 38  1  0  0  0  0
 39 40  1  6  0  0  0
 41 42  1  0  0  0  0
M  END
>  <CHROM.1>
-13.17190606,-119.32947335,-86.50343782,63.05058043,176.74210350,-19.57833856
-172.50940629,176.46555435,160.87283427,121.98638666,-165.16855297,76.54771482
-117.59827227,-170.75395058,-67.28948403,137.95930269,5.47275913,171.33815322
-56.27072743,-49.38807260,-50.27779459,-128.54060329,1.44743189,2.80258892
27.11152334,0.09415196,0.73280695,1.82067882

>  <Name>
1fyp_lig

>  <RI>
0

>  <Rbt.Current_Directory>
/home/itssahil/PROJECTS/Mol_Feturizer/New_Systems/rnas/1fyp

>  <Rbt.Executable>
rbdock ($Id: //depot/dev/client3/rdock/2013.1/src/exe/rbdock.cxx#4 $)

>  <Rbt.Library>
libRbt.so (2013.1, Build901 2013/11/27)

>  <Rbt.Parameter_File>
/export/apps/rDock/src/rDock_2013.1_src/data/scripts/dock_solv.prm

>  <Rbt.Receptor>
prm/blind_docking_40.prm

>  <SCORE>
-28.5839

>  <SCORE.INTER>
-42.9251

>  <SCORE.INTER.CONST>
1

>  <SCORE.INTER.POLAR>
-6.21329

>  <SCORE.INTER.ROT>
14

>  <SCORE.INTER.SOLV>
16.4411

>  <SCORE.INTER.VDW>
-26.3195

>  <SCORE.INTER.norm>
-1.02203

>  <SCORE.INTRA>
14.3412

>  <SCORE.INTRA.DIHEDRAL>
1.90885

>  <SCORE.INTRA.DIHEDRAL.0>
48.7173

>  <SCORE.INTRA.POLAR>
0.698703

>  <SCORE.INTRA.POLAR.0>
-1.54691

>  <SCORE.INTRA.REPUL>
0

>  <SCORE.INTRA.REPUL.0>
0

>  <SCORE.INTRA.SOLV>
3.8892

>  <SCORE.INTRA.SOLV.lig_0>
-64.052

>  <SCORE.INTRA.VDW>
9.06662

>  <SCORE.INTRA.VDW.0>
-7.0667

>  <SCORE.INTRA.norm>
0.341458

>  <SCORE.RESTR>
0

>  <SCORE.RESTR.CAVITY>
0

>  <SCORE.RESTR.norm>
0

>  <SCORE.SYSTEM>
0

>  <SCORE.SYSTEM.CONST>
0

>  <SCORE.SYSTEM.DIHEDRAL>
0

>  <SCORE.SYSTEM.SOLV>
0

>  <SCORE.SYSTEM.norm>
0

>  <SCORE.heavy>
42

>  <SCORE.norm>
-0.680569

>  <RMSD>
4.671

$$$$
1fyp_lig
 OpenBabel11021811393D
libRbt.so/2013.1/901 2013/11/27
 42 45  0  0  0  0  0  0  0  0999 V2000
    2.8787    7.7662   26.1885 C   0  0  2  0  0  0  0  0  0  0  0  0
    2.3028    6.4342   26.3179 O   0  0  0  0  0  0  0  0  0  0  0  0
    4.1432    5.6039   30.0815 C   0  0  2  0  0  0  0  0  0  0  0  0
    4.4943    5.1302   31.4330 N   0  0  0  0  0  0  0  0  0  0  0  0
    2.2889    3.4340   26.2639 C   0  0  1  0  0  0  0  0  0  0  0  0
   -1.1971    1.3397   24.5488 C   0  0  1  0  0  0  0  0  0  0  0  0
    3.2790    8.0755   24.7100 C   0  0  2  0  0  0  0  0  0  0  0  0
    2.1618    7.7975   23.7825 N   0  0  0  0  0  0  0  0  0  0  0  0
    2.7514    6.2662   30.1156 C   0  0  0  0  0  0  0  0  0  0  0  0
    2.4071    2.2876   25.2562 C   0  0  2  0  0  0  0  0  0  0  0  0
    2.4844    2.8209   23.9337 O   0  0  0  0  0  0  0  0  0  0  0  0
   -2.3529    1.7918   25.4927 C   0  0  2  0  0  0  0  0  0  0  0  0
   -1.9057    1.9796   26.8945 N   0  0  0  0  0  0  0  0  0  0  0  0
    4.5436    7.2607   24.2941 C   0  0  1  0  0  0  0  0  0  0  0  0
    4.9895    7.6697   23.0035 O   0  0  0  0  0  0  0  0  0  0  0  0
    2.3273    6.8148   28.7257 C   0  0  2  0  0  0  0  0  0  0  0  0
    0.9562    7.3514   28.8514 N   0  0  0  0  0  0  0  0  0  0  0  0
    1.0902    1.5384   25.4775 C   0  0  2  0  0  0  0  0  0  0  0  0
   -0.0078    2.1486   24.7437 O   0  0  0  0  0  0  0  0  0  0  0  0
   -3.5573    0.8041   25.4089 C   0  0  1  0  0  0  0  0  0  0  0  0
   -4.2215    1.0035   24.1629 O   0  0  0  0  0  0  0  0  0  0  0  0
    5.7069    7.4490   25.2998 C   0  0  2  0  0  0  0  0  0  0  0  0
    6.7931    6.6110   24.9167 O   0  0  0  0  0  0  0  0  0  0  0  0
    2.4185    5.7336   27.5895 C   0  0  2  0  0  0  0  0  0  0  0  0
    0.8813    1.6949   26.9903 C   0  0  2  0  0  0  0  0  0  0  0  0
    1.4596    2.9672   27.3402 O   0  0  0  0  0  0  0  0  0  0  0  0
   -3.1562   -0.6987   25.5128 C   0  0  2  0  0  0  0  0  0  0  0  0
   -2.7977   -0.9806   26.8665 O   0  0  0  0  0  0  0  0  0  0  0  0
    5.2349    7.1084   26.7418 C   0  0  2  0  0  0  0  0  0  0  0  0
    4.0525    7.9032   27.0582 O   0  0  0  0  0  0  0  0  0  0  0  0
    3.7677    4.9281   27.6187 C   0  0  2  0  0  0  0  0  0  0  0  0
    3.6138    3.7590   26.7725 O   0  0  0  0  0  0  0  0  0  0  0  0
    1.5404    0.5709   27.8095 C   0  0  0  0  0  0  0  0  0  0  0  0
    2.9505    0.6088   27.6757 O   0  0  0  0  0  0  0  0  0  0  0  0
   -1.9625   -1.0205   24.5610 C   0  0  1  0  0  0  0  0  0  0  0  0
   -0.8777   -0.0716   24.7967 O   0  0  0  0  0  0  0  0  0  0  0  0
    6.2722    7.3987   27.8494 C   0  0  0  0  0  0  0  0  0  0  0  0
    7.1544    6.3036   28.0285 O   0  0  0  0  0  0  0  0  0  0  0  0
    4.1599    4.4492   29.0510 C   0  0  1  0  0  0  0  0  0  0  0  0
    5.4688    3.8833   29.0035 O   0  0  0  0  0  0  0  0  0  0  0  0
   -1.4224   -2.4619   24.7454 C   0  0  0  0  0  0  0  0  0  0  0  0
   -0.4781   -2.8498   23.6820 N   0  0  0  0  0  0  0  0  0  0  0  0
  1  2  1  6  0  0  0
  1  7  1  0  0  0  0
  1 30  1  0  0  0  0
  3  4  1  1  0  0  0
  3  9  1  0  0  0  0
  3 39  1  0  0  0  0
  5 10  1  0  0  0  0
  5 26  1  0  0  0  0
  5 32  1  1  0  0  0
  6 12  1  0  0  0  0
  6 36  1  0  0  0  0
  6 19  1  1  0  0  0
  7  8  1  6  0  0  0
  7 14  1  0  0  0  0
  9 16  1  0  0  0  0
 10 11  1  6  0  0  0
 10 18  1  0  0  0  0
 12 13  1  1  0  0  0
 12 20  1  0  0  0  0
 14 15  1  6  0  0  0
 14 22  1  0  0  0  0
 16 17  1  1  0  0  0
 16 24  1  0  0  0  0
 18 19  1  6  0  0  0
 18 25  1  0  0  0  0
 20 21  1  6  0  0  0
 20 27  1  0  0  0  0
 22 23  1  6  0  0  0
 22 29  1  0  0  0  0
 24  2  1  6  0  0  0
 24 31  1  0  0  0  0
 25 26  1  0  0  0  0
 25 33  1  1  0  0  0
 27 28  1  1  0  0  0
 27 35  1  0  0  0  0
 29 30  1  0  0  0  0
 29 37  1  1  0  0  0
 31 32  1  6  0  0  0
 31 39  1  0  0  0  0
 33 34  1  0  0  0  0
 35 36  1  0  0  0  0
 35 41  1  1  0  0  0
 37 38  1  0  0  0  0
 39 40  1  6  0  0  0
 41 42  1  0  0  0  0
M  END
>  <CHROM.1>
152.74706391,34.78050212,171.07054264,47.18890496,-177.08355779,65.26493774
-62.16899915,-164.30265769,162.57157622,104.70875956,-162.51764650,81.62264531
64.84558693,61.97416580,-86.26870918,-9.40768383,172.44440793,176.22984768
169.03443616,-61.38954817,174.41069515,78.61112661,1.94083750,3.76005421
26.40530810,0.19045729,-0.82328545,-1.06104951

>  <Name>
1fyp_lig

>  <RI>
0

>  <Rbt.Current_Directory>
/home/itssahil/PROJECTS/Mol_Feturizer/New_Systems/rnas/1fyp

>  <Rbt.Executable>
rbdock ($Id: //depot/dev/client3/rdock/2013.1/src/exe/rbdock.cxx#4 $)

>  <Rbt.Library>
libRbt.so (2013.1, Build901 2013/11/27)

>  <Rbt.Parameter_File>
/export/apps/rDock/src/rDock_2013.1_src/data/scripts/dock_solv.prm

>  <Rbt.Receptor>
prm/pocket_docking_6.prm

>  <SCORE>
-51.5108

>  <SCORE.INTER>
-49.9326

>  <SCORE.INTER.CONST>
1

>  <SCORE.INTER.POLAR>
-6.52953

>  <SCORE.INTER.ROT>
14

>  <SCORE.INTER.SOLV>
18.6792

>  <SCORE.INTER.VDW>
-30.683

>  <SCORE.INTER.norm>
-1.18887

>  <SCORE.INTRA>
-1.57821

>  <SCORE.INTRA.DIHEDRAL>
-19.9545

>  <SCORE.INTRA.DIHEDRAL.0>
48.7173

>  <SCORE.INTRA.POLAR>
0.587933

>  <SCORE.INTRA.POLAR.0>
-1.54691

>  <SCORE.INTRA.REPUL>
0

>  <SCORE.INTRA.REPUL.0>
0

>  <SCORE.INTRA.SOLV>
-0.0396165

>  <SCORE.INTRA.SOLV.lig_0>
-64.052

>  <SCORE.INTRA.VDW>
6.41986

>  <SCORE.INTRA.VDW.0>
-7.0667

>  <SCORE.INTRA.norm>
-0.0375765

>  <SCORE.RESTR>
0

>  <SCORE.RESTR.CAVITY>
0

>  <SCORE.RESTR.norm>
0

>  <SCORE.SYSTEM>
0

>  <SCORE.SYSTEM.CONST>
0

>  <SCORE.SYSTEM.DIHEDRAL>
0

>  <SCORE.SYSTEM.SOLV>
0

>  <SCORE.SYSTEM.norm>
0

>  <SCORE.heavy>
42

>  <SCORE.norm>
-1.22645

>  <RMSD>
4.673

$$$$
1fyp_lig
 OpenBabel11021811393D
libRbt.so/2013.1/901 2013/11/27
 42 45  0  0  0  0  0  0  0  0999 V2000
    4.0460    7.8281   24.7563 C   0  0  2  0  0  0  0  0  0  0  0  0
    4.2869    6.3916   24.7299 O   0  0  0  0  0  0  0  0  0  0  0  0
    6.0880    4.4402   28.0749 C   0  0  2  0  0  0  0  0  0  0  0  0
    6.3861    3.7553   29.3463 N   0  0  0  0  0  0  0  0  0  0  0  0
    2.6621    3.2552   25.5035 C   0  0  1  0  0  0  0  0  0  0  0  0
   -1.2685    1.2866   26.1714 C   0  0  1  0  0  0  0  0  0  0  0  0
    3.3228    8.3112   23.4580 C   0  0  2  0  0  0  0  0  0  0  0  0
    2.1240    7.4932   23.1760 N   0  0  0  0  0  0  0  0  0  0  0  0
    5.3013    5.7347   28.3619 C   0  0  0  0  0  0  0  0  0  0  0  0
    2.1189    1.8956   25.0561 C   0  0  2  0  0  0  0  0  0  0  0  0
    1.3842    2.0514   23.8415 O   0  0  0  0  0  0  0  0  0  0  0  0
   -1.9768    1.4039   27.5555 C   0  0  2  0  0  0  0  0  0  0  0  0
   -1.0256    1.3371   28.6917 N   0  0  0  0  0  0  0  0  0  0  0  0
    4.2951    8.2855   22.2374 C   0  0  1  0  0  0  0  0  0  0  0  0
    3.6718    8.8760   21.0996 O   0  0  0  0  0  0  0  0  0  0  0  0
    4.9756    6.5244   27.0647 C   0  0  2  0  0  0  0  0  0  0  0  0
    4.1567    7.6950   27.4424 N   0  0  0  0  0  0  0  0  0  0  0  0
    1.1959    1.5279   26.2211 C   0  0  2  0  0  0  0  0  0  0  0  0
   -0.1097    2.1572   26.0946 O   0  0  0  0  0  0  0  0  0  0  0  0
   -3.1036    0.3344   27.6955 C   0  0  1  0  0  0  0  0  0  0  0  0
   -4.2011    0.7214   26.8712 O   0  0  0  0  0  0  0  0  0  0  0  0
    5.6096    9.0509   22.5316 C   0  0  2  0  0  0  0  0  0  0  0  0
    6.4879    8.9115   21.4190 O   0  0  0  0  0  0  0  0  0  0  0  0
    4.2546    5.6454   25.9804 C   0  0  2  0  0  0  0  0  0  0  0  0
    1.9557    2.0990   27.4264 C   0  0  2  0  0  0  0  0  0  0  0  0
    2.6522    3.2627   26.9400 O   0  0  0  0  0  0  0  0  0  0  0  0
   -2.6691   -1.1053   27.2848 C   0  0  2  0  0  0  0  0  0  0  0  0
   -1.8106   -1.6275   28.3001 O   0  0  0  0  0  0  0  0  0  0  0  0
    6.2751    8.5038   23.8263 C   0  0  2  0  0  0  0  0  0  0  0  0
    5.3095    8.5562   24.9192 O   0  0  0  0  0  0  0  0  0  0  0  0
    4.9420    4.2479   25.7700 C   0  0  2  0  0  0  0  0  0  0  0  0
    4.0284    3.4033   25.0227 O   0  0  0  0  0  0  0  0  0  0  0  0
    2.9555    1.1009   28.0370 C   0  0  0  0  0  0  0  0  0  0  0  0
    2.2792   -0.0028   28.6134 O   0  0  0  0  0  0  0  0  0  0  0  0
   -1.9310   -1.0903   25.9103 C   0  0  1  0  0  0  0  0  0  0  0  0
   -0.8552   -0.1033   25.9420 O   0  0  0  0  0  0  0  0  0  0  0  0
    7.5195    9.2890   24.2976 C   0  0  0  0  0  0  0  0  0  0  0  0
    8.0901    8.7031   25.4554 O   0  0  0  0  0  0  0  0  0  0  0  0
    5.2869    3.5309   27.1122 C   0  0  1  0  0  0  0  0  0  0  0  0
    6.0540    2.3627   26.8249 O   0  0  0  0  0  0  0  0  0  0  0  0
   -1.3382   -2.4726   25.5347 C   0  0  0  0  0  0  0  0  0  0  0  0
   -0.6271   -2.4484   24.2437 N   0  0  0  0  0  0  0  0  0  0  0  0
  1  2  1  6  0  0  0
  1  7  1  0  0  0  0
  1 30  1  0  0  0  0
  3  4  1  1  0  0  0
  3  9  1  0  0  0  0
  3 39  1  0  0  0  0
  5 10  1  0  0  0  0
  5 26  1  0  0  0  0
  5 32  1  1  0  0  0
  6 12  1  0  0  0  0
  6 36  1  0  0  0  0
  6 19  1  1  0  0  0
  7  8  1  6  0  0  0
  7 14  1  0  0  0  0
  9 16  1  0  0  0  0
 10 11  1  6  0  0  0
 10 18  1  0  0  0  0
 12 13  1  1  0  0  0
 12 20  1  0  0  0  0
 14 15  1  6  0  0  0
 14 22  1  0  0  0  0
 16 17  1  1  0  0  0
 16 24  1  0  0  0  0
 18 19  1  6  0  0  0
 18 25  1  0  0  0  0
 20 21  1  6  0  0  0
 20 27  1  0  0  0  0
 22 23  1  6  0  0  0
 22 29  1  0  0  0  0
 24  2  1  6  0  0  0
 24 31  1  0  0  0  0
 25 26  1  0  0  0  0
 25 33  1  6  0  0  0
 27 28  1  1  0  0  0
 27 35  1  0  0  0  0
 29 30  1  0  0  0  0
 29 37  1  1  0  0  0
 31 32  1  6  0  0  0
 31 39  1  0  0  0  0
 33 34  1  0  0  0  0
 35 36  1  0  0  0  0
 35 41  1  1  0  0  0
 37 38  1  0  0  0  0
 39 40  1  6  0  0  0
 41 42  1  0  0  0  0
M  END
>  <CHROM.1>
-147.17185711,-40.79884809,95.52090092,75.91864851,-178.58856260,169.68555264
-106.88605258,136.24735811,126.94502370,103.80055777,-171.76709931,65.59084078
-66.23798633,174.31548231,-178.12560954,-51.98477416,-152.24696893,-158.58913871
-179.25554438,-51.50608133,61.75549081,97.00354714,2.59044927,3.81993923
25.81914080,0.76664178,-0.53373158,-0.78914635

>  <Name>
1fyp_lig

>  <RI>
0

>  <Rbt.Current_Directory>
/home/itssahil/PROJECTS/Mol_Feturizer/New_Systems/rnas/1fyp

>  <Rbt.Executable>
rbdock ($Id: //depot/dev/client3/rdock/2013.1/src/exe/rbdock.cxx#4 $)

>  <Rbt.Library>
libRbt.so (2013.1, Build901 2013/11/27)

>  <Rbt.Parameter_File>
/export/apps/rDock/src/rDock_2013.1_src/data/scripts/dock_solv.prm

>  <Rbt.Receptor>
prm/pocket_docking_3.prm

>  <SCORE>
-50.4757

>  <SCORE.INTER>
-52.8978

>  <SCORE.INTER.CONST>
1

>  <SCORE.INTER.POLAR>
-6.85403

>  <SCORE.INTER.ROT>
14

>  <SCORE.INTER.SOLV>
22.9443

>  <SCORE.INTER.VDW>
-32.9999

>  <SCORE.INTER.norm>
-1.25947

>  <SCORE.INTRA>
2.40633

>  <SCORE.INTRA.DIHEDRAL>
-10.8796

>  <SCORE.INTRA.DIHEDRAL.0>
48.7173

>  <SCORE.INTRA.POLAR>
0.77362

>  <SCORE.INTRA.POLAR.0>
-1.54691

>  <SCORE.INTRA.REPUL>
0.119927

>  <SCORE.INTRA.REPUL.0>
0

>  <SCORE.INTRA.SOLV>
-1.50924

>  <SCORE.INTRA.SOLV.lig_0>
-64.052

>  <SCORE.INTRA.VDW>
5.37081

>  <SCORE.INTRA.VDW.0>
-7.0667

>  <SCORE.INTRA.norm>
0.0572935

>  <SCORE.RESTR>
0.0157721

>  <SCORE.RESTR.CAVITY>
0.0157721

>  <SCORE.RESTR.norm>
0.000375527

>  <SCORE.SYSTEM>
0

>  <SCORE.SYSTEM.CONST>
0

>  <SCORE.SYSTEM.DIHEDRAL>
0

>  <SCORE.SYSTEM.SOLV>
0

>  <SCORE.SYSTEM.norm>
0

>  <SCORE.heavy>
42

>  <SCORE.norm>
-1.2018

>  <RMSD>
4.692

$$$$
1fyp_lig
 OpenBabel11021811393D
libRbt.so/2013.1/901 2013/11/27
 42 45  0  0  0  0  0  0  0  0999 V2000
    3.7228    7.6732   24.7267 C   0  0  2  0  0  0  0  0  0  0  0  0
    3.8091    6.2201   24.6664 O   0  0  0  0  0  0  0  0  0  0  0  0
    5.7540    4.2927   27.9441 C   0  0  2  0  0  0  0  0  0  0  0  0
    6.1052    3.6044   29.2000 N   0  0  0  0  0  0  0  0  0  0  0  0
    2.3231    2.9814   25.4734 C   0  0  1  0  0  0  0  0  0  0  0  0
   -1.3657    0.9995   25.3845 C   0  0  1  0  0  0  0  0  0  0  0  0
    3.0554    8.2607   23.4416 C   0  0  2  0  0  0  0  0  0  0  0  0
    1.7763    7.5820   23.1435 N   0  0  0  0  0  0  0  0  0  0  0  0
    4.9340    5.5583   28.2648 C   0  0  0  0  0  0  0  0  0  0  0  0
    1.8200    1.6227   24.9788 C   0  0  2  0  0  0  0  0  0  0  0  0
    1.0141    1.8074   23.8143 O   0  0  0  0  0  0  0  0  0  0  0  0
   -2.7691    1.6628   25.5312 C   0  0  2  0  0  0  0  0  0  0  0  0
   -3.1072    1.9790   26.9405 N   0  0  0  0  0  0  0  0  0  0  0  0
    4.0198    8.1599   22.2184 C   0  0  1  0  0  0  0  0  0  0  0  0
    3.4631    8.8399   21.0962 O   0  0  0  0  0  0  0  0  0  0  0  0
    4.5512    6.3506   26.9849 C   0  0  2  0  0  0  0  0  0  0  0  0
    3.7052    7.4904   27.3957 N   0  0  0  0  0  0  0  0  0  0  0  0
    0.9794    1.1479   26.1672 C   0  0  2  0  0  0  0  0  0  0  0  0
   -0.3588    1.7181   26.1438 O   0  0  0  0  0  0  0  0  0  0  0  0
   -3.8720    0.7821   24.8672 C   0  0  1  0  0  0  0  0  0  0  0  0
   -3.7440    0.8867   23.4508 O   0  0  0  0  0  0  0  0  0  0  0  0
    5.4083    8.7737   22.5273 C   0  0  2  0  0  0  0  0  0  0  0  0
    6.2669    8.5675   21.4097 O   0  0  0  0  0  0  0  0  0  0  0  0
    3.8316    5.4603   25.9089 C   0  0  2  0  0  0  0  0  0  0  0  0
    1.7763    1.6900   27.3620 C   0  0  2  0  0  0  0  0  0  0  0  0
    2.3907    2.9111   26.9067 O   0  0  0  0  0  0  0  0  0  0  0  0
   -3.8001   -0.7264   25.2534 C   0  0  2  0  0  0  0  0  0  0  0  0
   -4.2526   -0.8725   26.6004 O   0  0  0  0  0  0  0  0  0  0  0  0
    6.0115    8.1288   23.8074 C   0  0  2  0  0  0  0  0  0  0  0  0
    5.0567    8.2584   24.9035 O   0  0  0  0  0  0  0  0  0  0  0  0
    4.5577    4.0878   25.6660 C   0  0  2  0  0  0  0  0  0  0  0  0
    3.6530    3.2222   24.9319 O   0  0  0  0  0  0  0  0  0  0  0  0
    2.8528    0.7109   27.8630 C   0  0  0  0  0  0  0  0  0  0  0  0
    3.3700    1.1263   29.1150 O   0  0  0  0  0  0  0  0  0  0  0  0
   -2.3425   -1.2652   25.1132 C   0  0  1  0  0  0  0  0  0  0  0  0
   -1.4253   -0.3940   25.8428 O   0  0  0  0  0  0  0  0  0  0  0  0
    7.3324    8.7657   24.2939 C   0  0  0  0  0  0  0  0  0  0  0  0
    7.3130   10.1745   24.1376 O   0  0  0  0  0  0  0  0  0  0  0  0
    4.9584    3.3683   26.9912 C   0  0  1  0  0  0  0  0  0  0  0  0
    5.7549    2.2283   26.6721 O   0  0  0  0  0  0  0  0  0  0  0  0
   -2.1879   -2.7154   25.6386 C   0  0  0  0  0  0  0  0  0  0  0  0
   -2.5074   -3.7235   24.6116 N   0  0  0  0  0  0  0  0  0  0  0  0
  1  2  1  6  0  0  0
  1  7  1  0  0  0  0
  1 30  1  0  0  0  0
  3  4  1  1  0  0  0
  3  9  1  0  0  0  0
  3 39  1  0  0  0  0
  5 10  1  0  0  0  0
  5 26  1  0  0  0  0
  5 32  1  6  0  0  0
  6 12  1  0  0  0  0
  6 36  1  0  0  0  0
  6 19  1  1  0  0  0
  7  8  1  6  0  0  0
  7 14  1  0  0  0  0
  9 16  1  0  0  0  0
 10 11  1  6  0  0  0
 10 18  1  0  0  0  0
 12 13  1  1  0  0  0
 12 20  1  0  0  0  0
 14 15  1  6  0  0  0
 14 22  1  0  0  0  0
 16 17  1  1  0  0  0
 16 24  1  0  0  0  0
 18 19  1  6  0  0  0
 18 25  1  0  0  0  0
 20 21  1  6  0  0  0
 20 27  1  0  0  0  0
 22 23  1  6  0  0  0
 22 29  1  0  0  0  0
 24  2  1  6  0  0  0
 24 31  1  0  0  0  0
 25 26  1  0  0  0  0
 25 33  1  6  0  0  0
 27 28  1  1  0  0  0
 27 35  1  0  0  0  0
 29 30  1  0  0  0  0
 29 37  1  1  0  0  0
 31 32  1  1  0  0  0
 31 39  1  0  0  0  0
 33 34  1  0  0  0  0
 35 36  1  0  0  0  0
 35 41  1  1  0  0  0
 37 38  1  0  0  0  0
 39 40  1  6  0  0  0
 41 42  1  0  0  0  0
M  END
>  <CHROM.1>
-153.25043286,-31.73224036,-134.20328773,67.61000071,177.51768824,170.89646115
59.59862783,21.89277158,87.26217178,175.84596328,62.16800990,62.80045408
-168.09720791,169.00749248,38.61581029,-54.49368441,-153.29261519,-68.78510725
86.56033896,-59.19858576,-176.78637691,164.65398358,2.13761660,3.75080153
25.39836108,0.68897331,-0.52649932,-0.70985956

>  <Name>
1fyp_lig

>  <RI>
0

>  <Rbt.Current_Directory>
/home/itssahil/PROJECTS/Mol_Feturizer/New_Systems/rnas/1fyp

>  <Rbt.Executable>
rbdock ($Id: //depot/dev/client3/rdock/2013.1/src/exe/rbdock.cxx#4 $)

>  <Rbt.Library>
libRbt.so (2013.1, Build901 2013/11/27)

>  <Rbt.Parameter_File>
/export/apps/rDock/src/rDock_2013.1_src/data/scripts/dock_solv.prm

>  <Rbt.Receptor>
prm/pocket_docking_4.prm

>  <SCORE>
-56.0258

>  <SCORE.INTER>
-53.9994

>  <SCORE.INTER.CONST>
1

>  <SCORE.INTER.POLAR>
-7.50086

>  <SCORE.INTER.ROT>
14

>  <SCORE.INTER.SOLV>
22.864

>  <SCORE.INTER.VDW>
-31.5514

>  <SCORE.INTER.norm>
-1.2857

>  <SCORE.INTRA>
-2.02642

>  <SCORE.INTRA.DIHEDRAL>
-26.1456

>  <SCORE.INTRA.DIHEDRAL.0>
48.7173

>  <SCORE.INTRA.POLAR>
0.996433

>  <SCORE.INTRA.POLAR.0>
-1.54691

>  <SCORE.INTRA.REPUL>
0

>  <SCORE.INTRA.REPUL.0>
0

>  <SCORE.INTRA.SOLV>
-1.27599

>  <SCORE.INTRA.SOLV.lig_0>
-64.052

>  <SCORE.INTRA.VDW>
8.29649

>  <SCORE.INTRA.VDW.0>
-7.0667

>  <SCORE.INTRA.norm>
-0.0482481

>  <SCORE.RESTR>
0

>  <SCORE.RESTR.CAVITY>
0

>  <SCORE.RESTR.norm>
0

>  <SCORE.SYSTEM>
0

>  <SCORE.SYSTEM.CONST>
0

>  <SCORE.SYSTEM.DIHEDRAL>
0

>  <SCORE.SYSTEM.SOLV>
0

>  <SCORE.SYSTEM.norm>
0

>  <SCORE.heavy>
42

>  <SCORE.norm>
-1.33395

>  <RMSD>
4.706

$$$$
1fyp_lig
 OpenBabel11021811393D
libRbt.so/2013.1/901 2013/11/27
 42 45  0  0  0  0  0  0  0  0999 V2000
    3.8306    7.6413   24.8264 C   0  0  2  0  0  0  0  0  0  0  0  0
    3.9249    6.1909   24.7276 O   0  0  0  0  0  0  0  0  0  0  0  0
    5.9828    4.1078   27.8367 C   0  0  2  0  0  0  0  0  0  0  0  0
    6.3806    3.3758   29.0534 N   0  0  0  0  0  0  0  0  0  0  0  0
    2.3270    3.0704   25.5097 C   0  0  1  0  0  0  0  0  0  0  0  0
   -1.6720    1.2875   26.0420 C   0  0  1  0  0  0  0  0  0  0  0  0
    3.1609    8.2592   23.5568 C   0  0  2  0  0  0  0  0  0  0  0  0
    1.8858    7.5816   23.2395 N   0  0  0  0  0  0  0  0  0  0  0  0
    5.2376    5.3974   28.2346 C   0  0  0  0  0  0  0  0  0  0  0  0
    1.6574    1.8140   24.9469 C   0  0  2  0  0  0  0  0  0  0  0  0
    0.8452    2.1673   23.8267 O   0  0  0  0  0  0  0  0  0  0  0  0
   -2.6766    1.5603   27.2029 C   0  0  2  0  0  0  0  0  0  0  0  0
   -2.0305    1.5259   28.5376 N   0  0  0  0  0  0  0  0  0  0  0  0
    4.1268    8.1963   22.3323 C   0  0  1  0  0  0  0  0  0  0  0  0
    3.5673    8.9029   21.2280 O   0  0  0  0  0  0  0  0  0  0  0  0
    4.8113    6.2352   26.9982 C   0  0  2  0  0  0  0  0  0  0  0  0
    4.0402    7.3981   27.4850 N   0  0  0  0  0  0  0  0  0  0  0  0
    0.8020    1.3570   26.1318 C   0  0  2  0  0  0  0  0  0  0  0  0
   -0.4620    2.0746   26.1935 O   0  0  0  0  0  0  0  0  0  0  0  0
   -3.8866    0.5783   27.1328 C   0  0  1  0  0  0  0  0  0  0  0  0
   -4.7225    0.9657   26.0444 O   0  0  0  0  0  0  0  0  0  0  0  0
    5.5117    8.8094   22.6587 C   0  0  2  0  0  0  0  0  0  0  0  0
    6.3723    8.6377   21.5369 O   0  0  0  0  0  0  0  0  0  0  0  0
    3.9911    5.4011   25.9496 C   0  0  2  0  0  0  0  0  0  0  0  0
    1.6895    1.7232   27.3296 C   0  0  2  0  0  0  0  0  0  0  0  0
    2.4269    2.8954   26.9322 O   0  0  0  0  0  0  0  0  0  0  0  0
   -3.4842   -0.9141   26.9316 C   0  0  2  0  0  0  0  0  0  0  0  0
   -2.9357   -1.4056   28.1557 O   0  0  0  0  0  0  0  0  0  0  0  0
    6.1174    8.1339   23.9217 C   0  0  2  0  0  0  0  0  0  0  0  0
    5.1610    8.2290   25.0200 O   0  0  0  0  0  0  0  0  0  0  0  0
    4.6429    4.0065   25.6328 C   0  0  2  0  0  0  0  0  0  0  0  0
    3.6599    3.1962   24.9374 O   0  0  0  0  0  0  0  0  0  0  0  0
    2.6603    0.5971   27.7273 C   0  0  0  0  0  0  0  0  0  0  0  0
    3.8504    1.1290   28.2826 O   0  0  0  0  0  0  0  0  0  0  0  0
   -2.4424   -1.0564   25.7789 C   0  0  1  0  0  0  0  0  0  0  0  0
   -1.3291   -0.1396   26.0080 O   0  0  0  0  0  0  0  0  0  0  0  0
    7.4343    8.7649   24.4263 C   0  0  0  0  0  0  0  0  0  0  0  0
    7.3973   10.1788   24.3316 O   0  0  0  0  0  0  0  0  0  0  0  0
    5.0929    3.2396   26.9149 C   0  0  1  0  0  0  0  0  0  0  0  0
    5.8201    2.0764   26.5227 O   0  0  0  0  0  0  0  0  0  0  0  0
   -1.8904   -2.4990   25.6463 C   0  0  0  0  0  0  0  0  0  0  0  0
   -2.9601   -3.4970   25.4657 N   0  0  0  0  0  0  0  0  0  0  0  0
  1  2  1  6  0  0  0
  1  7  1  0  0  0  0
  1 30  1  0  0  0  0
  3  4  1  1  0  0  0
  3  9  1  0  0  0  0
  3 39  1  0  0  0  0
  5 10  1  0  0  0  0
  5 26  1  0  0  0  0
  5 32  1  6  0  0  0
  6 12  1  0  0  0  0
  6 36  1  0  0  0  0
  6 19  1  1  0  0  0
  7  8  1  6  0  0  0
  7 14  1  0  0  0  0
  9 16  1  0  0  0  0
 10 11  1  6  0  0  0
 10 18  1  0  0  0  0
 12 13  1  1  0  0  0
 12 20  1  0  0  0  0
 14 15  1  6  0  0  0
 14 22  1  0  0  0  0
 16 17  1  1  0  0  0
 16 24  1  0  0  0  0
 18 19  1  1  0  0  0
 18 25  1  0  0  0  0
 20 21  1  6  0  0  0
 20 27  1  0  0  0  0
 22 23  1  6  0  0  0
 22 29  1  0  0  0  0
 24  2  1  6  0  0  0
 24 31  1  0  0  0  0
 25 26  1  0  0  0  0
 25 33  1  6  0  0  0
 27 28  1  1  0  0  0
 27 35  1  0  0  0  0
 29 30  1  0  0  0  0
 29 37  1  1  0  0  0
 31 32  1  1  0  0  0
 31 39  1  0  0  0  0
 33 34  1  0  0  0  0
 35 36  1  0  0  0  0
 35 41  1  1  0  0  0
 37 38  1  0  0  0  0
 39 40  1  6  0  0  0
 41 42  1  0  0  0  0
M  END
>  <CHROM.1>
-155.07019472,-35.01407267,147.00437329,-163.49354120,130.05289099,46.52298653
66.96537948,24.00743533,117.23423793,128.12711459,-60.97715040,-174.11871098
149.57921676,73.34502127,39.74906213,-50.39600744,-158.93484759,-104.29737828
55.76561346,-47.56680051,-53.63079107,-58.38339271,2.24351532,3.74669841
25.73005732,0.76386168,-0.41289324,-0.67925827

>  <Name>
1fyp_lig

>  <RI>
0

>  <Rbt.Current_Directory>
/home/itssahil/PROJECTS/Mol_Feturizer/New_Systems/rnas/1fyp

>  <Rbt.Executable>
rbdock ($Id: //depot/dev/client3/rdock/2013.1/src/exe/rbdock.cxx#4 $)

>  <Rbt.Library>
libRbt.so (2013.1, Build901 2013/11/27)

>  <Rbt.Parameter_File>
/export/apps/rDock/src/rDock_2013.1_src/data/scripts/dock_solv.prm

>  <Rbt.Receptor>
prm/pocket_docking_2.prm

>  <SCORE>
-47.9441

>  <SCORE.INTER>
-61.4583

>  <SCORE.INTER.CONST>
1

>  <SCORE.INTER.POLAR>
-9.16874

>  <SCORE.INTER.ROT>
14

>  <SCORE.INTER.SOLV>
24.2

>  <SCORE.INTER.VDW>
-31.4097

>  <SCORE.INTER.norm>
-1.46329

>  <SCORE.INTRA>
8.00767

>  <SCORE.INTRA.DIHEDRAL>
-4.09496

>  <SCORE.INTRA.DIHEDRAL.0>
48.7173

>  <SCORE.INTRA.POLAR>
0.155285

>  <SCORE.INTRA.POLAR.0>
-1.54691

>  <SCORE.INTRA.REPUL>
0

>  <SCORE.INTRA.REPUL.0>
0

>  <SCORE.INTRA.SOLV>
0.451507

>  <SCORE.INTRA.SOLV.lig_0>
-64.052

>  <SCORE.INTRA.VDW>
9.30142

>  <SCORE.INTRA.VDW.0>
-7.0667

>  <SCORE.INTRA.norm>
0.190659

>  <SCORE.RESTR>
5.5065

>  <SCORE.RESTR.CAVITY>
5.5065

>  <SCORE.RESTR.norm>
0.131107

>  <SCORE.SYSTEM>
0

>  <SCORE.SYSTEM.CONST>
0

>  <SCORE.SYSTEM.DIHEDRAL>
0

>  <SCORE.SYSTEM.SOLV>
0

>  <SCORE.SYSTEM.norm>
0

>  <SCORE.heavy>
42

>  <SCORE.norm>
-1.14153

>  <RMSD>
4.712

$$$$
1fyp_lig
 OpenBabel11021811393D
libRbt.so/2013.1/901 2013/11/27
 42 45  0  0  0  0  0  0  0  0999 V2000
    3.9195    8.0267   24.5905 C   0  0  2  0  0  0  0  0  0  0  0  0
    4.1741    6.5926   24.5579 O   0  0  0  0  0  0  0  0  0  0  0  0
    6.0442    4.4272   27.7288 C   0  0  2  0  0  0  0  0  0  0  0  0
    6.3789    3.7036   28.9693 N   0  0  0  0  0  0  0  0  0  0  0  0
    2.3441    3.4848   25.5768 C   0  0  1  0  0  0  0  0  0  0  0  0
   -1.4252    1.4749   26.4492 C   0  0  1  0  0  0  0  0  0  0  0  0
    3.1400    8.4986   23.3210 C   0  0  2  0  0  0  0  0  0  0  0  0
    1.9394    7.6676   23.0892 N   0  0  0  0  0  0  0  0  0  0  0  0
    5.4361    5.7989   28.0834 C   0  0  0  0  0  0  0  0  0  0  0  0
    1.7529    2.1177   25.2232 C   0  0  2  0  0  0  0  0  0  0  0  0
    0.8286    2.2621   24.1442 O   0  0  0  0  0  0  0  0  0  0  0  0
   -2.3572    1.5214   27.6983 C   0  0  2  0  0  0  0  0  0  0  0  0
   -1.6095    1.4027   28.9739 N   0  0  0  0  0  0  0  0  0  0  0  0
    4.0630    8.4796   22.0626 C   0  0  1  0  0  0  0  0  0  0  0  0
    3.3885    9.0605   20.9493 O   0  0  0  0  0  0  0  0  0  0  0  0
    5.0834    6.6299   26.8195 C   0  0  2  0  0  0  0  0  0  0  0  0
    4.4379    7.8814   27.2677 N   0  0  0  0  0  0  0  0  0  0  0  0
    1.0361    1.7404   26.5226 C   0  0  2  0  0  0  0  0  0  0  0  0
   -0.2806    2.3528   26.6102 O   0  0  0  0  0  0  0  0  0  0  0  0
   -3.4784    0.4419   27.5954 C   0  0  1  0  0  0  0  0  0  0  0  0
   -4.4265    0.8646   26.6176 O   0  0  0  0  0  0  0  0  0  0  0  0
    5.3801    9.2593   22.3021 C   0  0  2  0  0  0  0  0  0  0  0  0
    6.2146    9.1259   21.1556 O   0  0  0  0  0  0  0  0  0  0  0  0
    4.1730    5.8450   25.8079 C   0  0  2  0  0  0  0  0  0  0  0  0
    1.9744    2.3231   27.5886 C   0  0  2  0  0  0  0  0  0  0  0  0
    2.5676    3.4947   26.9959 O   0  0  0  0  0  0  0  0  0  0  0  0
   -2.9637   -0.9742   27.1956 C   0  0  2  0  0  0  0  0  0  0  0  0
   -2.2816   -1.5423   28.3148 O   0  0  0  0  0  0  0  0  0  0  0  0
    6.1025    8.7227   23.5704 C   0  0  2  0  0  0  0  0  0  0  0  0
    5.1809    8.7682   24.7010 O   0  0  0  0  0  0  0  0  0  0  0  0
    4.6785    4.3814   25.5389 C   0  0  2  0  0  0  0  0  0  0  0  0
    3.6121    3.6494   24.8805 O   0  0  0  0  0  0  0  0  0  0  0  0
    3.0728    1.3388   28.0283 C   0  0  0  0  0  0  0  0  0  0  0  0
    3.8735    1.9005   29.0535 O   0  0  0  0  0  0  0  0  0  0  0  0
   -2.0056   -0.8888   25.9672 C   0  0  1  0  0  0  0  0  0  0  0  0
   -0.9624    0.0996   26.2266 O   0  0  0  0  0  0  0  0  0  0  0  0
    7.3565    9.5220   23.9897 C   0  0  0  0  0  0  0  0  0  0  0  0
    8.5191    9.0326   23.3430 O   0  0  0  0  0  0  0  0  0  0  0  0
    5.0623    3.6201   26.8457 C   0  0  1  0  0  0  0  0  0  0  0  0
    5.6651    2.3761   26.4923 O   0  0  0  0  0  0  0  0  0  0  0  0
   -1.3414   -2.2487   25.6312 C   0  0  0  0  0  0  0  0  0  0  0  0
   -2.2255   -3.1284   24.8454 N   0  0  0  0  0  0  0  0  0  0  0  0
  1  2  1  6  0  0  0
  1  7  1  0  0  0  0
  1 30  1  0  0  0  0
  3  4  1  1  0  0  0
  3  9  1  0  0  0  0
  3 39  1  0  0  0  0
  5 10  1  0  0  0  0
  5 26  1  0  0  0  0
  5 32  1  6  0  0  0
  6 12  1  0  0  0  0
  6 36  1  0  0  0  0
  6 19  1  1  0  0  0
  7  8  1  6  0  0  0
  7 14  1  0  0  0  0
  9 16  1  0  0  0  0
 10 11  1  6  0  0  0
 10 18  1  0  0  0  0
 12 13  1  1  0  0  0
 12 20  1  0  0  0  0
 14 15  1  6  0  0  0
 14 22  1  0  0  0  0
 16 17  1  1  0  0  0
 16 24  1  0  0  0  0
 18 19  1  6  0  0  0
 18 25  1  0  0  0  0
 20 21  1  6  0  0  0
 20 27  1  0  0  0  0
 22 23  1  6  0  0  0
 22 29  1  0  0  0  0
 24  2  1  6  0  0  0
 24 31  1  0  0  0  0
 25 26  1  0  0  0  0
 25 33  1  6  0  0  0
 27 28  1  1  0  0  0
 27 35  1  0  0  0  0
 29 30  1  0  0  0  0
 29 37  1  1  0  0  0
 31 32  1  1  0  0  0
 31 39  1  0  0  0  0
 33 34  1  0  0  0  0
 35 36  1  0  0  0  0
 35 41  1  1  0  0  0
 37 38  1  0  0  0  0
 39 40  1  6  0  0  0
 41 42  1  0  0  0  0
M  END
>  <CHROM.1>
-145.95448113,-48.91327424,111.77030238,-165.81760269,127.10665682,-176.39839756
60.42031227,20.27058951,108.02258822,121.73880876,-54.92387115,173.38504622
-177.37450814,124.68420930,-88.34287375,-60.86614424,-145.34741024,173.00889859
81.32196016,75.07250094,63.04822959,-43.26112744,2.43681607,4.01564468,25.73332527
0.78533173,-0.47289345,-0.77675889

>  <Name>
1fyp_lig

>  <RI>
0

>  <Rbt.Current_Directory>
/home/itssahil/PROJECTS/Mol_Feturizer/New_Systems/rnas/1fyp

>  <Rbt.Executable>
rbdock ($Id: //depot/dev/client3/rdock/2013.1/src/exe/rbdock.cxx#4 $)

>  <Rbt.Library>
libRbt.so (2013.1, Build901 2013/11/27)

>  <Rbt.Parameter_File>
/export/apps/rDock/src/rDock_2013.1_src/data/scripts/dock_solv.prm

>  <Rbt.Receptor>
prm/pocket_docking_4.prm

>  <SCORE>
-57.5581

>  <SCORE.INTER>
-64.0386

>  <SCORE.INTER.CONST>
1

>  <SCORE.INTER.POLAR>
-9.55445

>  <SCORE.INTER.ROT>
14

>  <SCORE.INTER.SOLV>
22.094

>  <SCORE.INTER.VDW>
-31.1422

>  <SCORE.INTER.norm>
-1.52473

>  <SCORE.INTRA>
6.46985

>  <SCORE.INTRA.DIHEDRAL>
-1.22148

>  <SCORE.INTRA.DIHEDRAL.0>
48.7173

>  <SCORE.INTRA.POLAR>
-0.0408632

>  <SCORE.INTRA.POLAR.0>
-1.54691

>  <SCORE.INTRA.REPUL>
0.0719165

>  <SCORE.INTRA.REPUL.0>
0

>  <SCORE.INTRA.SOLV>
0.556528

>  <SCORE.INTRA.SOLV.lig_0>
-64.052

>  <SCORE.INTRA.VDW>
6.58168

>  <SCORE.INTRA.VDW.0>
-7.0667

>  <SCORE.INTRA.norm>
0.154044

>  <SCORE.RESTR>
0.0106309

>  <SCORE.RESTR.CAVITY>
0.0106309

>  <SCORE.RESTR.norm>
0.000253117

>  <SCORE.SYSTEM>
0

>  <SCORE.SYSTEM.CONST>
0

>  <SCORE.SYSTEM.DIHEDRAL>
0

>  <SCORE.SYSTEM.SOLV>
0

>  <SCORE.SYSTEM.norm>
0

>  <SCORE.heavy>
42

>  <SCORE.norm>
-1.37043

>  <RMSD>
4.721

$$$$
1fyp_lig
 OpenBabel11021811393D
libRbt.so/2013.1/901 2013/11/27
 42 45  0  0  0  0  0  0  0  0999 V2000
    3.7509    7.7985   26.0250 C   0  0  2  0  0  0  0  0  0  0  0  0
    3.8848    6.3602   26.2139 O   0  0  0  0  0  0  0  0  0  0  0  0
    6.1208    3.7962   28.7959 C   0  0  2  0  0  0  0  0  0  0  0  0
    6.7699    3.1182   29.9332 N   0  0  0  0  0  0  0  0  0  0  0  0
    1.6423    3.4166   27.0089 C   0  0  1  0  0  0  0  0  0  0  0  0
   -0.4904   -0.0522   25.3052 C   0  0  1  0  0  0  0  0  0  0  0  0
    2.6658    8.1364   24.9524 C   0  0  2  0  0  0  0  0  0  0  0  0
    1.3959    7.4338   25.2344 N   0  0  0  0  0  0  0  0  0  0  0  0
    6.4764    5.2962   28.8222 C   0  0  0  0  0  0  0  0  0  0  0  0
    2.1016    1.9686   27.1987 C   0  0  2  0  0  0  0  0  0  0  0  0
    3.0473    1.6310   26.1832 O   0  0  0  0  0  0  0  0  0  0  0  0
   -0.3644   -0.5327   23.8272 C   0  0  2  0  0  0  0  0  0  0  0  0
   -0.2711    0.5934   22.8662 N   0  0  0  0  0  0  0  0  0  0  0  0
    3.1725    7.7844   23.5187 C   0  0  1  0  0  0  0  0  0  0  0  0
    2.2412    8.2427   22.5418 O   0  0  0  0  0  0  0  0  0  0  0  0
    5.8462    6.0705   27.6324 C   0  0  2  0  0  0  0  0  0  0  0  0
    6.1795    7.5007   27.7973 N   0  0  0  0  0  0  0  0  0  0  0  0
    0.7914    1.1975   27.0167 C   0  0  2  0  0  0  0  0  0  0  0  0
    0.4848    0.9782   25.6115 O   0  0  0  0  0  0  0  0  0  0  0  0
   -1.5304   -1.5000   23.4561 C   0  0  1  0  0  0  0  0  0  0  0  0
   -1.3020   -2.7527   24.0981 O   0  0  0  0  0  0  0  0  0  0  0  0
    4.5522    8.4237   23.2221 C   0  0  2  0  0  0  0  0  0  0  0  0
    4.9998    7.9904   21.9412 O   0  0  0  0  0  0  0  0  0  0  0  0
    4.2947    5.8525   27.5161 C   0  0  2  0  0  0  0  0  0  0  0  0
   -0.2328    2.1493   27.6504 C   0  0  2  0  0  0  0  0  0  0  0  0
    0.2660    3.4805   27.4159 O   0  0  0  0  0  0  0  0  0  0  0  0
   -2.9411   -0.9868   23.8760 C   0  0  2  0  0  0  0  0  0  0  0  0
   -3.3165    0.0774   23.0001 O   0  0  0  0  0  0  0  0  0  0  0  0
    5.5780    8.0296   24.3224 C   0  0  2  0  0  0  0  0  0  0  0  0
    5.0366    8.3850   25.6303 O   0  0  0  0  0  0  0  0  0  0  0  0
    3.8784    4.3420   27.6399 C   0  0  2  0  0  0  0  0  0  0  0  0
    2.4446    4.2854   27.8582 O   0  0  0  0  0  0  0  0  0  0  0  0
   -0.4222    1.9134   29.1594 C   0  0  0  0  0  0  0  0  0  0  0  0
   -1.3601    2.8278   29.6997 O   0  0  0  0  0  0  0  0  0  0  0  0
   -2.9322   -0.4898   25.3549 C   0  0  1  0  0  0  0  0  0  0  0  0
   -1.8434    0.4646   25.5450 O   0  0  0  0  0  0  0  0  0  0  0  0
    6.9519    8.7270   24.2082 C   0  0  0  0  0  0  0  0  0  0  0  0
    7.8591    8.2404   25.1827 O   0  0  0  0  0  0  0  0  0  0  0  0
    4.5845    3.6111   28.8238 C   0  0  1  0  0  0  0  0  0  0  0  0
    4.2794    2.2192   28.7516 O   0  0  0  0  0  0  0  0  0  0  0  0
   -4.2683    0.1783   25.7694 C   0  0  0  0  0  0  0  0  0  0  0  0
   -4.0940    1.1603   26.8549 N   0  0  0  0  0  0  0  0  0  0  0  0
  1  2  1  6  0  0  0
  1  7  1  0  0  0  0
  1 30  1  0  0  0  0
  3  4  1  1  0  0  0
  3  9  1  0  0  0  0
  3 39  1  0  0  0  0
  5 10  1  0  0  0  0
  5 26  1  0  0  0  0
  5 32  1  1  0  0  0
  6 12  1  0  0  0  0
  6 36  1  0  0  0  0
  6 19  1  6  0  0  0
  7  8  1  1  0  0  0
  7 14  1  0  0  0  0
  9 16  1  0  0  0  0
 10 11  1  6  0  0  0
 10 18  1  0  0  0  0
 12 13  1  6  0  0  0
 12 20  1  0  0  0  0
 14 15  1  6  0  0  0
 14 22  1  0  0  0  0
 16 17  1  1  0  0  0
 16 24  1  0  0  0  0
 18 19  1  6  0  0  0
 18 25  1  0  0  0  0
 20 21  1  1  0  0  0
 20 27  1  0  0  0  0
 22 23  1  6  0  0  0
 22 29  1  0  0  0  0
 24  2  1  6  0  0  0
 24 31  1  0  0  0  0
 25 26  1  0  0  0  0
 25 33  1  1  0  0  0
 27 28  1  6  0  0  0
 27 35  1  0  0  0  0
 29 30  1  0  0  0  0
 29 37  1  6  0  0  0
 31 32  1  1  0  0  0
 31 39  1  0  0  0  0
 33 34  1  0  0  0  0
 35 36  1  0  0  0  0
 35 41  1  6  0  0  0
 37 38  1  0  0  0  0
 39 40  1  6  0  0  0
 41 42  1  0  0  0  0
M  END
>  <CHROM.1>
-150.30306136,-77.52447218,-161.28723981,84.02674800,-65.47135694,89.53925934
-79.38032550,171.40435215,162.47377232,-159.93614589,-60.77727712,178.14763608
179.11831374,-47.38089066,-175.55251473,128.95862349,61.33726055,66.54798805
-153.57389554,58.61238923,66.51082560,-88.20814494,2.03587790,3.75039274
26.01608629,0.41976539,-0.69121053,-0.89237932

>  <Name>
1fyp_lig

>  <RI>
0

>  <Rbt.Current_Directory>
/home/itssahil/PROJECTS/Mol_Feturizer/New_Systems/rnas/1fyp

>  <Rbt.Executable>
rbdock ($Id: //depot/dev/client3/rdock/2013.1/src/exe/rbdock.cxx#4 $)

>  <Rbt.Library>
libRbt.so (2013.1, Build901 2013/11/27)

>  <Rbt.Parameter_File>
/export/apps/rDock/src/rDock_2013.1_src/data/scripts/dock_solv.prm

>  <Rbt.Receptor>
prm/pocket_docking_3.prm

>  <SCORE>
-66.5178

>  <SCORE.INTER>
-56.8662

>  <SCORE.INTER.CONST>
1

>  <SCORE.INTER.POLAR>
-8.05755

>  <SCORE.INTER.ROT>
14

>  <SCORE.INTER.SOLV>
20.1037

>  <SCORE.INTER.VDW>
-30.6869

>  <SCORE.INTER.norm>
-1.35396

>  <SCORE.INTRA>
-10.3049

>  <SCORE.INTRA.DIHEDRAL>
-24.6068

>  <SCORE.INTRA.DIHEDRAL.0>
48.7173

>  <SCORE.INTRA.POLAR>
-0.144278

>  <SCORE.INTRA.POLAR.0>
-1.54691

>  <SCORE.INTRA.REPUL>
0

>  <SCORE.INTRA.REPUL.0>
0

>  <SCORE.INTRA.SOLV>
-1.46614

>  <SCORE.INTRA.SOLV.lig_0>
-64.052

>  <SCORE.INTRA.VDW>
3.22213

>  <SCORE.INTRA.VDW.0>
-7.0667

>  <SCORE.INTRA.norm>
-0.245354

>  <SCORE.RESTR>
0.653216

>  <SCORE.RESTR.CAVITY>
0.653216

>  <SCORE.RESTR.norm>
0.0155528

>  <SCORE.SYSTEM>
0

>  <SCORE.SYSTEM.CONST>
0

>  <SCORE.SYSTEM.DIHEDRAL>
0

>  <SCORE.SYSTEM.SOLV>
0

>  <SCORE.SYSTEM.norm>
0

>  <SCORE.heavy>
42

>  <SCORE.norm>
-1.58376

>  <RMSD>
4.740

$$$$
1fyp_lig
 OpenBabel11021811393D
libRbt.so/2013.1/901 2013/11/27
 42 45  0  0  0  0  0  0  0  0999 V2000
    3.7481    7.5289   24.8099 C   0  0  2  0  0  0  0  0  0  0  0  0
    3.8872    6.0794   24.7665 O   0  0  0  0  0  0  0  0  0  0  0  0
    5.9949    4.3051   28.0300 C   0  0  2  0  0  0  0  0  0  0  0  0
    6.4065    3.6541   29.2875 N   0  0  0  0  0  0  0  0  0  0  0  0
    2.4945    3.0196   25.4482 C   0  0  1  0  0  0  0  0  0  0  0  0
   -1.5349    1.2305   26.0610 C   0  0  1  0  0  0  0  0  0  0  0  0
    2.9707    8.0669   23.5656 C   0  0  2  0  0  0  0  0  0  0  0  0
    1.7017    7.3344   23.3684 N   0  0  0  0  0  0  0  0  0  0  0  0
    5.1132    5.5286   28.3505 C   0  0  0  0  0  0  0  0  0  0  0  0
    1.9538    1.6220   25.1350 C   0  0  2  0  0  0  0  0  0  0  0  0
    1.3280    1.6291   23.8513 O   0  0  0  0  0  0  0  0  0  0  0  0
   -2.2324    1.4485   27.4383 C   0  0  2  0  0  0  0  0  0  0  0  0
   -1.2792    1.4099   28.5741 N   0  0  0  0  0  0  0  0  0  0  0  0
    3.8511    7.9807   22.2798 C   0  0  1  0  0  0  0  0  0  0  0  0
    3.1917    8.6182   21.1887 O   0  0  0  0  0  0  0  0  0  0  0  0
    4.6641    6.2815   27.0684 C   0  0  2  0  0  0  0  0  0  0  0  0
    3.7650    7.3792   27.4811 N   0  0  0  0  0  0  0  0  0  0  0  0
    0.9266    1.4252   26.2532 C   0  0  2  0  0  0  0  0  0  0  0  0
   -0.3461    2.0534   25.9337 O   0  0  0  0  0  0  0  0  0  0  0  0
   -3.3960    0.4294   27.6393 C   0  0  1  0  0  0  0  0  0  0  0  0
   -4.4826    0.8100   26.7978 O   0  0  0  0  0  0  0  0  0  0  0  0
    5.2325    8.6527   22.4812 C   0  0  2  0  0  0  0  0  0  0  0  0
    6.0191    8.4590   21.3096 O   0  0  0  0  0  0  0  0  0  0  0  0
    3.9743    5.3389   26.0177 C   0  0  2  0  0  0  0  0  0  0  0  0
    1.5981    2.1371   27.4359 C   0  0  2  0  0  0  0  0  0  0  0  0
    2.3643    3.2156   26.8654 O   0  0  0  0  0  0  0  0  0  0  0  0
   -3.0151   -1.0452   27.3071 C   0  0  2  0  0  0  0  0  0  0  0  0
   -2.1713   -1.5417   28.3473 O   0  0  0  0  0  0  0  0  0  0  0  0
    5.9478    8.0549   23.7258 C   0  0  2  0  0  0  0  0  0  0  0  0
    5.0669    8.1679   24.8839 O   0  0  0  0  0  0  0  0  0  0  0  0
    4.7694    4.0046   25.7781 C   0  0  2  0  0  0  0  0  0  0  0  0
    3.8998    3.0813   25.0726 O   0  0  0  0  0  0  0  0  0  0  0  0
    2.5155    1.2116   28.2548 C   0  0  0  0  0  0  0  0  0  0  0  0
    3.8331    1.2168   27.7337 O   0  0  0  0  0  0  0  0  0  0  0  0
   -2.2830   -1.1318   25.9320 C   0  0  1  0  0  0  0  0  0  0  0  0
   -1.1725   -0.1838   25.9070 O   0  0  0  0  0  0  0  0  0  0  0  0
    7.2731    8.7506   24.1088 C   0  0  0  0  0  0  0  0  0  0  0  0
    7.8850    8.1172   25.2195 O   0  0  0  0  0  0  0  0  0  0  0  0
    5.2334    3.3260   27.1043 C   0  0  1  0  0  0  0  0  0  0  0  0
    6.0847    2.2267   26.7842 O   0  0  0  0  0  0  0  0  0  0  0  0
   -1.7416   -2.5529   25.6312 C   0  0  0  0  0  0  0  0  0  0  0  0
   -0.7753   -2.5635   24.5179 N   0  0  0  0  0  0  0  0  0  0  0  0
  1  2  1  6  0  0  0
  1  7  1  0  0  0  0
  1 30  1  0  0  0  0
  3  4  1  1  0  0  0
  3  9  1  0  0  0  0
  3 39  1  0  0  0  0
  5 10  1  0  0  0  0
  5 26  1  0  0  0  0
  5 32  1  1  0  0  0
  6 12  1  0  0  0  0
  6 36  1  0  0  0  0
  6 19  1  1  0  0  0
  7  8  1  6  0  0  0
  7 14  1  0  0  0  0
  9 16  1  0  0  0  0
 10 11  1  6  0  0  0
 10 18  1  0  0  0  0
 12 13  1  1  0  0  0
 12 20  1  0  0  0  0
 14 15  1  6  0  0  0
 14 22  1  0  0  0  0
 16 17  1  1  0  0  0
 16 24  1  0  0  0  0
 18 19  1  6  0  0  0
 18 25  1  0  0  0  0
 20 21  1  6  0  0  0
 20 27  1  0  0  0  0
 22 23  1  6  0  0  0
 22 29  1  0  0  0  0
 24  2  1  6  0  0  0
 24 31  1  0  0  0  0
 25 26  1  0  0  0  0
 25 33  1  6  0  0  0
 27 28  1  1  0  0  0
 27 35  1  0  0  0  0
 29 30  1  0  0  0  0
 29 37  1  1  0  0  0
 31 32  1  1  0  0  0
 31 39  1  0  0  0  0
 33 34  1  0  0  0  0
 35 36  1  0  0  0  0
 35 41  1  1  0  0  0
 37 38  1  0  0  0  0
 39 40  1  6  0  0  0
 41 42  1  0  0  0  0
M  END
>  <CHROM.1>
-150.92108756,-30.59589203,-130.88566494,79.85835581,65.06395819,170.95379919
-154.95660196,-51.43592890,128.76378590,96.41945112,-57.94739256,24.42531104
89.02776708,148.80882356,-177.83968237,-39.76159560,-152.42880616,-72.54938438
-165.68706025,177.18570504,-55.20969078,-160.99783827,2.37870909,3.67792234
25.78838784,0.75783404,-0.46960350,-0.74997171

>  <Name>
1fyp_lig

>  <RI>
0

>  <Rbt.Current_Directory>
/home/itssahil/PROJECTS/Mol_Feturizer/New_Systems/rnas/1fyp

>  <Rbt.Executable>
rbdock ($Id: //depot/dev/client3/rdock/2013.1/src/exe/rbdock.cxx#4 $)

>  <Rbt.Library>
libRbt.so (2013.1, Build901 2013/11/27)

>  <Rbt.Parameter_File>
/export/apps/rDock/src/rDock_2013.1_src/data/scripts/dock_solv.prm

>  <Rbt.Receptor>
prm/pocket_docking_3.prm

>  <SCORE>
-53.1325

>  <SCORE.INTER>
-63.2494

>  <SCORE.INTER.CONST>
1

>  <SCORE.INTER.POLAR>
-9.18547

>  <SCORE.INTER.ROT>
14

>  <SCORE.INTER.SOLV>
22.186

>  <SCORE.INTER.VDW>
-31.8767

>  <SCORE.INTER.norm>
-1.50594

>  <SCORE.INTRA>
10.1169

>  <SCORE.INTRA.DIHEDRAL>
-6.01532

>  <SCORE.INTRA.DIHEDRAL.0>
48.7173

>  <SCORE.INTRA.POLAR>
1.32008

>  <SCORE.INTRA.POLAR.0>
-1.54691

>  <SCORE.INTRA.REPUL>
0.19051

>  <SCORE.INTRA.REPUL.0>
0

>  <SCORE.INTRA.SOLV>
-0.0734907

>  <SCORE.INTRA.SOLV.lig_0>
-64.052

>  <SCORE.INTRA.VDW>
7.7205

>  <SCORE.INTRA.VDW.0>
-7.0667

>  <SCORE.INTRA.norm>
0.240879

>  <SCORE.RESTR>
0

>  <SCORE.RESTR.CAVITY>
0

>  <SCORE.RESTR.norm>
0

>  <SCORE.SYSTEM>
0

>  <SCORE.SYSTEM.CONST>
0

>  <SCORE.SYSTEM.DIHEDRAL>
0

>  <SCORE.SYSTEM.SOLV>
0

>  <SCORE.SYSTEM.norm>
0

>  <SCORE.heavy>
42

>  <SCORE.norm>
-1.26506

>  <RMSD>
4.747

$$$$
1fyp_lig
 OpenBabel11021811393D
libRbt.so/2013.1/901 2013/11/27
 42 45  0  0  0  0  0  0  0  0999 V2000
    2.8812    7.1365   26.8297 C   0  0  2  0  0  0  0  0  0  0  0  0
    2.3158    5.9427   26.2153 O   0  0  0  0  0  0  0  0  0  0  0  0
    2.9423    3.2913   29.5044 C   0  0  2  0  0  0  0  0  0  0  0  0
    2.8440    2.2635   30.5572 N   0  0  0  0  0  0  0  0  0  0  0  0
    1.8412    2.2167   25.4421 C   0  0  1  0  0  0  0  0  0  0  0  0
   -1.4101   -0.7687   25.9411 C   0  0  1  0  0  0  0  0  0  0  0  0
    3.1760    8.2428   25.7660 C   0  0  2  0  0  0  0  0  0  0  0  0
    1.9959    8.4929   24.9112 N   0  0  0  0  0  0  0  0  0  0  0  0
    1.7183    4.2254   29.5836 C   0  0  0  0  0  0  0  0  0  0  0  0
    1.8736    1.0250   26.4026 C   0  0  2  0  0  0  0  0  0  0  0  0
    2.4774   -0.0947   25.7536 O   0  0  0  0  0  0  0  0  0  0  0  0
   -2.4365   -0.7833   24.7674 C   0  0  2  0  0  0  0  0  0  0  0  0
   -2.6601    0.5634   24.1871 N   0  0  0  0  0  0  0  0  0  0  0  0
    4.4079    7.8567   24.8889 C   0  0  1  0  0  0  0  0  0  0  0  0
    4.7615    8.9407   24.0335 O   0  0  0  0  0  0  0  0  0  0  0  0
    1.7696    5.3531   28.5168 C   0  0  2  0  0  0  0  0  0  0  0  0
    0.5207    6.1353   28.6265 N   0  0  0  0  0  0  0  0  0  0  0  0
    0.3825    0.7844   26.6540 C   0  0  2  0  0  0  0  0  0  0  0  0
   -0.2221   -0.0097   25.5956 O   0  0  0  0  0  0  0  0  0  0  0  0
   -3.7799   -1.4395   25.2123 C   0  0  1  0  0  0  0  0  0  0  0  0
   -3.5809   -2.8469   25.3268 O   0  0  0  0  0  0  0  0  0  0  0  0
    5.6395    7.4903   25.7545 C   0  0  2  0  0  0  0  0  0  0  0  0
    6.6958    7.0595   24.9016 O   0  0  0  0  0  0  0  0  0  0  0  0
    1.9773    4.8049   27.0593 C   0  0  2  0  0  0  0  0  0  0  0  0
   -0.1799    2.2127   26.6455 C   0  0  2  0  0  0  0  0  0  0  0  0
    0.6431    2.9567   25.7263 O   0  0  0  0  0  0  0  0  0  0  0  0
   -4.3259   -0.9117   26.5736 C   0  0  2  0  0  0  0  0  0  0  0  0
   -4.8369    0.4077   26.3771 O   0  0  0  0  0  0  0  0  0  0  0  0
    5.2706    6.3761   26.7746 C   0  0  2  0  0  0  0  0  0  0  0  0
    4.1136    6.8051   27.5538 O   0  0  0  0  0  0  0  0  0  0  0  0
    3.1207    3.7306   26.9671 C   0  0  2  0  0  0  0  0  0  0  0  0
    3.0049    3.0568   25.6868 O   0  0  0  0  0  0  0  0  0  0  0  0
   -0.1574    2.8779   28.0332 C   0  0  0  0  0  0  0  0  0  0  0  0
   -1.2700    3.7396   28.1983 O   0  0  0  0  0  0  0  0  0  0  0  0
   -3.2004   -0.8983   27.6541 C   0  0  1  0  0  0  0  0  0  0  0  0
   -2.0330   -0.1892   27.1375 O   0  0  0  0  0  0  0  0  0  0  0  0
    6.3836    6.0311   27.7891 C   0  0  0  0  0  0  0  0  0  0  0  0
    5.8548    5.3813   28.9326 O   0  0  0  0  0  0  0  0  0  0  0  0
    3.0395    2.6567   28.0961 C   0  0  1  0  0  0  0  0  0  0  0  0
    4.2039    1.8346   28.0326 O   0  0  0  0  0  0  0  0  0  0  0  0
   -3.6514   -0.2318   28.9791 C   0  0  0  0  0  0  0  0  0  0  0  0
   -2.5287    0.3811   29.7118 N   0  0  0  0  0  0  0  0  0  0  0  0
  1  2  1  6  0  0  0
  1  7  1  0  0  0  0
  1 30  1  0  0  0  0
  3  4  1  1  0  0  0
  3  9  1  0  0  0  0
  3 39  1  0  0  0  0
  5 10  1  0  0  0  0
  5 26  1  0  0  0  0
  5 32  1  1  0  0  0
  6 12  1  0  0  0  0
  6 36  1  0  0  0  0
  6 19  1  6  0  0  0
  7  8  1  6  0  0  0
  7 14  1  0  0  0  0
  9 16  1  0  0  0  0
 10 11  1  6  0  0  0
 10 18  1  0  0  0  0
 12 13  1  1  0  0  0
 12 20  1  0  0  0  0
 14 15  1  6  0  0  0
 14 22  1  0  0  0  0
 16 17  1  6  0  0  0
 16 24  1  0  0  0  0
 18 19  1  6  0  0  0
 18 25  1  0  0  0  0
 20 21  1  1  0  0  0
 20 27  1  0  0  0  0
 22 23  1  6  0  0  0
 22 29  1  0  0  0  0
 24  2  1  6  0  0  0
 24 31  1  0  0  0  0
 25 26  1  0  0  0  0
 25 33  1  1  0  0  0
 27 28  1  6  0  0  0
 27 35  1  0  0  0  0
 29 30  1  0  0  0  0
 29 37  1  1  0  0  0
 31 32  1  6  0  0  0
 31 39  1  0  0  0  0
 33 34  1  0  0  0  0
 35 36  1  0  0  0  0
 35 41  1  1  0  0  0
 37 38  1  0  0  0  0
 39 40  1  1  0  0  0
 41 42  1  0  0  0  0
M  END
>  <CHROM.1>
-179.98877337,22.80397060,-168.45974492,-70.86615747,-34.48824836,-73.09312499
65.73362156,77.33709839,154.98515488,142.79090726,167.39398256,-50.13985160
-146.07086686,59.86075859,159.80200193,-66.94772948,-64.98615196,-138.31892214
-151.57287601,66.62457141,170.86781261,-49.85874420,1.18469773,3.15008263
26.83594425,0.47526629,-0.65730115,-0.88063000

>  <Name>
1fyp_lig

>  <RI>
0

>  <Rbt.Current_Directory>
/home/itssahil/PROJECTS/Mol_Feturizer/New_Systems/rnas/1fyp

>  <Rbt.Executable>
rbdock ($Id: //depot/dev/client3/rdock/2013.1/src/exe/rbdock.cxx#4 $)

>  <Rbt.Library>
libRbt.so (2013.1, Build901 2013/11/27)

>  <Rbt.Parameter_File>
/export/apps/rDock/src/rDock_2013.1_src/data/scripts/dock_solv.prm

>  <Rbt.Receptor>
prm/pocket_docking_4.prm

>  <SCORE>
-44.0973

>  <SCORE.INTER>
-48.6448

>  <SCORE.INTER.CONST>
1

>  <SCORE.INTER.POLAR>
-7.098

>  <SCORE.INTER.ROT>
14

>  <SCORE.INTER.SOLV>
13.4618

>  <SCORE.INTER.VDW>
-26.1905

>  <SCORE.INTER.norm>
-1.15821

>  <SCORE.INTRA>
4.40633

>  <SCORE.INTRA.DIHEDRAL>
-16.7919

>  <SCORE.INTRA.DIHEDRAL.0>
48.7173

>  <SCORE.INTRA.POLAR>
0.460116

>  <SCORE.INTRA.POLAR.0>
-1.54691

>  <SCORE.INTRA.REPUL>
0

>  <SCORE.INTRA.REPUL.0>
0

>  <SCORE.INTRA.SOLV>
1.09824

>  <SCORE.INTRA.SOLV.lig_0>
-64.052

>  <SCORE.INTRA.VDW>
10.6888

>  <SCORE.INTRA.VDW.0>
-7.0667

>  <SCORE.INTRA.norm>
0.104913

>  <SCORE.RESTR>
0.141168

>  <SCORE.RESTR.CAVITY>
0.141168

>  <SCORE.RESTR.norm>
0.00336115

>  <SCORE.SYSTEM>
0

>  <SCORE.SYSTEM.CONST>
0

>  <SCORE.SYSTEM.DIHEDRAL>
0

>  <SCORE.SYSTEM.SOLV>
0

>  <SCORE.SYSTEM.norm>
0

>  <SCORE.heavy>
42

>  <SCORE.norm>
-1.04994

>  <RMSD>
4.750

$$$$
1fyp_lig
 OpenBabel11021811393D
libRbt.so/2013.1/901 2013/11/27
 42 45  0  0  0  0  0  0  0  0999 V2000
    4.9415    7.6606   25.5229 C   0  0  2  0  0  0  0  0  0  0  0  0
    4.9249    6.2052   25.4599 O   0  0  0  0  0  0  0  0  0  0  0  0
    6.2139    2.6975   27.5277 C   0  0  2  0  0  0  0  0  0  0  0  0
    6.6696    1.6988   28.5123 N   0  0  0  0  0  0  0  0  0  0  0  0
    1.7740    4.2127   26.6433 C   0  0  1  0  0  0  0  0  0  0  0  0
   -0.4367    1.0338   25.1370 C   0  0  1  0  0  0  0  0  0  0  0  0
    3.6074    8.2233   26.1107 C   0  0  2  0  0  0  0  0  0  0  0  0
    3.2598    7.5581   27.3844 N   0  0  0  0  0  0  0  0  0  0  0  0
    7.1655    3.9104   27.5493 C   0  0  0  0  0  0  0  0  0  0  0  0
    1.6907    2.7084   26.9149 C   0  0  2  0  0  0  0  0  0  0  0  0
    2.2256    1.9921   25.8011 O   0  0  0  0  0  0  0  0  0  0  0  0
   -1.5578    0.8818   24.0640 C   0  0  2  0  0  0  0  0  0  0  0  0
   -2.8745    1.3720   24.5398 N   0  0  0  0  0  0  0  0  0  0  0  0
    2.4406    8.0726   25.0851 C   0  0  1  0  0  0  0  0  0  0  0  0
    1.2724    8.7304   25.5692 O   0  0  0  0  0  0  0  0  0  0  0  0
    6.7599    4.9942   26.5134 C   0  0  2  0  0  0  0  0  0  0  0  0
    7.6814    6.1384   26.6728 N   0  0  0  0  0  0  0  0  0  0  0  0
    0.1796    2.4953   27.0391 C   0  0  2  0  0  0  0  0  0  0  0  0
   -0.4546    2.3552   25.7373 O   0  0  0  0  0  0  0  0  0  0  0  0
   -1.6492   -0.5919   23.5609 C   0  0  1  0  0  0  0  0  0  0  0  0
   -0.5266   -0.8550   22.7218 O   0  0  0  0  0  0  0  0  0  0  0  0
    2.8065    8.6715   23.7038 C   0  0  2  0  0  0  0  0  0  0  0  0
    1.7422    8.4200   22.7913 O   0  0  0  0  0  0  0  0  0  0  0  0
    5.2603    5.4412   26.6538 C   0  0  2  0  0  0  0  0  0  0  0  0
   -0.2732    3.7928   27.7231 C   0  0  2  0  0  0  0  0  0  0  0  0
    0.6279    4.8184   27.2624 O   0  0  0  0  0  0  0  0  0  0  0  0
   -1.6649   -1.6540   24.7018 C   0  0  2  0  0  0  0  0  0  0  0  0
   -2.9407   -1.6129   25.3431 O   0  0  0  0  0  0  0  0  0  0  0  0
    4.1337    8.0523   23.1810 C   0  0  2  0  0  0  0  0  0  0  0  0
    5.1735    8.2282   24.1898 O   0  0  0  0  0  0  0  0  0  0  0  0
    4.2706    4.2279   26.7899 C   0  0  2  0  0  0  0  0  0  0  0  0
    2.9907    4.7383   27.2459 O   0  0  0  0  0  0  0  0  0  0  0  0
   -0.2378    3.7087   29.2595 C   0  0  0  0  0  0  0  0  0  0  0  0
   -1.1103    2.6962   29.7300 O   0  0  0  0  0  0  0  0  0  0  0  0
   -0.5321   -1.3719   25.7369 C   0  0  1  0  0  0  0  0  0  0  0  0
   -0.6089    0.0169   26.1818 O   0  0  0  0  0  0  0  0  0  0  0  0
    4.6727    8.6803   21.8763 C   0  0  0  0  0  0  0  0  0  0  0  0
    6.0662    8.4610   21.7367 O   0  0  0  0  0  0  0  0  0  0  0  0
    4.7618    3.1531   27.8088 C   0  0  1  0  0  0  0  0  0  0  0  0
    3.8944    2.0225   27.7373 O   0  0  0  0  0  0  0  0  0  0  0  0
   -0.6065   -2.3038   26.9736 C   0  0  0  0  0  0  0  0  0  0  0  0
   -1.7222   -1.9582   27.8729 N   0  0  0  0  0  0  0  0  0  0  0  0
  1  2  1  6  0  0  0
  1  7  1  0  0  0  0
  1 30  1  0  0  0  0
  3  4  1  1  0  0  0
  3  9  1  0  0  0  0
  3 39  1  0  0  0  0
  5 10  1  0  0  0  0
  5 26  1  0  0  0  0
  5 32  1  1  0  0  0
  6 12  1  0  0  0  0
  6 36  1  0  0  0  0
  6 19  1  1  0  0  0
  7  8  1  1  0  0  0
  7 14  1  0  0  0  0
  9 16  1  0  0  0  0
 10 11  1  6  0  0  0
 10 18  1  0  0  0  0
 12 13  1  1  0  0  0
 12 20  1  0  0  0  0
 14 15  1  1  0  0  0
 14 22  1  0  0  0  0
 16 17  1  1  0  0  0
 16 24  1  0  0  0  0
 18 19  1  6  0  0  0
 18 25  1  0  0  0  0
 20 21  1  6  0  0  0
 20 27  1  0  0  0  0
 22 23  1  6  0  0  0
 22 29  1  0  0  0  0
 24  2  1  6  0  0  0
 24 31  1  0  0  0  0
 25 26  1  0  0  0  0
 25 33  1  1  0  0  0
 27 28  1  1  0  0  0
 27 35  1  0  0  0  0
 29 30  1  0  0  0  0
 29 37  1  6  0  0  0
 31 32  1  1  0  0  0
 31 39  1  0  0  0  0
 33 34  1  0  0  0  0
 35 36  1  0  0  0  0
 35 41  1  1  0  0  0
 37 38  1  0  0  0  0
 39 40  1  6  0  0  0
 41 42  1  0  0  0  0
M  END
>  <CHROM.1>
-82.87662125,-99.20224978,35.56148721,89.76012908,86.88982941,70.10533773
-75.94950549,64.30188240,83.97709075,158.68806466,60.11534579,173.21225930
-61.20720658,-36.49673051,157.49538059,138.02074333,61.25989327,-175.04537228
-72.96607366,-45.51013642,67.50130983,27.68450409,2.11586659,3.75729254,25.91860653
0.79401279,-0.48591114,-0.54950772

>  <Name>
1fyp_lig

>  <RI>
0

>  <Rbt.Current_Directory>
/home/itssahil/PROJECTS/Mol_Feturizer/New_Systems/rnas/1fyp

>  <Rbt.Executable>
rbdock ($Id: //depot/dev/client3/rdock/2013.1/src/exe/rbdock.cxx#4 $)

>  <Rbt.Library>
libRbt.so (2013.1, Build901 2013/11/27)

>  <Rbt.Parameter_File>
/export/apps/rDock/src/rDock_2013.1_src/data/scripts/dock_solv.prm

>  <Rbt.Receptor>
prm/blind_docking_60.prm

>  <SCORE>
-2.43089

>  <SCORE.INTER>
-3.07234

>  <SCORE.INTER.CONST>
1

>  <SCORE.INTER.POLAR>
-2.53482

>  <SCORE.INTER.ROT>
14

>  <SCORE.INTER.SOLV>
23.1448

>  <SCORE.INTER.VDW>
-14.2471

>  <SCORE.INTER.norm>
-0.073151

>  <SCORE.INTRA>
0.145241

>  <SCORE.INTRA.DIHEDRAL>
-16.8423

>  <SCORE.INTRA.DIHEDRAL.0>
48.7173

>  <SCORE.INTRA.POLAR>
-0.331143

>  <SCORE.INTRA.POLAR.0>
-1.54691

>  <SCORE.INTRA.REPUL>
0.566732

>  <SCORE.INTRA.REPUL.0>
0

>  <SCORE.INTRA.SOLV>
-0.356575

>  <SCORE.INTRA.SOLV.lig_0>
-64.052

>  <SCORE.INTRA.VDW>
7.03688

>  <SCORE.INTRA.VDW.0>
-7.0667

>  <SCORE.INTRA.norm>
0.00345811

>  <SCORE.RESTR>
0.496212

>  <SCORE.RESTR.CAVITY>
0.496212

>  <SCORE.RESTR.norm>
0.0118146

>  <SCORE.SYSTEM>
0

>  <SCORE.SYSTEM.CONST>
0

>  <SCORE.SYSTEM.DIHEDRAL>
0

>  <SCORE.SYSTEM.SOLV>
0

>  <SCORE.SYSTEM.norm>
0

>  <SCORE.heavy>
42

>  <SCORE.norm>
-0.0578783

>  <RMSD>
4.772

$$$$
1fyp_lig
 OpenBabel11021811393D
libRbt.so/2013.1/901 2013/11/27
 42 45  0  0  0  0  0  0  0  0999 V2000
    3.7130    7.4706   25.9527 C   0  0  2  0  0  0  0  0  0  0  0  0
    3.8324    6.0220   26.0519 O   0  0  0  0  0  0  0  0  0  0  0  0
    4.8445    4.8818   30.0414 C   0  0  2  0  0  0  0  0  0  0  0  0
    4.8639    4.3913   31.4319 N   0  0  0  0  0  0  0  0  0  0  0  0
    2.8642    2.6776   26.6783 C   0  0  1  0  0  0  0  0  0  0  0  0
   -0.6257    0.1118   25.6717 C   0  0  1  0  0  0  0  0  0  0  0  0
    2.6058    7.8850   24.9307 C   0  0  2  0  0  0  0  0  0  0  0  0
    1.3342    7.1818   25.2032 N   0  0  0  0  0  0  0  0  0  0  0  0
    3.7075    5.9098   29.8760 C   0  0  0  0  0  0  0  0  0  0  0  0
    2.7525    1.3994   25.8432 C   0  0  2  0  0  0  0  0  0  0  0  0
    2.3865    1.7348   24.5041 O   0  0  0  0  0  0  0  0  0  0  0  0
   -0.4174   -0.2153   24.1615 C   0  0  2  0  0  0  0  0  0  0  0  0
   -0.2995    1.0032   23.3239 N   0  0  0  0  0  0  0  0  0  0  0  0
    3.0715    7.6137   23.4659 C   0  0  1  0  0  0  0  0  0  0  0  0
    2.1221    8.1408   22.5426 O   0  0  0  0  0  0  0  0  0  0  0  0
    3.6453    6.4909   28.4369 C   0  0  2  0  0  0  0  0  0  0  0  0
    2.4800    7.3968   28.3659 N   0  0  0  0  0  0  0  0  0  0  0  0
    1.6219    0.6550   26.5587 C   0  0  2  0  0  0  0  0  0  0  0  0
    0.3123    1.1206   26.1289 O   0  0  0  0  0  0  0  0  0  0  0  0
   -1.5441   -1.1577   23.6365 C   0  0  1  0  0  0  0  0  0  0  0  0
   -1.3225   -2.4652   24.1608 O   0  0  0  0  0  0  0  0  0  0  0  0
    4.4518    8.2532   23.1723 C   0  0  2  0  0  0  0  0  0  0  0  0
    4.8610    7.8924   21.8566 O   0  0  0  0  0  0  0  0  0  0  0  0
    3.5741    5.3765   27.3318 C   0  0  2  0  0  0  0  0  0  0  0  0
    1.8713    1.0259   28.0273 C   0  0  2  0  0  0  0  0  0  0  0  0
    2.4362    2.3513   28.0103 O   0  0  0  0  0  0  0  0  0  0  0  0
   -2.9838   -0.7107   24.0330 C   0  0  2  0  0  0  0  0  0  0  0  0
   -3.3369    0.4307   23.2499 O   0  0  0  0  0  0  0  0  0  0  0  0
    5.4996    7.7818   24.2202 C   0  0  2  0  0  0  0  0  0  0  0  0
    4.9961    8.0645   25.5605 O   0  0  0  0  0  0  0  0  0  0  0  0
    4.6215    4.2262   27.5548 C   0  0  2  0  0  0  0  0  0  0  0  0
    4.2542    3.1099   26.7030 O   0  0  0  0  0  0  0  0  0  0  0  0
    2.8264    0.0529   28.7412 C   0  0  0  0  0  0  0  0  0  0  0  0
    3.0201    0.4351   30.0918 O   0  0  0  0  0  0  0  0  0  0  0  0
   -3.0578   -0.3652   25.5527 C   0  0  1  0  0  0  0  0  0  0  0  0
   -1.9990    0.5814   25.8926 O   0  0  0  0  0  0  0  0  0  0  0  0
    6.8794    8.4685   24.1121 C   0  0  0  0  0  0  0  0  0  0  0  0
    6.7479    9.8361   23.7628 O   0  0  0  0  0  0  0  0  0  0  0  0
    4.6678    3.7229   29.0310 C   0  0  1  0  0  0  0  0  0  0  0  0
    5.7553    2.8100   29.1710 O   0  0  0  0  0  0  0  0  0  0  0  0
   -4.4258    0.2376   25.9631 C   0  0  0  0  0  0  0  0  0  0  0  0
   -5.5187   -0.7495   25.8972 N   0  0  0  0  0  0  0  0  0  0  0  0
  1  2  1  6  0  0  0
  1  7  1  0  0  0  0
  1 30  1  0  0  0  0
  3  4  1  1  0  0  0
  3  9  1  0  0  0  0
  3 39  1  0  0  0  0
  5 10  1  0  0  0  0
  5 26  1  0  0  0  0
  5 32  1  1  0  0  0
  6 12  1  0  0  0  0
  6 36  1  0  0  0  0
  6 19  1  6  0  0  0
  7  8  1  1  0  0  0
  7 14  1  0  0  0  0
  9 16  1  0  0  0  0
 10 11  1  6  0  0  0
 10 18  1  0  0  0  0
 12 13  1  6  0  0  0
 12 20  1  0  0  0  0
 14 15  1  6  0  0  0
 14 22  1  0  0  0  0
 16 17  1  1  0  0  0
 16 24  1  0  0  0  0
 18 19  1  6  0  0  0
 18 25  1  0  0  0  0
 20 21  1  1  0  0  0
 20 27  1  0  0  0  0
 22 23  1  6  0  0  0
 22 29  1  0  0  0  0
 24  2  1  6  0  0  0
 24 31  1  0  0  0  0
 25 26  1  0  0  0  0
 25 33  1  6  0  0  0
 27 28  1  6  0  0  0
 27 35  1  0  0  0  0
 29 30  1  0  0  0  0
 29 37  1  6  0  0  0
 31 32  1  6  0  0  0
 31 39  1  0  0  0  0
 33 34  1  0  0  0  0
 35 36  1  0  0  0  0
 35 41  1  6  0  0  0
 37 38  1  0  0  0  0
 39 40  1  6  0  0  0
 41 42  1  0  0  0  0
M  END
>  <CHROM.1>
-118.54186671,-17.24151707,-63.94832026,-24.99772865,72.95340964,85.26564314
56.95125884,-71.19432861,127.14584824,-85.43340023,-60.84557789,50.03442934
-179.79760226,-50.45806171,37.20597287,-46.81398540,-173.56778165,-83.16506419
69.10745834,59.82399806,177.05465268,-113.45217167,2.06685926,3.60682645
26.04671220,0.48894994,-0.74380782,-0.85304273

>  <Name>
1fyp_lig

>  <RI>
0

>  <Rbt.Current_Directory>
/home/itssahil/PROJECTS/Mol_Feturizer/New_Systems/rnas/1fyp

>  <Rbt.Executable>
rbdock ($Id: //depot/dev/client3/rdock/2013.1/src/exe/rbdock.cxx#4 $)

>  <Rbt.Library>
libRbt.so (2013.1, Build901 2013/11/27)

>  <Rbt.Parameter_File>
/export/apps/rDock/src/rDock_2013.1_src/data/scripts/dock_solv.prm

>  <Rbt.Receptor>
prm/blind_docking_100.prm

>  <SCORE>
-49.1301

>  <SCORE.INTER>
-47.3333

>  <SCORE.INTER.CONST>
1

>  <SCORE.INTER.POLAR>
-6.07018

>  <SCORE.INTER.ROT>
14

>  <SCORE.INTER.SOLV>
21.9469

>  <SCORE.INTER.VDW>
-31.5706

>  <SCORE.INTER.norm>
-1.12698

>  <SCORE.INTRA>
-1.79685

>  <SCORE.INTRA.DIHEDRAL>
-13.8635

>  <SCORE.INTRA.DIHEDRAL.0>
48.7173

>  <SCORE.INTRA.POLAR>
0.0996752

>  <SCORE.INTRA.POLAR.0>
-1.54691

>  <SCORE.INTRA.REPUL>
0

>  <SCORE.INTRA.REPUL.0>
0

>  <SCORE.INTRA.SOLV>
-1.20102

>  <SCORE.INTRA.SOLV.lig_0>
-64.052

>  <SCORE.INTRA.VDW>
5.3965

>  <SCORE.INTRA.VDW.0>
-7.0667

>  <SCORE.INTRA.norm>
-0.0427822

>  <SCORE.RESTR>
0

>  <SCORE.RESTR.CAVITY>
0

>  <SCORE.RESTR.norm>
0

>  <SCORE.SYSTEM>
0

>  <SCORE.SYSTEM.CONST>
0

>  <SCORE.SYSTEM.DIHEDRAL>
0

>  <SCORE.SYSTEM.SOLV>
0

>  <SCORE.SYSTEM.norm>
0

>  <SCORE.heavy>
42

>  <SCORE.norm>
-1.16977

>  <RMSD>
4.774

$$$$
1fyp_lig
 OpenBabel11021811393D
libRbt.so/2013.1/901 2013/11/27
 42 45  0  0  0  0  0  0  0  0999 V2000
    9.1152    8.5815   29.3744 C   0  0  2  0  0  0  0  0  0  0  0  0
   10.0650    8.8057   28.2927 O   0  0  0  0  0  0  0  0  0  0  0  0
    7.8715    9.3622   24.6706 C   0  0  2  0  0  0  0  0  0  0  0  0
    7.3269    9.3112   23.3012 N   0  0  0  0  0  0  0  0  0  0  0  0
    6.6511    6.2560   27.6936 C   0  0  1  0  0  0  0  0  0  0  0  0
    3.1826    3.7173   28.5967 C   0  0  1  0  0  0  0  0  0  0  0  0
    9.2854    9.6377   30.5135 C   0  0  2  0  0  0  0  0  0  0  0  0
    9.2862   11.0138   29.9732 N   0  0  0  0  0  0  0  0  0  0  0  0
    9.3936    9.5993   24.6088 C   0  0  0  0  0  0  0  0  0  0  0  0
    6.6323    4.7576   27.3802 C   0  0  2  0  0  0  0  0  0  0  0  0
    6.2009    4.5571   26.0337 O   0  0  0  0  0  0  0  0  0  0  0  0
    3.2632    2.1793   28.3534 C   0  0  2  0  0  0  0  0  0  0  0  0
    3.4377    1.8358   26.9210 N   0  0  0  0  0  0  0  0  0  0  0  0
   10.5919    9.3740   31.3257 C   0  0  1  0  0  0  0  0  0  0  0  0
   10.6527   10.2424   32.4545 O   0  0  0  0  0  0  0  0  0  0  0  0
   10.0320    9.6916   26.0218 C   0  0  2  0  0  0  0  0  0  0  0  0
   11.4923    9.8369   25.8488 N   0  0  0  0  0  0  0  0  0  0  0  0
    5.5935    4.2413   28.3795 C   0  0  2  0  0  0  0  0  0  0  0  0
    4.2359    4.4210   27.8883 O   0  0  0  0  0  0  0  0  0  0  0  0
    2.0242    1.4545   28.9637 C   0  0  1  0  0  0  0  0  0  0  0  0
    2.1589    1.4437   30.3833 O   0  0  0  0  0  0  0  0  0  0  0  0
   10.6741    7.9099   31.8255 C   0  0  2  0  0  0  0  0  0  0  0  0
   11.9257    7.7099   32.4753 O   0  0  0  0  0  0  0  0  0  0  0  0
    9.6816    8.4592   26.9310 C   0  0  2  0  0  0  0  0  0  0  0  0
    5.8486    5.1363   29.6003 C   0  0  2  0  0  0  0  0  0  0  0  0
    6.2910    6.4035   29.0765 O   0  0  0  0  0  0  0  0  0  0  0  0
    0.6594    2.1186   28.6083 C   0  0  2  0  0  0  0  0  0  0  0  0
    0.3624    1.8413   27.2388 O   0  0  0  0  0  0  0  0  0  0  0  0
   10.5115    6.9227   30.6351 C   0  0  2  0  0  0  0  0  0  0  0  0
    9.2747    7.2304   29.9241 O   0  0  0  0  0  0  0  0  0  0  0  0
    8.1543    8.0899   26.8987 C   0  0  2  0  0  0  0  0  0  0  0  0
    7.9967    6.7697   27.4808 O   0  0  0  0  0  0  0  0  0  0  0  0
    6.9067    4.5616   30.5588 C   0  0  0  0  0  0  0  0  0  0  0  0
    6.8730    5.2299   31.8077 O   0  0  0  0  0  0  0  0  0  0  0  0
    0.7146    3.6596   28.8463 C   0  0  1  0  0  0  0  0  0  0  0  0
    1.8747    4.2208   28.1594 O   0  0  0  0  0  0  0  0  0  0  0  0
   10.4328    5.4323   31.0344 C   0  0  0  0  0  0  0  0  0  0  0  0
    9.7135    5.2604   32.2437 O   0  0  0  0  0  0  0  0  0  0  0  0
    7.5649    8.0632   25.4543 C   0  0  1  0  0  0  0  0  0  0  0  0
    6.1512    7.8900   25.5383 O   0  0  0  0  0  0  0  0  0  0  0  0
   -0.5638    4.3866   28.3560 C   0  0  0  0  0  0  0  0  0  0  0  0
   -1.7180    4.1564   29.2436 N   0  0  0  0  0  0  0  0  0  0  0  0
  1  2  1  6  0  0  0
  1  7  1  0  0  0  0
  1 30  1  0  0  0  0
  3  4  1  6  0  0  0
  3  9  1  0  0  0  0
  3 39  1  0  0  0  0
  5 10  1  0  0  0  0
  5 26  1  0  0  0  0
  5 32  1  1  0  0  0
  6 12  1  0  0  0  0
  6 36  1  0  0  0  0
  6 19  1  6  0  0  0
  7  8  1  6  0  0  0
  7 14  1  0  0  0  0
  9 16  1  0  0  0  0
 10 11  1  6  0  0  0
 10 18  1  0  0  0  0
 12 13  1  6  0  0  0
 12 20  1  0  0  0  0
 14 15  1  1  0  0  0
 14 22  1  0  0  0  0
 16 17  1  6  0  0  0
 16 24  1  0  0  0  0
 18 19  1  6  0  0  0
 18 25  1  0  0  0  0
 20 21  1  1  0  0  0
 20 27  1  0  0  0  0
 22 23  1  6  0  0  0
 22 29  1  0  0  0  0
 24  2  1  1  0  0  0
 24 31  1  0  0  0  0
 25 26  1  0  0  0  0
 25 33  1  1  0  0  0
 27 28  1  6  0  0  0
 27 35  1  0  0  0  0
 29 30  1  0  0  0  0
 29 37  1  1  0  0  0
 31 32  1  6  0  0  0
 31 39  1  0  0  0  0
 33 34  1  0  0  0  0
 35 36  1  0  0  0  0
 35 41  1  6  0  0  0
 37 38  1  0  0  0  0
 39 40  1  1  0  0  0
 41 42  1  0  0  0  0
M  END
>  <CHROM.1>
-148.44110369,131.39316643,-71.68382273,34.10458432,-67.19880890,44.06552039
-174.55050496,-169.88039163,166.89958188,-70.12433052,61.64055570,178.66651053
-165.53724003,62.67562816,36.96739538,173.69982391,141.92440578,64.31463185
73.83042677,63.62400443,-52.98174289,-119.85910927,6.60293813,6.22152220
28.57116140,-0.17386375,0.58297916,1.98664333

>  <Name>
1fyp_lig

>  <RI>
0

>  <Rbt.Current_Directory>
/home/itssahil/PROJECTS/Mol_Feturizer/New_Systems/rnas/1fyp

>  <Rbt.Executable>
rbdock ($Id: //depot/dev/client3/rdock/2013.1/src/exe/rbdock.cxx#4 $)

>  <Rbt.Library>
libRbt.so (2013.1, Build901 2013/11/27)

>  <Rbt.Parameter_File>
/export/apps/rDock/src/rDock_2013.1_src/data/scripts/dock_solv.prm

>  <Rbt.Receptor>
prm/pocket_docking_7.prm

>  <SCORE>
-46.4405

>  <SCORE.INTER>
-39.5966

>  <SCORE.INTER.CONST>
1

>  <SCORE.INTER.POLAR>
-5.43697

>  <SCORE.INTER.ROT>
14

>  <SCORE.INTER.SOLV>
13.1657

>  <SCORE.INTER.VDW>
-25.5964

>  <SCORE.INTER.norm>
-0.942776

>  <SCORE.INTRA>
-6.84392

>  <SCORE.INTRA.DIHEDRAL>
-22.9036

>  <SCORE.INTRA.DIHEDRAL.0>
48.7173

>  <SCORE.INTRA.POLAR>
0.312778

>  <SCORE.INTRA.POLAR.0>
-1.54691

>  <SCORE.INTRA.REPUL>
0

>  <SCORE.INTRA.REPUL.0>
0

>  <SCORE.INTRA.SOLV>
-1.11694

>  <SCORE.INTRA.SOLV.lig_0>
-64.052

>  <SCORE.INTRA.VDW>
4.10292

>  <SCORE.INTRA.VDW.0>
-7.0667

>  <SCORE.INTRA.norm>
-0.16295

>  <SCORE.RESTR>
0

>  <SCORE.RESTR.CAVITY>
0

>  <SCORE.RESTR.norm>
0

>  <SCORE.SYSTEM>
0

>  <SCORE.SYSTEM.CONST>
0

>  <SCORE.SYSTEM.DIHEDRAL>
0

>  <SCORE.SYSTEM.SOLV>
0

>  <SCORE.SYSTEM.norm>
0

>  <SCORE.heavy>
42

>  <SCORE.norm>
-1.10573

>  <RMSD>
4.783

$$$$
1fyp_lig
 OpenBabel11021811393D
libRbt.so/2013.1/901 2013/11/27
 42 45  0  0  0  0  0  0  0  0999 V2000
    6.1703    6.5054   26.1177 C   0  0  2  0  0  0  0  0  0  0  0  0
    5.8402    7.3588   27.2514 O   0  0  0  0  0  0  0  0  0  0  0  0
    7.6335    4.9836   30.3146 C   0  0  2  0  0  0  0  0  0  0  0  0
    8.0246    4.3240   31.5741 N   0  0  0  0  0  0  0  0  0  0  0  0
    4.0622    3.6798   27.6204 C   0  0  1  0  0  0  0  0  0  0  0  0
    1.4033    0.4356   26.3687 C   0  0  1  0  0  0  0  0  0  0  0  0
    7.5091    6.9442   25.4416 C   0  0  2  0  0  0  0  0  0  0  0  0
    8.5918    7.0863   26.4383 N   0  0  0  0  0  0  0  0  0  0  0  0
    7.6759    6.5133   30.5021 C   0  0  0  0  0  0  0  0  0  0  0  0
    2.5462    3.4707   27.6615 C   0  0  2  0  0  0  0  0  0  0  0  0
    2.2085    2.6447   28.7765 O   0  0  0  0  0  0  0  0  0  0  0  0
    0.8766    0.3105   24.9065 C   0  0  2  0  0  0  0  0  0  0  0  0
    0.7424    1.6252   24.2329 N   0  0  0  0  0  0  0  0  0  0  0  0
    7.3223    8.2771   24.6513 C   0  0  1  0  0  0  0  0  0  0  0  0
    8.5030    8.5802   23.9125 O   0  0  0  0  0  0  0  0  0  0  0  0
    7.3002    7.2755   29.2020 C   0  0  2  0  0  0  0  0  0  0  0  0
    7.2930    8.7204   29.5118 N   0  0  0  0  0  0  0  0  0  0  0  0
    2.2934    2.7465   26.3363 C   0  0  2  0  0  0  0  0  0  0  0  0
    2.5525    1.3190   26.4434 O   0  0  0  0  0  0  0  0  0  0  0  0
   -0.4629   -0.4876   24.8647 C   0  0  1  0  0  0  0  0  0  0  0  0
   -0.1774   -1.8653   25.0973 O   0  0  0  0  0  0  0  0  0  0  0  0
    6.1301    8.1999   23.6649 C   0  0  2  0  0  0  0  0  0  0  0  0
    5.9554    9.4709   23.0463 O   0  0  0  0  0  0  0  0  0  0  0  0
    5.9261    6.8112   28.5983 C   0  0  2  0  0  0  0  0  0  0  0  0
    3.3165    3.4124   25.4055 C   0  0  2  0  0  0  0  0  0  0  0  0
    4.4408    3.7596   26.2369 O   0  0  0  0  0  0  0  0  0  0  0  0
   -1.5138   -0.0227   25.9181 C   0  0  2  0  0  0  0  0  0  0  0  0
   -2.0502    1.2337   25.5005 O   0  0  0  0  0  0  0  0  0  0  0  0
    4.8359    7.7731   24.4139 C   0  0  2  0  0  0  0  0  0  0  0  0
    5.0864    6.5257   25.1289 O   0  0  0  0  0  0  0  0  0  0  0  0
    5.7836    5.2473   28.5338 C   0  0  2  0  0  0  0  0  0  0  0  0
    4.3883    4.9308   28.2900 O   0  0  0  0  0  0  0  0  0  0  0  0
    2.7674    4.6688   24.7064 C   0  0  0  0  0  0  0  0  0  0  0  0
    2.3551    5.6359   25.6563 O   0  0  0  0  0  0  0  0  0  0  0  0
   -0.8616    0.1121   27.3290 C   0  0  1  0  0  0  0  0  0  0  0  0
    0.3354    0.9436   27.2387 O   0  0  0  0  0  0  0  0  0  0  0  0
    3.6123    7.5232   23.5042 C   0  0  0  0  0  0  0  0  0  0  0  0
    3.8543    6.4624   22.5956 O   0  0  0  0  0  0  0  0  0  0  0  0
    6.2239    4.5411   29.8536 C   0  0  1  0  0  0  0  0  0  0  0  0
    6.2223    3.1301   29.6420 O   0  0  0  0  0  0  0  0  0  0  0  0
   -1.8252    0.7252   28.3772 C   0  0  0  0  0  0  0  0  0  0  0  0
   -3.0801   -0.0381   28.5030 N   0  0  0  0  0  0  0  0  0  0  0  0
  1  2  1  1  0  0  0
  1  7  1  0  0  0  0
  1 30  1  0  0  0  0
  3  4  1  1  0  0  0
  3  9  1  0  0  0  0
  3 39  1  0  0  0  0
  5 10  1  0  0  0  0
  5 26  1  0  0  0  0
  5 32  1  1  0  0  0
  6 12  1  0  0  0  0
  6 36  1  0  0  0  0
  6 19  1  6  0  0  0
  7  8  1  1  0  0  0
  7 14  1  0  0  0  0
  9 16  1  0  0  0  0
 10 11  1  1  0  0  0
 10 18  1  0  0  0  0
 12 13  1  1  0  0  0
 12 20  1  0  0  0  0
 14 15  1  6  0  0  0
 14 22  1  0  0  0  0
 16 17  1  1  0  0  0
 16 24  1  0  0  0  0
 18 19  1  1  0  0  0
 18 25  1  0  0  0  0
 20 21  1  1  0  0  0
 20 27  1  0  0  0  0
 22 23  1  1  0  0  0
 22 29  1  0  0  0  0
 24  2  1  6  0  0  0
 24 31  1  0  0  0  0
 25 26  1  0  0  0  0
 25 33  1  1  0  0  0
 27 28  1  6  0  0  0
 27 35  1  0  0  0  0
 29 30  1  0  0  0  0
 29 37  1  6  0  0  0
 31 32  1  1  0  0  0
 31 39  1  0  0  0  0
 33 34  1  0  0  0  0
 35 36  1  0  0  0  0
 35 41  1  1  0  0  0
 37 38  1  0  0  0  0
 39 40  1  6  0  0  0
 41 42  1  0  0  0  0
M  END
>  <CHROM.1>
-109.92780782,98.97932030,77.38324620,67.54648832,-156.98614722,154.37286635
59.07640764,50.07189245,110.88381351,74.97214820,-178.88398233,59.84475353
58.89713432,174.23061778,61.92850049,153.29877964,171.69859800,-172.00674899
56.48420956,175.99060649,-50.46471707,62.72285181,3.78579880,4.32089849,26.62572537
0.30667317,-0.69350907,-1.06612471

>  <Name>
1fyp_lig

>  <RI>
0

>  <Rbt.Current_Directory>
/home/itssahil/PROJECTS/Mol_Feturizer/New_Systems/rnas/1fyp

>  <Rbt.Executable>
rbdock ($Id: //depot/dev/client3/rdock/2013.1/src/exe/rbdock.cxx#4 $)

>  <Rbt.Library>
libRbt.so (2013.1, Build901 2013/11/27)

>  <Rbt.Parameter_File>
/export/apps/rDock/src/rDock_2013.1_src/data/scripts/dock_solv.prm

>  <Rbt.Receptor>
prm/pocket_docking_4.prm

>  <SCORE>
-42.831

>  <SCORE.INTER>
-36.4887

>  <SCORE.INTER.CONST>
1

>  <SCORE.INTER.POLAR>
-4.42537

>  <SCORE.INTER.ROT>
14

>  <SCORE.INTER.SOLV>
15.704

>  <SCORE.INTER.VDW>
-27.7426

>  <SCORE.INTER.norm>
-0.868778

>  <SCORE.INTRA>
-6.34238

>  <SCORE.INTRA.DIHEDRAL>
-20.3511

>  <SCORE.INTRA.DIHEDRAL.0>
48.7173

>  <SCORE.INTRA.POLAR>
0.261119

>  <SCORE.INTRA.POLAR.0>
-1.54691

>  <SCORE.INTRA.REPUL>
0.0775561

>  <SCORE.INTRA.REPUL.0>
0

>  <SCORE.INTRA.SOLV>
1.78312

>  <SCORE.INTRA.SOLV.lig_0>
-64.052

>  <SCORE.INTRA.VDW>
1.66601

>  <SCORE.INTRA.VDW.0>
-7.0667

>  <SCORE.INTRA.norm>
-0.151009

>  <SCORE.RESTR>
0

>  <SCORE.RESTR.CAVITY>
0

>  <SCORE.RESTR.norm>
0

>  <SCORE.SYSTEM>
0

>  <SCORE.SYSTEM.CONST>
0

>  <SCORE.SYSTEM.DIHEDRAL>
0

>  <SCORE.SYSTEM.SOLV>
0

>  <SCORE.SYSTEM.norm>
0

>  <SCORE.heavy>
42

>  <SCORE.norm>
-1.01979

>  <RMSD>
4.791

$$$$
1fyp_lig
 OpenBabel11021811393D
libRbt.so/2013.1/901 2013/11/27
 42 45  0  0  0  0  0  0  0  0999 V2000
    4.7331    6.4707   25.2291 C   0  0  2  0  0  0  0  0  0  0  0  0
    4.1914    7.0513   26.4505 O   0  0  0  0  0  0  0  0  0  0  0  0
    3.1467    5.4561   30.2721 C   0  0  2  0  0  0  0  0  0  0  0  0
    2.5159    4.7787   31.4200 N   0  0  0  0  0  0  0  0  0  0  0  0
    3.5411    3.4252   26.3753 C   0  0  1  0  0  0  0  0  0  0  0  0
    0.9517    0.3160   24.6015 C   0  0  1  0  0  0  0  0  0  0  0  0
    6.0995    7.1230   24.8424 C   0  0  2  0  0  0  0  0  0  0  0  0
    7.0350    7.1269   25.9872 N   0  0  0  0  0  0  0  0  0  0  0  0
    2.1209    6.3917   29.6016 C   0  0  0  0  0  0  0  0  0  0  0  0
    4.0766    2.1644   25.6916 C   0  0  2  0  0  0  0  0  0  0  0  0
    4.3371    2.4420   24.3152 O   0  0  0  0  0  0  0  0  0  0  0  0
   -0.1803    0.7373   23.6154 C   0  0  2  0  0  0  0  0  0  0  0  0
   -0.7638    2.0602   23.9468 N   0  0  0  0  0  0  0  0  0  0  0  0
    5.8913    8.5748   24.3083 C   0  0  1  0  0  0  0  0  0  0  0  0
    7.1213    9.0974   23.8125 O   0  0  0  0  0  0  0  0  0  0  0  0
    2.7272    7.1615   28.3966 C   0  0  2  0  0  0  0  0  0  0  0  0
    1.6470    7.9608   27.7819 N   0  0  0  0  0  0  0  0  0  0  0  0
    2.9000    1.1976   25.8509 C   0  0  2  0  0  0  0  0  0  0  0  0
    1.8924    1.3994   24.8210 O   0  0  0  0  0  0  0  0  0  0  0  0
   -1.2820   -0.3637   23.5313 C   0  0  1  0  0  0  0  0  0  0  0  0
   -0.7652   -1.4665   22.7895 O   0  0  0  0  0  0  0  0  0  0  0  0
    4.8406    8.6251   23.1709 C   0  0  2  0  0  0  0  0  0  0  0  0
    4.6289    9.9821   22.7931 O   0  0  0  0  0  0  0  0  0  0  0  0
    3.4074    6.2118   27.3460 C   0  0  2  0  0  0  0  0  0  0  0  0
    2.3481    1.5866   27.2295 C   0  0  2  0  0  0  0  0  0  0  0  0
    2.5992    2.9981   27.3724 O   0  0  0  0  0  0  0  0  0  0  0  0
   -1.7625   -0.8905   24.9175 C   0  0  2  0  0  0  0  0  0  0  0  0
   -2.5718    0.1148   25.5298 O   0  0  0  0  0  0  0  0  0  0  0  0
    3.5083    7.9724   23.6369 C   0  0  2  0  0  0  0  0  0  0  0  0
    3.7809    6.6237   24.1232 O   0  0  0  0  0  0  0  0  0  0  0  0
    4.3463    5.1395   28.0085 C   0  0  2  0  0  0  0  0  0  0  0  0
    4.6461    4.1259   27.0140 O   0  0  0  0  0  0  0  0  0  0  0  0
    3.0086    0.8122   28.3839 C   0  0  0  0  0  0  0  0  0  0  0  0
    4.3405    1.2501   28.5889 O   0  0  0  0  0  0  0  0  0  0  0  0
   -0.5456   -1.2334   25.8318 C   0  0  1  0  0  0  0  0  0  0  0  0
    0.3655   -0.0934   25.8837 O   0  0  0  0  0  0  0  0  0  0  0  0
    2.4327    7.8365   22.5361 C   0  0  0  0  0  0  0  0  0  0  0  0
    1.3697    6.9978   22.9556 O   0  0  0  0  0  0  0  0  0  0  0  0
    3.6956    4.4398   29.2420 C   0  0  1  0  0  0  0  0  0  0  0  0
    4.6756    3.6168   29.8730 O   0  0  0  0  0  0  0  0  0  0  0  0
   -0.9690   -1.6084   27.2752 C   0  0  0  0  0  0  0  0  0  0  0  0
   -1.6704   -2.9034   27.3379 N   0  0  0  0  0  0  0  0  0  0  0  0
  1  2  1  1  0  0  0
  1  7  1  0  0  0  0
  1 30  1  0  0  0  0
  3  4  1  1  0  0  0
  3  9  1  0  0  0  0
  3 39  1  0  0  0  0
  5 10  1  0  0  0  0
  5 26  1  0  0  0  0
  5 32  1  1  0  0  0
  6 12  1  0  0  0  0
  6 36  1  0  0  0  0
  6 19  1  1  0  0  0
  7  8  1  1  0  0  0
  7 14  1  0  0  0  0
  9 16  1  0  0  0  0
 10 11  1  6  0  0  0
 10 18  1  0  0  0  0
 12 13  1  1  0  0  0
 12 20  1  0  0  0  0
 14 15  1  6  0  0  0
 14 22  1  0  0  0  0
 16 17  1  6  0  0  0
 16 24  1  0  0  0  0
 18 19  1  6  0  0  0
 18 25  1  0  0  0  0
 20 21  1  6  0  0  0
 20 27  1  0  0  0  0
 22 23  1  1  0  0  0
 22 29  1  0  0  0  0
 24  2  1  6  0  0  0
 24 31  1  0  0  0  0
 25 26  1  0  0  0  0
 25 33  1  1  0  0  0
 27 28  1  1  0  0  0
 27 35  1  0  0  0  0
 29 30  1  0  0  0  0
 29 37  1  6  0  0  0
 31 32  1  6  0  0  0
 31 39  1  0  0  0  0
 33 34  1  0  0  0  0
 35 36  1  0  0  0  0
 35 41  1  1  0  0  0
 37 38  1  0  0  0  0
 39 40  1  1  0  0  0
 41 42  1  0  0  0  0
M  END
>  <CHROM.1>
-147.43566688,-168.73457382,34.37935886,-152.10585916,131.42616902,-124.01536950
67.47857827,-149.33613076,161.57931860,172.33886397,-160.63415099,65.56870805
71.74060498,-61.48653042,167.95932595,-56.57900371,-163.89249986,-176.37655049
69.36611504,54.01907547,169.04151009,-41.74198645,2.57888901,3.82520853,26.00368884
0.41941250,-0.95660314,-1.11738867

>  <Name>
1fyp_lig

>  <RI>
0

>  <Rbt.Current_Directory>
/home/itssahil/PROJECTS/Mol_Feturizer/New_Systems/rnas/1fyp

>  <Rbt.Executable>
rbdock ($Id: //depot/dev/client3/rdock/2013.1/src/exe/rbdock.cxx#4 $)

>  <Rbt.Library>
libRbt.so (2013.1, Build901 2013/11/27)

>  <Rbt.Parameter_File>
/export/apps/rDock/src/rDock_2013.1_src/data/scripts/dock_solv.prm

>  <Rbt.Receptor>
prm/blind_docking_80.prm

>  <SCORE>
-55.5149

>  <SCORE.INTER>
-49.2864

>  <SCORE.INTER.CONST>
1

>  <SCORE.INTER.POLAR>
-6.33463

>  <SCORE.INTER.ROT>
14

>  <SCORE.INTER.SOLV>
22.9022

>  <SCORE.INTER.VDW>
-32.3096

>  <SCORE.INTER.norm>
-1.17349

>  <SCORE.INTRA>
-6.22851

>  <SCORE.INTRA.DIHEDRAL>
-23.9831

>  <SCORE.INTRA.DIHEDRAL.0>
48.7173

>  <SCORE.INTRA.POLAR>
0.541157

>  <SCORE.INTRA.POLAR.0>
-1.54691

>  <SCORE.INTRA.REPUL>
0.00034082

>  <SCORE.INTRA.REPUL.0>
0

>  <SCORE.INTRA.SOLV>
-0.626099

>  <SCORE.INTRA.SOLV.lig_0>
-64.052

>  <SCORE.INTRA.VDW>
4.23446

>  <SCORE.INTRA.VDW.0>
-7.0667

>  <SCORE.INTRA.norm>
-0.148298

>  <SCORE.RESTR>
0

>  <SCORE.RESTR.CAVITY>
0

>  <SCORE.RESTR.norm>
0

>  <SCORE.SYSTEM>
0

>  <SCORE.SYSTEM.CONST>
0

>  <SCORE.SYSTEM.DIHEDRAL>
0

>  <SCORE.SYSTEM.SOLV>
0

>  <SCORE.SYSTEM.norm>
0

>  <SCORE.heavy>
42

>  <SCORE.norm>
-1.32178

>  <RMSD>
4.796

$$$$
1fyp_lig
 OpenBabel11021811393D
libRbt.so/2013.1/901 2013/11/27
 42 45  0  0  0  0  0  0  0  0999 V2000
    3.9470    7.5941   24.8978 C   0  0  2  0  0  0  0  0  0  0  0  0
    4.1541    6.1549   24.8083 O   0  0  0  0  0  0  0  0  0  0  0  0
    5.9618    4.2756   28.1908 C   0  0  2  0  0  0  0  0  0  0  0  0
    6.2592    3.5758   29.4542 N   0  0  0  0  0  0  0  0  0  0  0  0
    2.7576    3.2038   25.0456 C   0  0  1  0  0  0  0  0  0  0  0  0
   -1.4119    1.7865   24.5054 C   0  0  1  0  0  0  0  0  0  0  0  0
    3.2772    8.1576   23.6032 C   0  0  2  0  0  0  0  0  0  0  0  0
    2.0688    7.3850   23.2448 N   0  0  0  0  0  0  0  0  0  0  0  0
    5.0214    5.4645   28.4720 C   0  0  0  0  0  0  0  0  0  0  0  0
    2.1810    1.9012   24.4848 C   0  0  2  0  0  0  0  0  0  0  0  0
    1.8549    2.0785   23.1058 O   0  0  0  0  0  0  0  0  0  0  0  0
   -2.2051    1.4179   25.7962 C   0  0  2  0  0  0  0  0  0  0  0  0
   -1.3425    0.8251   26.8473 N   0  0  0  0  0  0  0  0  0  0  0  0
    4.2871    8.1663   22.4132 C   0  0  1  0  0  0  0  0  0  0  0  0
    3.7146    8.8268   21.2873 O   0  0  0  0  0  0  0  0  0  0  0  0
    4.6866    6.2664   27.1847 C   0  0  2  0  0  0  0  0  0  0  0  0
    3.7227    7.3251   27.5502 N   0  0  0  0  0  0  0  0  0  0  0  0
    0.9205    1.7242   25.3359 C   0  0  2  0  0  0  0  0  0  0  0  0
   -0.1924    2.5073   24.8215 O   0  0  0  0  0  0  0  0  0  0  0  0
   -3.4111    0.4873   25.4606 C   0  0  1  0  0  0  0  0  0  0  0  0
   -4.4185    1.2649   24.8172 O   0  0  0  0  0  0  0  0  0  0  0  0
    5.6095    8.8829   22.7849 C   0  0  2  0  0  0  0  0  0  0  0  0
    6.5192    8.7752   21.6942 O   0  0  0  0  0  0  0  0  0  0  0  0
    4.1317    5.3594   26.0282 C   0  0  2  0  0  0  0  0  0  0  0  0
    1.3748    2.2629   26.6997 C   0  0  2  0  0  0  0  0  0  0  0  0
    2.3372    3.2969   26.4162 O   0  0  0  0  0  0  0  0  0  0  0  0
   -3.0510   -0.7105   24.5303 C   0  0  2  0  0  0  0  0  0  0  0  0
   -2.3042   -1.6647   25.2869 O   0  0  0  0  0  0  0  0  0  0  0  0
    6.2201    8.2571   24.0709 C   0  0  2  0  0  0  0  0  0  0  0  0
    5.2216    8.2812   25.1350 O   0  0  0  0  0  0  0  0  0  0  0  0
    4.9806    4.0542   25.8136 C   0  0  2  0  0  0  0  0  0  0  0  0
    4.2111    3.1468   24.9824 O   0  0  0  0  0  0  0  0  0  0  0  0
    2.0075    1.1823   27.5945 C   0  0  0  0  0  0  0  0  0  0  0  0
    1.1985    0.0196   27.6311 O   0  0  0  0  0  0  0  0  0  0  0  0
   -2.2196   -0.2272   23.3017 C   0  0  1  0  0  0  0  0  0  0  0  0
   -1.0821    0.5653   23.7603 O   0  0  0  0  0  0  0  0  0  0  0  0
    7.4672    8.9867   24.6181 C   0  0  0  0  0  0  0  0  0  0  0  0
    7.9147    8.4033   25.8300 O   0  0  0  0  0  0  0  0  0  0  0  0
    5.3237    3.3248   27.1495 C   0  0  1  0  0  0  0  0  0  0  0  0
    6.2308    2.2592   26.8710 O   0  0  0  0  0  0  0  0  0  0  0  0
   -1.7004   -1.4007   22.4320 C   0  0  0  0  0  0  0  0  0  0  0  0
   -0.6657   -2.1955   23.1182 N   0  0  0  0  0  0  0  0  0  0  0  0
  1  2  1  6  0  0  0
  1  7  1  0  0  0  0
  1 30  1  0  0  0  0
  3  4  1  1  0  0  0
  3  9  1  0  0  0  0
  3 39  1  0  0  0  0
  5 10  1  0  0  0  0
  5 26  1  0  0  0  0
  5 32  1  1  0  0  0
  6 12  1  0  0  0  0
  6 36  1  0  0  0  0
  6 19  1  1  0  0  0
  7  8  1  6  0  0  0
  7 14  1  0  0  0  0
  9 16  1  0  0  0  0
 10 11  1  6  0  0  0
 10 18  1  0  0  0  0
 12 13  1  1  0  0  0
 12 20  1  0  0  0  0
 14 15  1  6  0  0  0
 14 22  1  0  0  0  0
 16 17  1  1  0  0  0
 16 24  1  0  0  0  0
 18 19  1  6  0  0  0
 18 25  1  0  0  0  0
 20 21  1  6  0  0  0
 20 27  1  0  0  0  0
 22 23  1  6  0  0  0
 22 29  1  0  0  0  0
 24  2  1  6  0  0  0
 24 31  1  0  0  0  0
 25 26  1  0  0  0  0
 25 33  1  1  0  0  0
 27 28  1  1  0  0  0
 27 35  1  0  0  0  0
 29 30  1  0  0  0  0
 29 37  1  1  0  0  0
 31 32  1  6  0  0  0
 31 39  1  0  0  0  0
 33 34  1  0  0  0  0
 35 36  1  0  0  0  0
 35 41  1  1  0  0  0
 37 38  1  0  0  0  0
 39 40  1  6  0  0  0
 41 42  1  0  0  0  0
M  END
>  <CHROM.1>
-150.26475529,-31.86177844,105.58592594,67.62515303,175.19281237,90.09176130
-105.48853159,25.77412779,123.75654576,76.36964156,-177.86902135,62.11509368
-48.14376175,67.70162908,176.58036951,-29.32640041,-161.14267801,-138.01056279
-68.89878871,-166.64373817,57.37115543,72.80343913,2.41983757,3.82337463
25.16340950,0.54980887,-0.62336203,-0.76823863

>  <Name>
1fyp_lig

>  <RI>
0

>  <Rbt.Current_Directory>
/home/itssahil/PROJECTS/Mol_Feturizer/New_Systems/rnas/1fyp

>  <Rbt.Executable>
rbdock ($Id: //depot/dev/client3/rdock/2013.1/src/exe/rbdock.cxx#4 $)

>  <Rbt.Library>
libRbt.so (2013.1, Build901 2013/11/27)

>  <Rbt.Parameter_File>
/export/apps/rDock/src/rDock_2013.1_src/data/scripts/dock_solv.prm

>  <Rbt.Receptor>
prm/blind_docking_100.prm

>  <SCORE>
-42.8444

>  <SCORE.INTER>
-48.9614

>  <SCORE.INTER.CONST>
1

>  <SCORE.INTER.POLAR>
-9.12576

>  <SCORE.INTER.ROT>
14

>  <SCORE.INTER.SOLV>
22.6212

>  <SCORE.INTER.VDW>
-22.6955

>  <SCORE.INTER.norm>
-1.16575

>  <SCORE.INTRA>
6.05867

>  <SCORE.INTRA.DIHEDRAL>
-8.89784

>  <SCORE.INTRA.DIHEDRAL.0>
48.7173

>  <SCORE.INTRA.POLAR>
0.941783

>  <SCORE.INTRA.POLAR.0>
-1.54691

>  <SCORE.INTRA.REPUL>
0

>  <SCORE.INTRA.REPUL.0>
0

>  <SCORE.INTRA.SOLV>
-0.075744

>  <SCORE.INTRA.SOLV.lig_0>
-64.052

>  <SCORE.INTRA.VDW>
7.3434

>  <SCORE.INTRA.VDW.0>
-7.0667

>  <SCORE.INTRA.norm>
0.144254

>  <SCORE.RESTR>
0.0583334

>  <SCORE.RESTR.CAVITY>
0.0583334

>  <SCORE.RESTR.norm>
0.00138889

>  <SCORE.SYSTEM>
0

>  <SCORE.SYSTEM.CONST>
0

>  <SCORE.SYSTEM.DIHEDRAL>
0

>  <SCORE.SYSTEM.SOLV>
0

>  <SCORE.SYSTEM.norm>
0

>  <SCORE.heavy>
42

>  <SCORE.norm>
-1.02011

>  <RMSD>
4.808

$$$$
1fyp_lig
 OpenBabel11021811393D
libRbt.so/2013.1/901 2013/11/27
 42 45  0  0  0  0  0  0  0  0999 V2000
    4.0372    6.4068   25.2498 C   0  0  2  0  0  0  0  0  0  0  0  0
    3.6353    6.7891   26.5969 O   0  0  0  0  0  0  0  0  0  0  0  0
    4.4360    4.7091   30.2401 C   0  0  2  0  0  0  0  0  0  0  0  0
    4.4155    3.8325   31.4257 N   0  0  0  0  0  0  0  0  0  0  0  0
    3.4555    3.2106   26.1685 C   0  0  1  0  0  0  0  0  0  0  0  0
    0.7913   -0.1230   24.8623 C   0  0  1  0  0  0  0  0  0  0  0  0
    5.5431    6.7319   24.9878 C   0  0  2  0  0  0  0  0  0  0  0  0
    6.4033    6.1907   26.0615 N   0  0  0  0  0  0  0  0  0  0  0  0
    3.1130    5.4970   30.1619 C   0  0  0  0  0  0  0  0  0  0  0  0
    3.8459    1.9322   25.4221 C   0  0  2  0  0  0  0  0  0  0  0  0
    3.7604    2.1566   24.0143 O   0  0  0  0  0  0  0  0  0  0  0  0
    0.0635   -0.0486   23.4854 C   0  0  2  0  0  0  0  0  0  0  0  0
   -0.6637    1.2296   23.2917 N   0  0  0  0  0  0  0  0  0  0  0  0
    5.7626    8.2703   24.8418 C   0  0  1  0  0  0  0  0  0  0  0  0
    7.1054    8.5400   24.4470 O   0  0  0  0  0  0  0  0  0  0  0  0
    3.0761    6.4645   28.9474 C   0  0  2  0  0  0  0  0  0  0  0  0
    1.7443    7.1043   28.9203 N   0  0  0  0  0  0  0  0  0  0  0  0
    2.7693    0.9517   25.8952 C   0  0  2  0  0  0  0  0  0  0  0  0
    1.5386    1.0917   25.1321 O   0  0  0  0  0  0  0  0  0  0  0  0
   -0.8813   -1.2742   23.2894 C   0  0  1  0  0  0  0  0  0  0  0  0
   -0.0815   -2.4272   23.0355 O   0  0  0  0  0  0  0  0  0  0  0  0
    4.8065    8.8919   23.7931 C   0  0  2  0  0  0  0  0  0  0  0  0
    4.9911   10.3041   23.7749 O   0  0  0  0  0  0  0  0  0  0  0  0
    3.3961    5.7476   27.5866 C   0  0  2  0  0  0  0  0  0  0  0  0
    2.5541    1.3879   27.3512 C   0  0  2  0  0  0  0  0  0  0  0  0
    2.7929    2.8085   27.3781 O   0  0  0  0  0  0  0  0  0  0  0  0
   -1.7957   -1.5752   24.5154 C   0  0  2  0  0  0  0  0  0  0  0  0
   -2.8179   -0.5791   24.5750 O   0  0  0  0  0  0  0  0  0  0  0  0
    3.3305    8.5371   24.1304 C   0  0  2  0  0  0  0  0  0  0  0  0
    3.2030    7.0885   24.2536 O   0  0  0  0  0  0  0  0  0  0  0  0
    4.6552    4.8107   27.6701 C   0  0  2  0  0  0  0  0  0  0  0  0
    4.6616    3.9574   26.4961 O   0  0  0  0  0  0  0  0  0  0  0  0
    3.4938    0.6747   28.3396 C   0  0  0  0  0  0  0  0  0  0  0  0
    2.7583   -0.1308   29.2440 O   0  0  0  0  0  0  0  0  0  0  0  0
   -0.9671   -1.5768   25.8374 C   0  0  1  0  0  0  0  0  0  0  0  0
   -0.1907   -0.3435   25.9311 O   0  0  0  0  0  0  0  0  0  0  0  0
    2.2978    8.9834   23.0715 C   0  0  0  0  0  0  0  0  0  0  0  0
    2.9285    9.6225   21.9745 O   0  0  0  0  0  0  0  0  0  0  0  0
    4.6541    3.9013   28.9381 C   0  0  1  0  0  0  0  0  0  0  0  0
    5.9047    3.2188   29.0147 O   0  0  0  0  0  0  0  0  0  0  0  0
   -1.8561   -1.7117   27.1003 C   0  0  0  0  0  0  0  0  0  0  0  0
   -2.5126   -3.0286   27.1887 N   0  0  0  0  0  0  0  0  0  0  0  0
  1  2  1  1  0  0  0
  1  7  1  0  0  0  0
  1 30  1  0  0  0  0
  3  4  1  1  0  0  0
  3  9  1  0  0  0  0
  3 39  1  0  0  0  0
  5 10  1  0  0  0  0
  5 26  1  0  0  0  0
  5 32  1  1  0  0  0
  6 12  1  0  0  0  0
  6 36  1  0  0  0  0
  6 19  1  1  0  0  0
  7  8  1  1  0  0  0
  7 14  1  0  0  0  0
  9 16  1  0  0  0  0
 10 11  1  6  0  0  0
 10 18  1  0  0  0  0
 12 13  1  1  0  0  0
 12 20  1  0  0  0  0
 14 15  1  6  0  0  0
 14 22  1  0  0  0  0
 16 17  1  6  0  0  0
 16 24  1  0  0  0  0
 18 19  1  6  0  0  0
 18 25  1  0  0  0  0
 20 21  1  1  0  0  0
 20 27  1  0  0  0  0
 22 23  1  1  0  0  0
 22 29  1  0  0  0  0
 24  2  1  6  0  0  0
 24 31  1  0  0  0  0
 25 26  1  0  0  0  0
 25 33  1  1  0  0  0
 27 28  1  1  0  0  0
 27 35  1  0  0  0  0
 29 30  1  0  0  0  0
 29 37  1  6  0  0  0
 31 32  1  6  0  0  0
 31 39  1  0  0  0  0
 33 34  1  0  0  0  0
 35 36  1  0  0  0  0
 35 41  1  1  0  0  0
 37 38  1  0  0  0  0
 39 40  1  1  0  0  0
 41 42  1  0  0  0  0
M  END
>  <CHROM.1>
-107.37890106,176.32861212,41.45658688,86.22431404,-70.90110302,171.50049632
-68.41400895,-29.20421338,144.31825638,-147.16448336,58.06247789,-44.50292887
-116.01022615,55.44943424,0.89944243,-51.49336885,-151.63819665,-18.42078850
67.07170713,-55.82273986,70.02000183,-104.14601365,2.61720555,3.53172293
26.05051362,0.57929056,-0.92088132,-0.88379093

>  <Name>
1fyp_lig

>  <RI>
0

>  <Rbt.Current_Directory>
/home/itssahil/PROJECTS/Mol_Feturizer/New_Systems/rnas/1fyp

>  <Rbt.Executable>
rbdock ($Id: //depot/dev/client3/rdock/2013.1/src/exe/rbdock.cxx#4 $)

>  <Rbt.Library>
libRbt.so (2013.1, Build901 2013/11/27)

>  <Rbt.Parameter_File>
/export/apps/rDock/src/rDock_2013.1_src/data/scripts/dock_solv.prm

>  <Rbt.Receptor>
prm/pocket_docking_3.prm

>  <SCORE>
-47.3121

>  <SCORE.INTER>
-54.7637

>  <SCORE.INTER.CONST>
1

>  <SCORE.INTER.POLAR>
-8.32259

>  <SCORE.INTER.ROT>
14

>  <SCORE.INTER.SOLV>
25.1972

>  <SCORE.INTER.VDW>
-30.0996

>  <SCORE.INTER.norm>
-1.3039

>  <SCORE.INTRA>
5.80774

>  <SCORE.INTRA.DIHEDRAL>
-5.7038

>  <SCORE.INTRA.DIHEDRAL.0>
48.7173

>  <SCORE.INTRA.POLAR>
0.697233

>  <SCORE.INTRA.POLAR.0>
-1.54691

>  <SCORE.INTRA.REPUL>
0

>  <SCORE.INTRA.REPUL.0>
0

>  <SCORE.INTRA.SOLV>
-2.02954

>  <SCORE.INTRA.SOLV.lig_0>
-64.052

>  <SCORE.INTRA.VDW>
7.30382

>  <SCORE.INTRA.VDW.0>
-7.0667

>  <SCORE.INTRA.norm>
0.138279

>  <SCORE.RESTR>
1.64389

>  <SCORE.RESTR.CAVITY>
1.64389

>  <SCORE.RESTR.norm>
0.0391402

>  <SCORE.SYSTEM>
0

>  <SCORE.SYSTEM.CONST>
0

>  <SCORE.SYSTEM.DIHEDRAL>
0

>  <SCORE.SYSTEM.SOLV>
0

>  <SCORE.SYSTEM.norm>
0

>  <SCORE.heavy>
42

>  <SCORE.norm>
-1.12648

>  <RMSD>
4.808

$$$$
1fyp_lig
 OpenBabel11021811393D
libRbt.so/2013.1/901 2013/11/27
 42 45  0  0  0  0  0  0  0  0999 V2000
    4.1408    7.1192   27.2973 C   0  0  2  0  0  0  0  0  0  0  0  0
    3.6246    5.7570   27.2863 O   0  0  0  0  0  0  0  0  0  0  0  0
    4.1144    5.1575   31.4865 C   0  0  2  0  0  0  0  0  0  0  0  0
    4.0114    4.7433   32.8979 N   0  0  0  0  0  0  0  0  0  0  0  0
    3.7275    2.3699   27.9433 C   0  0  1  0  0  0  0  0  0  0  0  0
   -0.2345    0.9300   26.6709 C   0  0  1  0  0  0  0  0  0  0  0  0
    4.0976    7.7593   25.8724 C   0  0  2  0  0  0  0  0  0  0  0  0
    2.7596    7.6153   25.2602 N   0  0  0  0  0  0  0  0  0  0  0  0
    2.7552    5.7106   31.0137 C   0  0  0  0  0  0  0  0  0  0  0  0
    2.4412    3.1666   28.1765 C   0  0  2  0  0  0  0  0  0  0  0  0
    1.9229    2.8671   29.4731 O   0  0  0  0  0  0  0  0  0  0  0  0
   -1.4441    1.9033   26.8148 C   0  0  2  0  0  0  0  0  0  0  0  0
   -1.7285    2.2566   28.2271 N   0  0  0  0  0  0  0  0  0  0  0  0
    5.1867    7.1315   24.9474 C   0  0  1  0  0  0  0  0  0  0  0  0
    5.2416    7.8317   23.7071 O   0  0  0  0  0  0  0  0  0  0  0  0
    2.7980    6.1929   29.5379 C   0  0  2  0  0  0  0  0  0  0  0  0
    1.4350    6.6244   29.1643 N   0  0  0  0  0  0  0  0  0  0  0  0
    1.5300    2.6207   27.0737 C   0  0  2  0  0  0  0  0  0  0  0  0
    0.8969    1.3709   27.4660 O   0  0  0  0  0  0  0  0  0  0  0  0
   -2.7092    1.3255   26.1087 C   0  0  1  0  0  0  0  0  0  0  0  0
   -2.5292    1.4309   24.6980 O   0  0  0  0  0  0  0  0  0  0  0  0
    6.5913    7.1743   25.5998 C   0  0  2  0  0  0  0  0  0  0  0  0
    7.5191    6.5058   24.7507 O   0  0  0  0  0  0  0  0  0  0  0  0
    3.3430    5.0965   28.5535 C   0  0  2  0  0  0  0  0  0  0  0  0
    2.5203    2.3866   25.9245 C   0  0  2  0  0  0  0  0  0  0  0  0
    3.7730    2.0395   26.5460 O   0  0  0  0  0  0  0  0  0  0  0  0
   -3.0046   -0.1659   26.4526 C   0  0  2  0  0  0  0  0  0  0  0  0
   -3.5082   -0.2330   27.7877 O   0  0  0  0  0  0  0  0  0  0  0  0
    6.5553    6.5070   27.0040 C   0  0  2  0  0  0  0  0  0  0  0  0
    5.5161    7.1415   27.8085 O   0  0  0  0  0  0  0  0  0  0  0  0
    4.6500    4.3988   29.0780 C   0  0  2  0  0  0  0  0  0  0  0  0
    4.8716    3.2023   28.2869 O   0  0  0  0  0  0  0  0  0  0  0  0
    2.7010    3.6210   25.0232 C   0  0  0  0  0  0  0  0  0  0  0  0
    1.8379    3.5579   23.9012 O   0  0  0  0  0  0  0  0  0  0  0  0
   -1.7131   -1.0313   26.3198 C   0  0  1  0  0  0  0  0  0  0  0  0
   -0.6321   -0.4202   27.0882 O   0  0  0  0  0  0  0  0  0  0  0  0
    7.8688    6.6198   27.8097 C   0  0  0  0  0  0  0  0  0  0  0  0
    8.9649    6.0887   27.0845 O   0  0  0  0  0  0  0  0  0  0  0  0
    4.5582    3.9845   30.5795 C   0  0  1  0  0  0  0  0  0  0  0  0
    5.8380    3.5206   31.0069 O   0  0  0  0  0  0  0  0  0  0  0  0
   -1.9175   -2.4891   26.8057 C   0  0  0  0  0  0  0  0  0  0  0  0
   -2.7887   -3.2660   25.9055 N   0  0  0  0  0  0  0  0  0  0  0  0
  1  2  1  6  0  0  0
  1  7  1  0  0  0  0
  1 30  1  0  0  0  0
  3  4  1  1  0  0  0
  3  9  1  0  0  0  0
  3 39  1  0  0  0  0
  5 10  1  0  0  0  0
  5 26  1  0  0  0  0
  5 32  1  6  0  0  0
  6 12  1  0  0  0  0
  6 36  1  0  0  0  0
  6 19  1  1  0  0  0
  7  8  1  6  0  0  0
  7 14  1  0  0  0  0
  9 16  1  0  0  0  0
 10 11  1  1  0  0  0
 10 18  1  0  0  0  0
 12 13  1  1  0  0  0
 12 20  1  0  0  0  0
 14 15  1  6  0  0  0
 14 22  1  0  0  0  0
 16 17  1  6  0  0  0
 16 24  1  0  0  0  0
 18 19  1  1  0  0  0
 18 25  1  0  0  0  0
 20 21  1  6  0  0  0
 20 27  1  0  0  0  0
 22 23  1  6  0  0  0
 22 29  1  0  0  0  0
 24  2  1  6  0  0  0
 24 31  1  0  0  0  0
 25 26  1  0  0  0  0
 25 33  1  1  0  0  0
 27 28  1  1  0  0  0
 27 35  1  0  0  0  0
 29 30  1  0  0  0  0
 29 37  1  1  0  0  0
 31 32  1  6  0  0  0
 31 39  1  0  0  0  0
 33 34  1  0  0  0  0
 35 36  1  0  0  0  0
 35 41  1  1  0  0  0
 37 38  1  0  0  0  0
 39 40  1  1  0  0  0
 41 42  1  0  0  0  0
M  END
>  <CHROM.1>
-168.09119155,35.68418619,-71.63922053,-60.57779732,43.72856451,-159.96805010
-165.66179869,-143.06641401,164.72517024,-65.92674273,-66.50972983,-169.14773762
-94.47046558,170.52767551,-56.10672221,-41.16906729,15.97007257,179.55943710
69.95137106,-179.20263021,-58.24692140,-124.87869187,2.51951940,3.70546842
27.37573277,0.06574721,-0.70835133,-1.36641926

>  <Name>
1fyp_lig

>  <RI>
0

>  <Rbt.Current_Directory>
/home/itssahil/PROJECTS/Mol_Feturizer/New_Systems/rnas/1fyp

>  <Rbt.Executable>
rbdock ($Id: //depot/dev/client3/rdock/2013.1/src/exe/rbdock.cxx#4 $)

>  <Rbt.Library>
libRbt.so (2013.1, Build901 2013/11/27)

>  <Rbt.Parameter_File>
/export/apps/rDock/src/rDock_2013.1_src/data/scripts/dock_solv.prm

>  <Rbt.Receptor>
prm/blind_docking_40.prm

>  <SCORE>
-21.8068

>  <SCORE.INTER>
-33.8852

>  <SCORE.INTER.CONST>
1

>  <SCORE.INTER.POLAR>
-4.2756

>  <SCORE.INTER.ROT>
14

>  <SCORE.INTER.SOLV>
16.7931

>  <SCORE.INTER.VDW>
-26.8692

>  <SCORE.INTER.norm>
-0.80679

>  <SCORE.INTRA>
11.5324

>  <SCORE.INTRA.DIHEDRAL>
-24.3856

>  <SCORE.INTRA.DIHEDRAL.0>
48.7173

>  <SCORE.INTRA.POLAR>
0.704474

>  <SCORE.INTRA.POLAR.0>
-1.54691

>  <SCORE.INTRA.REPUL>
0.167525

>  <SCORE.INTRA.REPUL.0>
0

>  <SCORE.INTRA.SOLV>
-0.812101

>  <SCORE.INTRA.SOLV.lig_0>
-64.052

>  <SCORE.INTRA.VDW>
20.8984

>  <SCORE.INTRA.VDW.0>
-7.0667

>  <SCORE.INTRA.norm>
0.27458

>  <SCORE.RESTR>
0.546

>  <SCORE.RESTR.CAVITY>
0.546

>  <SCORE.RESTR.norm>
0.013

>  <SCORE.SYSTEM>
0

>  <SCORE.SYSTEM.CONST>
0

>  <SCORE.SYSTEM.DIHEDRAL>
0

>  <SCORE.SYSTEM.SOLV>
0

>  <SCORE.SYSTEM.norm>
0

>  <SCORE.heavy>
42

>  <SCORE.norm>
-0.51921

>  <RMSD>
4.820

$$$$
1fyp_lig
 OpenBabel11021811393D
libRbt.so/2013.1/901 2013/11/27
 42 45  0  0  0  0  0  0  0  0999 V2000
    5.2253    5.9203   24.9846 C   0  0  2  0  0  0  0  0  0  0  0  0
    4.4962    6.2298   26.2073 O   0  0  0  0  0  0  0  0  0  0  0  0
    6.2923    3.8720   29.2823 C   0  0  2  0  0  0  0  0  0  0  0  0
    6.5854    2.9859   30.4239 N   0  0  0  0  0  0  0  0  0  0  0  0
    3.1692    3.1569   26.0164 C   0  0  1  0  0  0  0  0  0  0  0  0
   -0.9214    1.3787   25.9458 C   0  0  1  0  0  0  0  0  0  0  0  0
    6.6198    6.6250   24.9558 C   0  0  2  0  0  0  0  0  0  0  0  0
    7.3748    6.3711   26.2012 N   0  0  0  0  0  0  0  0  0  0  0  0
    5.3208    4.9820   29.7307 C   0  0  0  0  0  0  0  0  0  0  0  0
    2.7046    1.7712   25.5607 C   0  0  2  0  0  0  0  0  0  0  0  0
    2.3196    1.8250   24.1865 O   0  0  0  0  0  0  0  0  0  0  0  0
   -2.0327    2.0423   26.8151 C   0  0  2  0  0  0  0  0  0  0  0  0
   -1.5344    2.4820   28.1413 N   0  0  0  0  0  0  0  0  0  0  0  0
    6.4624    8.1600   24.7214 C   0  0  1  0  0  0  0  0  0  0  0  0
    7.7409    8.7632   24.5390 O   0  0  0  0  0  0  0  0  0  0  0  0
    4.9883    5.9719   28.5810 C   0  0  2  0  0  0  0  0  0  0  0  0
    3.9948    6.9394   29.0915 N   0  0  0  0  0  0  0  0  0  0  0  0
    1.4947    1.5320   26.4681 C   0  0  2  0  0  0  0  0  0  0  0  0
    0.2953    2.1701   25.9479 O   0  0  0  0  0  0  0  0  0  0  0  0
   -3.2655    1.0974   26.9571 C   0  0  1  0  0  0  0  0  0  0  0  0
   -3.9649    1.0747   25.7146 O   0  0  0  0  0  0  0  0  0  0  0  0
    5.5911    8.4667   23.4775 C   0  0  2  0  0  0  0  0  0  0  0  0
    5.4091    9.8755   23.3731 O   0  0  0  0  0  0  0  0  0  0  0  0
    4.4725    5.2498   27.2845 C   0  0  2  0  0  0  0  0  0  0  0  0
    1.9371    2.2005   27.7773 C   0  0  2  0  0  0  0  0  0  0  0  0
    2.7850    3.3002   27.3932 O   0  0  0  0  0  0  0  0  0  0  0  0
   -2.9024   -0.3696   27.3393 C   0  0  2  0  0  0  0  0  0  0  0  0
   -2.5071   -0.3968   28.7117 O   0  0  0  0  0  0  0  0  0  0  0  0
    4.2186    7.7441   23.5879 C   0  0  2  0  0  0  0  0  0  0  0  0
    4.4446    6.3192   23.8079 O   0  0  0  0  0  0  0  0  0  0  0  0
    5.3541    4.0127   26.8816 C   0  0  2  0  0  0  0  0  0  0  0  0
    4.6186    3.2341   25.9021 O   0  0  0  0  0  0  0  0  0  0  0  0
    2.6997    1.2465   28.7138 C   0  0  0  0  0  0  0  0  0  0  0  0
    2.3996   -0.1049   28.4116 O   0  0  0  0  0  0  0  0  0  0  0  0
   -1.7499   -0.9082   26.4359 C   0  0  1  0  0  0  0  0  0  0  0  0
   -0.6326    0.0319   26.4537 O   0  0  0  0  0  0  0  0  0  0  0  0
    3.3213    7.8612   22.3356 C   0  0  0  0  0  0  0  0  0  0  0  0
    2.0510    7.2717   22.5553 O   0  0  0  0  0  0  0  0  0  0  0  0
    5.6925    3.0867   28.0910 C   0  0  1  0  0  0  0  0  0  0  0  0
    6.6278    2.0974   27.6643 O   0  0  0  0  0  0  0  0  0  0  0  0
   -1.2435   -2.3040   26.8813 C   0  0  0  0  0  0  0  0  0  0  0  0
   -0.3292   -2.9118   25.8976 N   0  0  0  0  0  0  0  0  0  0  0  0
  1  2  1  1  0  0  0
  1  7  1  0  0  0  0
  1 30  1  0  0  0  0
  3  4  1  1  0  0  0
  3  9  1  0  0  0  0
  3 39  1  0  0  0  0
  5 10  1  0  0  0  0
  5 26  1  0  0  0  0
  5 32  1  1  0  0  0
  6 12  1  0  0  0  0
  6 36  1  0  0  0  0
  6 19  1  1  0  0  0
  7  8  1  1  0  0  0
  7 14  1  0  0  0  0
  9 16  1  0  0  0  0
 10 11  1  6  0  0  0
 10 18  1  0  0  0  0
 12 13  1  1  0  0  0
 12 20  1  0  0  0  0
 14 15  1  6  0  0  0
 14 22  1  0  0  0  0
 16 17  1  1  0  0  0
 16 24  1  0  0  0  0
 18 19  1  6  0  0  0
 18 25  1  0  0  0  0
 20 21  1  6  0  0  0
 20 27  1  0  0  0  0
 22 23  1  1  0  0  0
 22 29  1  0  0  0  0
 24  2  1  6  0  0  0
 24 31  1  0  0  0  0
 25 26  1  0  0  0  0
 25 33  1  1  0  0  0
 27 28  1  1  0  0  0
 27 35  1  0  0  0  0
 29 30  1  0  0  0  0
 29 37  1  6  0  0  0
 31 32  1  6  0  0  0
 31 39  1  0  0  0  0
 33 34  1  0  0  0  0
 35 36  1  0  0  0  0
 35 41  1  1  0  0  0
 37 38  1  0  0  0  0
 39 40  1  6  0  0  0
 41 42  1  0  0  0  0
M  END
>  <CHROM.1>
-100.88525217,125.27771131,60.06068982,-56.60299008,166.11067601,85.40292325
57.79542054,-176.72725310,134.34215343,119.58384607,-54.52338639,178.35215538
-21.83490052,-44.06128114,-175.23693414,-34.62937165,-145.51044258,-136.14366840
169.92165108,169.25039018,62.83672355,17.00896285,2.74327663,3.57464765,26.40077766
0.68060908,-0.46259858,-0.73652479

>  <Name>
1fyp_lig

>  <RI>
0

>  <Rbt.Current_Directory>
/home/itssahil/PROJECTS/Mol_Feturizer/New_Systems/rnas/1fyp

>  <Rbt.Executable>
rbdock ($Id: //depot/dev/client3/rdock/2013.1/src/exe/rbdock.cxx#4 $)

>  <Rbt.Library>
libRbt.so (2013.1, Build901 2013/11/27)

>  <Rbt.Parameter_File>
/export/apps/rDock/src/rDock_2013.1_src/data/scripts/dock_solv.prm

>  <Rbt.Receptor>
prm/pocket_docking_3.prm

>  <SCORE>
-10.7158

>  <SCORE.INTER>
-20.6196

>  <SCORE.INTER.CONST>
1

>  <SCORE.INTER.POLAR>
-5.50597

>  <SCORE.INTER.ROT>
14

>  <SCORE.INTER.SOLV>
23.779

>  <SCORE.INTER.VDW>
-16.2529

>  <SCORE.INTER.norm>
-0.490943

>  <SCORE.INTRA>
9.46084

>  <SCORE.INTRA.DIHEDRAL>
0.397182

>  <SCORE.INTRA.DIHEDRAL.0>
48.7173

>  <SCORE.INTRA.POLAR>
0.866129

>  <SCORE.INTRA.POLAR.0>
-1.54691

>  <SCORE.INTRA.REPUL>
0

>  <SCORE.INTRA.REPUL.0>
0

>  <SCORE.INTRA.SOLV>
-2.14763

>  <SCORE.INTRA.SOLV.lig_0>
-64.052

>  <SCORE.INTRA.VDW>
7.39123

>  <SCORE.INTRA.VDW.0>
-7.0667

>  <SCORE.INTRA.norm>
0.225258

>  <SCORE.RESTR>
0.44295

>  <SCORE.RESTR.CAVITY>
0.44295

>  <SCORE.RESTR.norm>
0.0105464

>  <SCORE.SYSTEM>
0

>  <SCORE.SYSTEM.CONST>
0

>  <SCORE.SYSTEM.DIHEDRAL>
0

>  <SCORE.SYSTEM.SOLV>
0

>  <SCORE.SYSTEM.norm>
0

>  <SCORE.heavy>
42

>  <SCORE.norm>
-0.255139

>  <RMSD>
4.821

$$$$
1fyp_lig
 OpenBabel11021811393D
libRbt.so/2013.1/901 2013/11/27
 42 45  0  0  0  0  0  0  0  0999 V2000
    4.5409    8.0292   26.5797 C   0  0  2  0  0  0  0  0  0  0  0  0
    5.0895    6.7205   26.9094 O   0  0  0  0  0  0  0  0  0  0  0  0
    6.6832    4.3593   30.0914 C   0  0  2  0  0  0  0  0  0  0  0  0
    7.0919    3.7876   31.3878 N   0  0  0  0  0  0  0  0  0  0  0  0
    2.5142    4.0096   27.6988 C   0  0  1  0  0  0  0  0  0  0  0  0
    0.5081    0.4246   26.1416 C   0  0  1  0  0  0  0  0  0  0  0  0
    2.9835    8.0457   26.7070 C   0  0  2  0  0  0  0  0  0  0  0  0
    2.5465    7.5087   28.0133 N   0  0  0  0  0  0  0  0  0  0  0  0
    7.1532    5.8252   30.0063 C   0  0  0  0  0  0  0  0  0  0  0  0
    3.0119    2.5950   28.0069 C   0  0  2  0  0  0  0  0  0  0  0  0
    4.0138    2.2246   27.0591 O   0  0  0  0  0  0  0  0  0  0  0  0
    0.3912    0.1504   24.6112 C   0  0  2  0  0  0  0  0  0  0  0  0
    0.3018    1.3972   23.8125 N   0  0  0  0  0  0  0  0  0  0  0  0
    2.3219    7.2435   25.5431 C   0  0  1  0  0  0  0  0  0  0  0  0
    0.9056    7.3995   25.5813 O   0  0  0  0  0  0  0  0  0  0  0  0
    6.7792    6.4846   28.6507 C   0  0  2  0  0  0  0  0  0  0  0  0
    7.2001    7.9000   28.7058 N   0  0  0  0  0  0  0  0  0  0  0  0
    1.7375    1.7668   27.8211 C   0  0  2  0  0  0  0  0  0  0  0  0
    1.5032    1.4432   26.4222 O   0  0  0  0  0  0  0  0  0  0  0  0
   -0.8039   -0.8048   24.3074 C   0  0  1  0  0  0  0  0  0  0  0  0
   -0.4491   -2.1216   24.7241 O   0  0  0  0  0  0  0  0  0  0  0  0
    2.8319    7.7124   24.1573 C   0  0  2  0  0  0  0  0  0  0  0  0
    2.2642    6.8832   23.1479 O   0  0  0  0  0  0  0  0  0  0  0  0
    5.2513    6.3531   28.3094 C   0  0  2  0  0  0  0  0  0  0  0  0
    0.6545    2.7213   28.3430 C   0  0  2  0  0  0  0  0  0  0  0  0
    1.1194    4.0510   28.0400 O   0  0  0  0  0  0  0  0  0  0  0  0
   -2.1322   -0.4088   25.0207 C   0  0  2  0  0  0  0  0  0  0  0  0
   -2.6681    0.7466   24.3738 O   0  0  0  0  0  0  0  0  0  0  0  0
    4.3850    7.6532   24.1049 C   0  0  2  0  0  0  0  0  0  0  0  0
    4.9307    8.4201   25.2202 O   0  0  0  0  0  0  0  0  0  0  0  0
    4.6976    4.8992   28.5330 C   0  0  2  0  0  0  0  0  0  0  0  0
    3.2476    4.9616   28.5207 O   0  0  0  0  0  0  0  0  0  0  0  0
    0.4039    2.5802   29.8549 C   0  0  0  0  0  0  0  0  0  0  0  0
    1.5675    2.9106   30.5928 O   0  0  0  0  0  0  0  0  0  0  0  0
   -1.8826   -0.1130   26.5321 C   0  0  1  0  0  0  0  0  0  0  0  0
   -0.7938    0.8504   26.6700 O   0  0  0  0  0  0  0  0  0  0  0  0
    5.0132    8.2350   22.8188 C   0  0  0  0  0  0  0  0  0  0  0  0
    6.3118    8.7470   23.0662 O   0  0  0  0  0  0  0  0  0  0  0  0
    5.1509    4.2773   29.8903 C   0  0  1  0  0  0  0  0  0  0  0  0
    4.7466    2.9095   29.9264 O   0  0  0  0  0  0  0  0  0  0  0  0
   -3.1408    0.4401   27.2491 C   0  0  0  0  0  0  0  0  0  0  0  0
   -3.4427    1.8307   26.8644 N   0  0  0  0  0  0  0  0  0  0  0  0
  1  2  1  6  0  0  0
  1  7  1  0  0  0  0
  1 30  1  0  0  0  0
  3  4  1  1  0  0  0
  3  9  1  0  0  0  0
  3 39  1  0  0  0  0
  5 10  1  0  0  0  0
  5 26  1  0  0  0  0
  5 32  1  1  0  0  0
  6 12  1  0  0  0  0
  6 36  1  0  0  0  0
  6 19  1  6  0  0  0
  7  8  1  1  0  0  0
  7 14  1  0  0  0  0
  9 16  1  0  0  0  0
 10 11  1  6  0  0  0
 10 18  1  0  0  0  0
 12 13  1  6  0  0  0
 12 20  1  0  0  0  0
 14 15  1  6  0  0  0
 14 22  1  0  0  0  0
 16 17  1  1  0  0  0
 16 24  1  0  0  0  0
 18 19  1  6  0  0  0
 18 25  1  0  0  0  0
 20 21  1  1  0  0  0
 20 27  1  0  0  0  0
 22 23  1  6  0  0  0
 22 29  1  0  0  0  0
 24  2  1  6  0  0  0
 24 31  1  0  0  0  0
 25 26  1  0  0  0  0
 25 33  1  1  0  0  0
 27 28  1  6  0  0  0
 27 35  1  0  0  0  0
 29 30  1  0  0  0  0
 29 37  1  6  0  0  0
 31 32  1  1  0  0  0
 31 39  1  0  0  0  0
 33 34  1  0  0  0  0
 35 36  1  0  0  0  0
 35 41  1  6  0  0  0
 37 38  1  0  0  0  0
 39 40  1  6  0  0  0
 41 42  1  0  0  0  0
M  END
>  <CHROM.1>
-79.88040422,-103.60607477,-63.13931828,172.86415035,-162.36723993,-87.10929366
-172.69184999,155.37337485,166.67125075,-178.32235831,-175.52964162,72.94315404
62.49151685,74.27503144,151.44305494,131.52147215,50.89529045,-68.94830024
-72.66003607,55.58806992,55.56409312,-96.06708460,2.46981808,4.07267102,26.88888825
0.38168280,-0.72327415,-0.84741736

>  <Name>
1fyp_lig

>  <RI>
0

>  <Rbt.Current_Directory>
/home/itssahil/PROJECTS/Mol_Feturizer/New_Systems/rnas/1fyp

>  <Rbt.Executable>
rbdock ($Id: //depot/dev/client3/rdock/2013.1/src/exe/rbdock.cxx#4 $)

>  <Rbt.Library>
libRbt.so (2013.1, Build901 2013/11/27)

>  <Rbt.Parameter_File>
/export/apps/rDock/src/rDock_2013.1_src/data/scripts/dock_solv.prm

>  <Rbt.Receptor>
prm/pocket_docking_5.prm

>  <SCORE>
-37.369

>  <SCORE.INTER>
-30.2623

>  <SCORE.INTER.CONST>
1

>  <SCORE.INTER.POLAR>
-3.56155

>  <SCORE.INTER.ROT>
14

>  <SCORE.INTER.SOLV>
17.4788

>  <SCORE.INTER.VDW>
-27.0627

>  <SCORE.INTER.norm>
-0.720532

>  <SCORE.INTRA>
-7.10668

>  <SCORE.INTRA.DIHEDRAL>
-21.8417

>  <SCORE.INTRA.DIHEDRAL.0>
48.7173

>  <SCORE.INTRA.POLAR>
0.167177

>  <SCORE.INTRA.POLAR.0>
-1.54691

>  <SCORE.INTRA.REPUL>
0.016937

>  <SCORE.INTRA.REPUL.0>
0

>  <SCORE.INTRA.SOLV>
1.12554

>  <SCORE.INTRA.SOLV.lig_0>
-64.052

>  <SCORE.INTRA.VDW>
2.5983

>  <SCORE.INTRA.VDW.0>
-7.0667

>  <SCORE.INTRA.norm>
-0.169207

>  <SCORE.RESTR>
0

>  <SCORE.RESTR.CAVITY>
0

>  <SCORE.RESTR.norm>
0

>  <SCORE.SYSTEM>
0

>  <SCORE.SYSTEM.CONST>
0

>  <SCORE.SYSTEM.DIHEDRAL>
0

>  <SCORE.SYSTEM.SOLV>
0

>  <SCORE.SYSTEM.norm>
0

>  <SCORE.heavy>
42

>  <SCORE.norm>
-0.889739

>  <RMSD>
4.826

$$$$
1fyp_lig
 OpenBabel11021811393D
libRbt.so/2013.1/901 2013/11/27
 42 45  0  0  0  0  0  0  0  0999 V2000
    3.8630    7.4629   25.2843 C   0  0  2  0  0  0  0  0  0  0  0  0
    4.0402    6.0238   25.4251 O   0  0  0  0  0  0  0  0  0  0  0  0
    5.3871    4.8454   29.3030 C   0  0  2  0  0  0  0  0  0  0  0  0
    5.5187    4.3693   30.6924 N   0  0  0  0  0  0  0  0  0  0  0  0
    2.8624    2.8363   26.1464 C   0  0  1  0  0  0  0  0  0  0  0  0
   -0.9027    0.5218   25.7175 C   0  0  1  0  0  0  0  0  0  0  0  0
    2.9224    7.8092   24.0853 C   0  0  2  0  0  0  0  0  0  0  0  0
    1.6619    7.0396   24.1529 N   0  0  0  0  0  0  0  0  0  0  0  0
    4.3256    5.9618   29.2417 C   0  0  0  0  0  0  0  0  0  0  0  0
    2.5881    1.4112   25.6591 C   0  0  2  0  0  0  0  0  0  0  0  0
    2.2443    1.4388   24.2732 O   0  0  0  0  0  0  0  0  0  0  0  0
   -0.2999   -0.8354   25.2426 C   0  0  2  0  0  0  0  0  0  0  0  0
    0.7186   -0.6669   24.1774 N   0  0  0  0  0  0  0  0  0  0  0  0
    3.6405    7.5536   22.7233 C   0  0  1  0  0  0  0  0  0  0  0  0
    2.8328    8.0217   21.6462 O   0  0  0  0  0  0  0  0  0  0  0  0
    4.1536    6.5311   27.8069 C   0  0  2  0  0  0  0  0  0  0  0  0
    3.0645    7.5292   27.8449 N   0  0  0  0  0  0  0  0  0  0  0  0
    1.3883    1.0102   26.5217 C   0  0  2  0  0  0  0  0  0  0  0  0
    0.1366    1.5035   25.9682 O   0  0  0  0  0  0  0  0  0  0  0  0
   -1.4265   -1.8192   24.7998 C   0  0  1  0  0  0  0  0  0  0  0  0
   -2.0998   -2.2915   25.9648 O   0  0  0  0  0  0  0  0  0  0  0  0
    5.0148    8.2654   22.6539 C   0  0  2  0  0  0  0  0  0  0  0  0
    5.6571    7.9183   21.4309 O   0  0  0  0  0  0  0  0  0  0  0  0
    3.8721    5.4150   26.7376 C   0  0  2  0  0  0  0  0  0  0  0  0
    1.7017    1.7075   27.8529 C   0  0  2  0  0  0  0  0  0  0  0  0
    2.4188    2.9094   27.5109 O   0  0  0  0  0  0  0  0  0  0  0  0
   -2.4856   -1.1864   23.8471 C   0  0  2  0  0  0  0  0  0  0  0  0
   -1.8927   -1.0145   22.5589 O   0  0  0  0  0  0  0  0  0  0  0  0
    5.8957    7.8591   23.8694 C   0  0  2  0  0  0  0  0  0  0  0  0
    5.1607    8.1232   25.1022 O   0  0  0  0  0  0  0  0  0  0  0  0
    4.8412    4.1846   26.8681 C   0  0  2  0  0  0  0  0  0  0  0  0
    4.2940    3.0937   26.0828 O   0  0  0  0  0  0  0  0  0  0  0  0
    2.5457    0.8403   28.8038 C   0  0  0  0  0  0  0  0  0  0  0  0
    3.9151    0.8798   28.4418 O   0  0  0  0  0  0  0  0  0  0  0  0
   -2.9788    0.1864   24.4008 C   0  0  1  0  0  0  0  0  0  0  0  0
   -1.8294    1.0355   24.7013 O   0  0  0  0  0  0  0  0  0  0  0  0
    7.2360    8.6194   23.9821 C   0  0  0  0  0  0  0  0  0  0  0  0
    7.0260   10.0118   24.1450 O   0  0  0  0  0  0  0  0  0  0  0  0
    5.0078    3.6946   28.3401 C   0  0  1  0  0  0  0  0  0  0  0  0
    6.0267    2.6966   28.3792 O   0  0  0  0  0  0  0  0  0  0  0  0
   -3.9118    0.9301   23.4111 C   0  0  0  0  0  0  0  0  0  0  0  0
   -4.6351    0.0074   22.5174 N   0  0  0  0  0  0  0  0  0  0  0  0
  1  2  1  6  0  0  0
  1  7  1  0  0  0  0
  1 30  1  0  0  0  0
  3  4  1  1  0  0  0
  3  9  1  0  0  0  0
  3 39  1  0  0  0  0
  5 10  1  0  0  0  0
  5 26  1  0  0  0  0
  5 32  1  1  0  0  0
  6 12  1  0  0  0  0
  6 36  1  0  0  0  0
  6 19  1  6  0  0  0
  7  8  1  6  0  0  0
  7 14  1  0  0  0  0
  9 16  1  0  0  0  0
 10 11  1  6  0  0  0
 10 18  1  0  0  0  0
 12 13  1  6  0  0  0
 12 20  1  0  0  0  0
 14 15  1  6  0  0  0
 14 22  1  0  0  0  0
 16 17  1  1  0  0  0
 16 24  1  0  0  0  0
 18 19  1  6  0  0  0
 18 25  1  0  0  0  0
 20 21  1  1  0  0  0
 20 27  1  0  0  0  0
 22 23  1  6  0  0  0
 22 29  1  0  0  0  0
 24  2  1  6  0  0  0
 24 31  1  0  0  0  0
 25 26  1  0  0  0  0
 25 33  1  1  0  0  0
 27 28  1  6  0  0  0
 27 35  1  0  0  0  0
 29 30  1  0  0  0  0
 29 37  1  1  0  0  0
 31 32  1  6  0  0  0
 31 39  1  0  0  0  0
 33 34  1  0  0  0  0
 35 36  1  0  0  0  0
 35 41  1  6  0  0  0
 37 38  1  0  0  0  0
 39 40  1  6  0  0  0
 41 42  1  0  0  0  0
M  END
>  <CHROM.1>
-131.27662439,-24.80115517,87.85123966,-13.99457698,179.74962225,166.57815331
178.96843427,-45.30139910,124.83538270,-35.40820094,176.44246431,172.83010147
79.86621032,73.24472415,61.51935370,-42.61999149,-160.73557321,-61.79061654
27.22340789,-62.70304944,-53.45705777,-173.84987759,2.37225547,3.62340100
25.54314183,0.50247020,-0.73418375,-0.81872369

>  <Name>
1fyp_lig

>  <RI>
0

>  <Rbt.Current_Directory>
/home/itssahil/PROJECTS/Mol_Feturizer/New_Systems/rnas/1fyp

>  <Rbt.Executable>
rbdock ($Id: //depot/dev/client3/rdock/2013.1/src/exe/rbdock.cxx#4 $)

>  <Rbt.Library>
libRbt.so (2013.1, Build901 2013/11/27)

>  <Rbt.Parameter_File>
/export/apps/rDock/src/rDock_2013.1_src/data/scripts/dock_solv.prm

>  <Rbt.Receptor>
prm/pocket_docking_5.prm

>  <SCORE>
-48.05

>  <SCORE.INTER>
-49.9661

>  <SCORE.INTER.CONST>
1

>  <SCORE.INTER.POLAR>
-7.08366

>  <SCORE.INTER.ROT>
14

>  <SCORE.INTER.SOLV>
22.6427

>  <SCORE.INTER.VDW>
-30.1795

>  <SCORE.INTER.norm>
-1.18967

>  <SCORE.INTRA>
1.90541

>  <SCORE.INTRA.DIHEDRAL>
-15.1234

>  <SCORE.INTRA.DIHEDRAL.0>
48.7173

>  <SCORE.INTRA.POLAR>
0.586041

>  <SCORE.INTRA.POLAR.0>
-1.54691

>  <SCORE.INTRA.REPUL>
0.0919447

>  <SCORE.INTRA.REPUL.0>
0

>  <SCORE.INTRA.SOLV>
1.1354

>  <SCORE.INTRA.SOLV.lig_0>
-64.052

>  <SCORE.INTRA.VDW>
6.44716

>  <SCORE.INTRA.VDW.0>
-7.0667

>  <SCORE.INTRA.norm>
0.0453668

>  <SCORE.RESTR>
0.0107839

>  <SCORE.RESTR.CAVITY>
0.0107839

>  <SCORE.RESTR.norm>
0.00025676

>  <SCORE.SYSTEM>
0

>  <SCORE.SYSTEM.CONST>
0

>  <SCORE.SYSTEM.DIHEDRAL>
0

>  <SCORE.SYSTEM.SOLV>
0

>  <SCORE.SYSTEM.norm>
0

>  <SCORE.heavy>
42

>  <SCORE.norm>
-1.14405

>  <RMSD>
4.832

$$$$
1fyp_lig
 OpenBabel11021811393D
libRbt.so/2013.1/901 2013/11/27
 42 45  0  0  0  0  0  0  0  0999 V2000
    6.2653    4.2132   29.7584 C   0  0  2  0  0  0  0  0  0  0  0  0
    5.7729    2.9607   29.2005 O   0  0  0  0  0  0  0  0  0  0  0  0
    4.3719    4.8439   25.6324 C   0  0  2  0  0  0  0  0  0  0  0  0
    3.8160    5.1710   24.3063 N   0  0  0  0  0  0  0  0  0  0  0  0
    1.6613    2.7440   28.0420 C   0  0  1  0  0  0  0  0  0  0  0  0
   -2.0468    0.7609   26.9039 C   0  0  1  0  0  0  0  0  0  0  0  0
    7.0986    3.9725   31.0583 C   0  0  2  0  0  0  0  0  0  0  0  0
    8.1396    2.9445   30.8453 N   0  0  0  0  0  0  0  0  0  0  0  0
    5.4895    3.7936   25.4752 C   0  0  0  0  0  0  0  0  0  0  0  0
    1.2777    1.3958   28.6575 C   0  0  2  0  0  0  0  0  0  0  0  0
    1.8897    0.3407   27.9147 O   0  0  0  0  0  0  0  0  0  0  0  0
   -2.6365   -0.3333   27.8453 C   0  0  2  0  0  0  0  0  0  0  0  0
   -1.7990   -1.5566   27.8945 N   0  0  0  0  0  0  0  0  0  0  0  0
    6.1712    3.5659   32.2460 C   0  0  1  0  0  0  0  0  0  0  0  0
    6.9209    3.5052   33.4567 O   0  0  0  0  0  0  0  0  0  0  0  0
    6.1411    3.4207   26.8349 C   0  0  2  0  0  0  0  0  0  0  0  0
    7.1348    2.3566   26.5825 N   0  0  0  0  0  0  0  0  0  0  0  0
   -0.2431    1.3913   28.4797 C   0  0  2  0  0  0  0  0  0  0  0  0
   -0.6294    0.9588   27.1455 O   0  0  0  0  0  0  0  0  0  0  0  0
   -4.1085   -0.6690   27.4534 C   0  0  1  0  0  0  0  0  0  0  0  0
   -4.9429    0.4159   27.8537 O   0  0  0  0  0  0  0  0  0  0  0  0
    5.0067    4.5697   32.4375 C   0  0  2  0  0  0  0  0  0  0  0  0
    4.1485    4.0948   33.4704 O   0  0  0  0  0  0  0  0  0  0  0  0
    5.0889    2.9790   27.9147 C   0  0  2  0  0  0  0  0  0  0  0  0
   -0.5962    2.8703   28.6910 C   0  0  2  0  0  0  0  0  0  0  0  0
    0.5349    3.6202   28.2069 O   0  0  0  0  0  0  0  0  0  0  0  0
   -4.3215   -0.9113   25.9283 C   0  0  2  0  0  0  0  0  0  0  0  0
   -3.7602   -2.1798   25.5871 O   0  0  0  0  0  0  0  0  0  0  0  0
    4.2189    4.7434   31.1080 C   0  0  2  0  0  0  0  0  0  0  0  0
    5.1480    5.1194   30.0473 O   0  0  0  0  0  0  0  0  0  0  0  0
    3.8534    3.9470   27.9967 C   0  0  2  0  0  0  0  0  0  0  0  0
    2.8097    3.2835   28.7562 O   0  0  0  0  0  0  0  0  0  0  0  0
   -0.8715    3.2200   30.1642 C   0  0  0  0  0  0  0  0  0  0  0  0
   -2.2069    3.6611   30.3375 O   0  0  0  0  0  0  0  0  0  0  0  0
   -3.6491    0.2189   25.0886 C   0  0  1  0  0  0  0  0  0  0  0  0
   -2.2577    0.3760   25.5030 O   0  0  0  0  0  0  0  0  0  0  0  0
    3.1221    5.8310   31.1413 C   0  0  0  0  0  0  0  0  0  0  0  0
    2.8878    6.3656   29.8495 O   0  0  0  0  0  0  0  0  0  0  0  0
    3.2788    4.3205   26.5949 C   0  0  1  0  0  0  0  0  0  0  0  0
    2.2807    5.3264   26.7610 O   0  0  0  0  0  0  0  0  0  0  0  0
   -3.6944   -0.0610   23.5645 C   0  0  0  0  0  0  0  0  0  0  0  0
   -2.9304   -1.2648   23.1901 N   0  0  0  0  0  0  0  0  0  0  0  0
  1  2  1  1  0  0  0
  1  7  1  0  0  0  0
  1 30  1  0  0  0  0
  3  4  1  6  0  0  0
  3  9  1  0  0  0  0
  3 39  1  0  0  0  0
  5 10  1  0  0  0  0
  5 26  1  0  0  0  0
  5 32  1  1  0  0  0
  6 12  1  0  0  0  0
  6 36  1  0  0  0  0
  6 19  1  6  0  0  0
  7  8  1  6  0  0  0
  7 14  1  0  0  0  0
  9 16  1  0  0  0  0
 10 11  1  6  0  0  0
 10 18  1  0  0  0  0
 12 13  1  6  0  0  0
 12 20  1  0  0  0  0
 14 15  1  1  0  0  0
 14 22  1  0  0  0  0
 16 17  1  6  0  0  0
 16 24  1  0  0  0  0
 18 19  1  6  0  0  0
 18 25  1  0  0  0  0
 20 21  1  6  0  0  0
 20 27  1  0  0  0  0
 22 23  1  1  0  0  0
 22 29  1  0  0  0  0
 24  2  1  1  0  0  0
 24 31  1  0  0  0  0
 25 26  1  0  0  0  0
 25 33  1  1  0  0  0
 27 28  1  6  0  0  0
 27 35  1  0  0  0  0
 29 30  1  0  0  0  0
 29 37  1  1  0  0  0
 31 32  1  1  0  0  0
 31 39  1  0  0  0  0
 33 34  1  0  0  0  0
 35 36  1  0  0  0  0
 35 41  1  6  0  0  0
 37 38  1  0  0  0  0
 39 40  1  1  0  0  0
 41 42  1  0  0  0  0
M  END
>  <CHROM.1>
-173.92130296,65.32015078,-172.43156054,-36.05096114,-173.84099617,-172.08073047
64.88776312,-31.38681455,172.91956384,-60.44845807,-167.75637828,-53.39587038
-117.26412819,60.46083573,152.84994274,-105.08178907,140.13299100,56.34870819
-63.62054910,-161.85459897,-57.08992856,169.85973176,1.73677546,2.52125654
28.24463756,-0.45240593,-0.39103383,-1.74061235

>  <Name>
1fyp_lig

>  <RI>
0

>  <Rbt.Current_Directory>
/home/itssahil/PROJECTS/Mol_Feturizer/New_Systems/rnas/1fyp

>  <Rbt.Executable>
rbdock ($Id: //depot/dev/client3/rdock/2013.1/src/exe/rbdock.cxx#4 $)

>  <Rbt.Library>
libRbt.so (2013.1, Build901 2013/11/27)

>  <Rbt.Parameter_File>
/export/apps/rDock/src/rDock_2013.1_src/data/scripts/dock_solv.prm

>  <Rbt.Receptor>
prm/pocket_docking_5.prm

>  <SCORE>
-44.5721

>  <SCORE.INTER>
-40.3073

>  <SCORE.INTER.CONST>
1

>  <SCORE.INTER.POLAR>
-4.97598

>  <SCORE.INTER.ROT>
14

>  <SCORE.INTER.SOLV>
21.3831

>  <SCORE.INTER.VDW>
-30.346

>  <SCORE.INTER.norm>
-0.959698

>  <SCORE.INTRA>
-4.49376

>  <SCORE.INTRA.DIHEDRAL>
-23.7472

>  <SCORE.INTRA.DIHEDRAL.0>
48.7173

>  <SCORE.INTRA.POLAR>
0.876951

>  <SCORE.INTRA.POLAR.0>
-1.54691

>  <SCORE.INTRA.REPUL>
0

>  <SCORE.INTRA.REPUL.0>
0

>  <SCORE.INTRA.SOLV>
-1.16564

>  <SCORE.INTRA.SOLV.lig_0>
-64.052

>  <SCORE.INTRA.VDW>
4.98101

>  <SCORE.INTRA.VDW.0>
-7.0667

>  <SCORE.INTRA.norm>
-0.106994

>  <SCORE.RESTR>
0.229032

>  <SCORE.RESTR.CAVITY>
0.229032

>  <SCORE.RESTR.norm>
0.00545314

>  <SCORE.SYSTEM>
0

>  <SCORE.SYSTEM.CONST>
0

>  <SCORE.SYSTEM.DIHEDRAL>
0

>  <SCORE.SYSTEM.SOLV>
0

>  <SCORE.SYSTEM.norm>
0

>  <SCORE.heavy>
42

>  <SCORE.norm>
-1.06124

>  <RMSD>
4.837

$$$$
1fyp_lig
 OpenBabel11021811393D
libRbt.so/2013.1/901 2013/11/27
 42 45  0  0  0  0  0  0  0  0999 V2000
    3.9657    7.6308   25.9812 C   0  0  2  0  0  0  0  0  0  0  0  0
    4.1246    6.1886   26.1117 O   0  0  0  0  0  0  0  0  0  0  0  0
    3.6131    4.2868   29.9015 C   0  0  2  0  0  0  0  0  0  0  0  0
    3.1042    3.6313   31.1204 N   0  0  0  0  0  0  0  0  0  0  0  0
    2.2186    2.9910   25.9428 C   0  0  1  0  0  0  0  0  0  0  0  0
   -0.9312    0.4151   25.4973 C   0  0  1  0  0  0  0  0  0  0  0  0
    2.8509    7.9925   24.9474 C   0  0  2  0  0  0  0  0  0  0  0  0
    1.5983    7.2604   25.2314 N   0  0  0  0  0  0  0  0  0  0  0  0
    2.8552    5.6103   29.6763 C   0  0  0  0  0  0  0  0  0  0  0  0
    1.7850    1.6701   26.5839 C   0  0  2  0  0  0  0  0  0  0  0  0
    1.8683    0.6211   25.6185 O   0  0  0  0  0  0  0  0  0  0  0  0
   -0.2801   -0.0364   24.1544 C   0  0  2  0  0  0  0  0  0  0  0  0
   -0.4393    0.9691   23.0756 N   0  0  0  0  0  0  0  0  0  0  0  0
    3.3289    7.7030   23.4901 C   0  0  1  0  0  0  0  0  0  0  0  0
    2.3684    8.1838   22.5530 O   0  0  0  0  0  0  0  0  0  0  0  0
    3.3604    6.3705   28.4195 C   0  0  2  0  0  0  0  0  0  0  0  0
    2.5193    7.5737   28.2513 N   0  0  0  0  0  0  0  0  0  0  0  0
    0.3303    1.9662   26.9590 C   0  0  2  0  0  0  0  0  0  0  0  0
   -0.5670    1.7804   25.8291 O   0  0  0  0  0  0  0  0  0  0  0  0
   -0.8234   -1.4309   23.7148 C   0  0  1  0  0  0  0  0  0  0  0  0
   -0.2547   -2.4269   24.5623 O   0  0  0  0  0  0  0  0  0  0  0  0
    4.6919    8.3740   23.1866 C   0  0  2  0  0  0  0  0  0  0  0  0
    5.1154    7.9966   21.8801 O   0  0  0  0  0  0  0  0  0  0  0  0
    3.3544    5.4804   27.1249 C   0  0  2  0  0  0  0  0  0  0  0  0
    0.3960    3.4470   27.3582 C   0  0  2  0  0  0  0  0  0  0  0  0
    1.4303    4.0313   26.5429 O   0  0  0  0  0  0  0  0  0  0  0  0
   -2.3753   -1.5599   23.7839 C   0  0  2  0  0  0  0  0  0  0  0  0
   -2.9418   -0.8091   22.7087 O   0  0  0  0  0  0  0  0  0  0  0  0
    5.7488    7.9542   24.2473 C   0  0  2  0  0  0  0  0  0  0  0  0
    5.2332    8.2515   25.5798 O   0  0  0  0  0  0  0  0  0  0  0  0
    3.9832    4.0589   27.3571 C   0  0  2  0  0  0  0  0  0  0  0  0
    3.6280    3.2184   26.2284 O   0  0  0  0  0  0  0  0  0  0  0  0
    0.7161    3.6560   28.8490 C   0  0  0  0  0  0  0  0  0  0  0  0
   -0.2869    3.0790   29.6667 O   0  0  0  0  0  0  0  0  0  0  0  0
   -2.9146   -1.0349   25.1506 C   0  0  1  0  0  0  0  0  0  0  0  0
   -2.3921    0.3054   25.4017 O   0  0  0  0  0  0  0  0  0  0  0  0
    7.1095    8.6764   24.1284 C   0  0  0  0  0  0  0  0  0  0  0  0
    7.2484    9.3087   22.8673 O   0  0  0  0  0  0  0  0  0  0  0  0
    3.4708    3.3722   28.6611 C   0  0  1  0  0  0  0  0  0  0  0  0
    4.2179    2.1754   28.8739 O   0  0  0  0  0  0  0  0  0  0  0  0
   -4.4632   -0.9924   25.2060 C   0  0  0  0  0  0  0  0  0  0  0  0
   -5.0675   -2.3327   25.0986 N   0  0  0  0  0  0  0  0  0  0  0  0
  1  2  1  6  0  0  0
  1  7  1  0  0  0  0
  1 30  1  0  0  0  0
  3  4  1  1  0  0  0
  3  9  1  0  0  0  0
  3 39  1  0  0  0  0
  5 10  1  0  0  0  0
  5 26  1  0  0  0  0
  5 32  1  1  0  0  0
  6 12  1  0  0  0  0
  6 36  1  0  0  0  0
  6 19  1  6  0  0  0
  7  8  1  1  0  0  0
  7 14  1  0  0  0  0
  9 16  1  0  0  0  0
 10 11  1  6  0  0  0
 10 18  1  0  0  0  0
 12 13  1  6  0  0  0
 12 20  1  0  0  0  0
 14 15  1  6  0  0  0
 14 22  1  0  0  0  0
 16 17  1  6  0  0  0
 16 24  1  0  0  0  0
 18 19  1  6  0  0  0
 18 25  1  0  0  0  0
 20 21  1  1  0  0  0
 20 27  1  0  0  0  0
 22 23  1  6  0  0  0
 22 29  1  0  0  0  0
 24  2  1  6  0  0  0
 24 31  1  0  0  0  0
 25 26  1  0  0  0  0
 25 33  1  1  0  0  0
 27 28  1  6  0  0  0
 27 35  1  0  0  0  0
 29 30  1  0  0  0  0
 29 37  1  6  0  0  0
 31 32  1  6  0  0  0
 31 39  1  0  0  0  0
 33 34  1  0  0  0  0
 35 36  1  0  0  0  0
 35 41  1  6  0  0  0
 37 38  1  0  0  0  0
 39 40  1  1  0  0  0
 41 42  1  0  0  0  0
M  END
>  <CHROM.1>
-91.23107500,-40.97884635,-48.45796891,167.87510014,-178.04382542,115.44123599
-70.12567672,121.30153976,78.33622341,-109.95569166,-63.42652576,-179.27052175
-61.30542134,-59.07846421,-15.92917344,-59.40861568,-95.98749760,-64.62163852
63.87432052,83.73367116,171.10802347,73.98479128,1.71803942,3.69951632,25.85946687
0.16811993,-0.88328276,-1.33909181

>  <Name>
1fyp_lig

>  <RI>
0

>  <Rbt.Current_Directory>
/home/itssahil/PROJECTS/Mol_Feturizer/New_Systems/rnas/1fyp

>  <Rbt.Executable>
rbdock ($Id: //depot/dev/client3/rdock/2013.1/src/exe/rbdock.cxx#4 $)

>  <Rbt.Library>
libRbt.so (2013.1, Build901 2013/11/27)

>  <Rbt.Parameter_File>
/export/apps/rDock/src/rDock_2013.1_src/data/scripts/dock_solv.prm

>  <Rbt.Receptor>
prm/blind_docking_80.prm

>  <SCORE>
-44.1178

>  <SCORE.INTER>
-48.1231

>  <SCORE.INTER.CONST>
1

>  <SCORE.INTER.POLAR>
-6.17434

>  <SCORE.INTER.ROT>
14

>  <SCORE.INTER.SOLV>
17.327

>  <SCORE.INTER.VDW>
-30.2099

>  <SCORE.INTER.norm>
-1.14579

>  <SCORE.INTRA>
3.70712

>  <SCORE.INTRA.DIHEDRAL>
-16.2833

>  <SCORE.INTRA.DIHEDRAL.0>
48.7173

>  <SCORE.INTRA.POLAR>
-0.122848

>  <SCORE.INTRA.POLAR.0>
-1.54691

>  <SCORE.INTRA.REPUL>
0

>  <SCORE.INTRA.REPUL.0>
0

>  <SCORE.INTRA.SOLV>
1.79603

>  <SCORE.INTRA.SOLV.lig_0>
-64.052

>  <SCORE.INTRA.VDW>
11.3684

>  <SCORE.INTRA.VDW.0>
-7.0667

>  <SCORE.INTRA.norm>
0.0882647

>  <SCORE.RESTR>
0.298162

>  <SCORE.RESTR.CAVITY>
0.298162

>  <SCORE.RESTR.norm>
0.00709909

>  <SCORE.SYSTEM>
0

>  <SCORE.SYSTEM.CONST>
0

>  <SCORE.SYSTEM.DIHEDRAL>
0

>  <SCORE.SYSTEM.SOLV>
0

>  <SCORE.SYSTEM.norm>
0

>  <SCORE.heavy>
42

>  <SCORE.norm>
-1.05042

>  <RMSD>
4.844

$$$$
1fyp_lig
 OpenBabel11021811393D
libRbt.so/2013.1/901 2013/11/27
 42 45  0  0  0  0  0  0  0  0999 V2000
    4.2192    6.0597   25.4233 C   0  0  2  0  0  0  0  0  0  0  0  0
    3.9285    6.5886   26.7493 O   0  0  0  0  0  0  0  0  0  0  0  0
    3.8106    4.6499   30.5530 C   0  0  2  0  0  0  0  0  0  0  0  0
    3.4527    3.8917   31.7661 N   0  0  0  0  0  0  0  0  0  0  0  0
    2.9663    2.9591   26.6035 C   0  0  1  0  0  0  0  0  0  0  0  0
   -0.3446    0.5627   26.1552 C   0  0  1  0  0  0  0  0  0  0  0  0
    5.7580    5.9837   25.1621 C   0  0  2  0  0  0  0  0  0  0  0  0
    6.4556    5.2901   26.2658 N   0  0  0  0  0  0  0  0  0  0  0  0
    2.7343    5.7197   30.2807 C   0  0  0  0  0  0  0  0  0  0  0  0
    3.2042    1.7805   25.6559 C   0  0  2  0  0  0  0  0  0  0  0  0
    2.9972    2.2030   24.3075 O   0  0  0  0  0  0  0  0  0  0  0  0
   -0.4078   -0.9903   26.0316 C   0  0  2  0  0  0  0  0  0  0  0  0
   -0.1520   -1.4644   24.6495 N   0  0  0  0  0  0  0  0  0  0  0  0
    6.3578    7.4094   24.9536 C   0  0  1  0  0  0  0  0  0  0  0  0
    7.7247    7.3151   24.5605 O   0  0  0  0  0  0  0  0  0  0  0  0
    3.0619    6.5774   29.0279 C   0  0  2  0  0  0  0  0  0  0  0  0
    1.9358    7.5095   28.8119 N   0  0  0  0  0  0  0  0  0  0  0  0
    2.1205    0.7953   26.1025 C   0  0  2  0  0  0  0  0  0  0  0  0
    0.8329    1.0984   25.4970 O   0  0  0  0  0  0  0  0  0  0  0  0
   -1.7634   -1.5364   26.5768 C   0  0  1  0  0  0  0  0  0  0  0  0
   -1.7494   -1.4454   27.9999 O   0  0  0  0  0  0  0  0  0  0  0  0
    5.5876    8.2059   23.8707 C   0  0  2  0  0  0  0  0  0  0  0  0
    6.1220    9.5240   23.7948 O   0  0  0  0  0  0  0  0  0  0  0  0
    3.3405    5.7080   27.7493 C   0  0  2  0  0  0  0  0  0  0  0  0
    2.0737    1.0337   27.6182 C   0  0  2  0  0  0  0  0  0  0  0  0
    2.4002    2.4238   27.8105 O   0  0  0  0  0  0  0  0  0  0  0  0
   -3.0155   -0.7707   26.0514 C   0  0  2  0  0  0  0  0  0  0  0  0
   -3.2251   -1.1272   24.6841 O   0  0  0  0  0  0  0  0  0  0  0  0
    4.0703    8.2490   24.2087 C   0  0  2  0  0  0  0  0  0  0  0  0
    3.5821    6.8859   24.3915 O   0  0  0  0  0  0  0  0  0  0  0  0
    4.3184    4.5092   28.0261 C   0  0  2  0  0  0  0  0  0  0  0  0
    4.2417    3.5951   26.9013 O   0  0  0  0  0  0  0  0  0  0  0  0
    3.0591    0.1459   28.3990 C   0  0  0  0  0  0  0  0  0  0  0  0
    3.0318    0.4558   29.7813 O   0  0  0  0  0  0  0  0  0  0  0  0
   -2.8170    0.7713   26.1819 C   0  0  1  0  0  0  0  0  0  0  0  0
   -1.5506    1.1567   25.5652 O   0  0  0  0  0  0  0  0  0  0  0  0
    3.1818    8.8950   23.1222 C   0  0  0  0  0  0  0  0  0  0  0  0
    2.0486    9.5274   23.6927 O   0  0  0  0  0  0  0  0  0  0  0  0
    3.9626    3.7207   29.3246 C   0  0  1  0  0  0  0  0  0  0  0  0
    4.9949    2.7699   29.5819 O   0  0  0  0  0  0  0  0  0  0  0  0
   -3.9655    1.5798   25.5259 C   0  0  0  0  0  0  0  0  0  0  0  0
   -3.9698    1.4614   24.0566 N   0  0  0  0  0  0  0  0  0  0  0  0
  1  2  1  1  0  0  0
  1  7  1  0  0  0  0
  1 30  1  0  0  0  0
  3  4  1  1  0  0  0
  3  9  1  0  0  0  0
  3 39  1  0  0  0  0
  5 10  1  0  0  0  0
  5 26  1  0  0  0  0
  5 32  1  1  0  0  0
  6 12  1  0  0  0  0
  6 36  1  0  0  0  0
  6 19  1  6  0  0  0
  7  8  1  1  0  0  0
  7 14  1  0  0  0  0
  9 16  1  0  0  0  0
 10 11  1  6  0  0  0
 10 18  1  0  0  0  0
 12 13  1  6  0  0  0
 12 20  1  0  0  0  0
 14 15  1  6  0  0  0
 14 22  1  0  0  0  0
 16 17  1  6  0  0  0
 16 24  1  0  0  0  0
 18 19  1  6  0  0  0
 18 25  1  0  0  0  0
 20 21  1  1  0  0  0
 20 27  1  0  0  0  0
 22 23  1  1  0  0  0
 22 29  1  0  0  0  0
 24  2  1  6  0  0  0
 24 31  1  0  0  0  0
 25 26  1  0  0  0  0
 25 33  1  1  0  0  0
 27 28  1  6  0  0  0
 27 35  1  0  0  0  0
 29 30  1  0  0  0  0
 29 37  1  6  0  0  0
 31 32  1  6  0  0  0
 31 39  1  0  0  0  0
 33 34  1  0  0  0  0
 35 36  1  0  0  0  0
 35 41  1  6  0  0  0
 37 38  1  0  0  0  0
 39 40  1  1  0  0  0
 41 42  1  0  0  0  0
M  END
>  <CHROM.1>
-112.01773044,-176.43908049,-53.66800008,-63.21438982,-71.68396833,-22.57087145
-176.64214870,-177.70972599,-159.57050126,-68.55900498,-33.86067497,-61.23352550
176.71140237,174.78044561,-149.32892165,-61.55525556,-164.63323530,-100.02469339
-68.64164727,-63.95067968,-58.04283487,106.42891264,2.25221277,3.57020848
26.49478731,0.57464083,-0.69092472,-0.84283067

>  <Name>
1fyp_lig

>  <RI>
0

>  <Rbt.Current_Directory>
/home/itssahil/PROJECTS/Mol_Feturizer/New_Systems/rnas/1fyp

>  <Rbt.Executable>
rbdock ($Id: //depot/dev/client3/rdock/2013.1/src/exe/rbdock.cxx#4 $)

>  <Rbt.Library>
libRbt.so (2013.1, Build901 2013/11/27)

>  <Rbt.Parameter_File>
/export/apps/rDock/src/rDock_2013.1_src/data/scripts/dock_solv.prm

>  <Rbt.Receptor>
prm/blind_docking_100.prm

>  <SCORE>
-48.454

>  <SCORE.INTER>
-41.9642

>  <SCORE.INTER.CONST>
1

>  <SCORE.INTER.POLAR>
-4.81228

>  <SCORE.INTER.ROT>
14

>  <SCORE.INTER.SOLV>
20.8521

>  <SCORE.INTER.VDW>
-31.8192

>  <SCORE.INTER.norm>
-0.999148

>  <SCORE.INTRA>
-6.48977

>  <SCORE.INTRA.DIHEDRAL>
-21.8938

>  <SCORE.INTRA.DIHEDRAL.0>
48.7173

>  <SCORE.INTRA.POLAR>
-0.564204

>  <SCORE.INTRA.POLAR.0>
-1.54691

>  <SCORE.INTRA.REPUL>
0

>  <SCORE.INTRA.REPUL.0>
0

>  <SCORE.INTRA.SOLV>
-0.59715

>  <SCORE.INTRA.SOLV.lig_0>
-64.052

>  <SCORE.INTRA.VDW>
6.67398

>  <SCORE.INTRA.VDW.0>
-7.0667

>  <SCORE.INTRA.norm>
-0.154518

>  <SCORE.RESTR>
0

>  <SCORE.RESTR.CAVITY>
0

>  <SCORE.RESTR.norm>
0

>  <SCORE.SYSTEM>
0

>  <SCORE.SYSTEM.CONST>
0

>  <SCORE.SYSTEM.DIHEDRAL>
0

>  <SCORE.SYSTEM.SOLV>
0

>  <SCORE.SYSTEM.norm>
0

>  <SCORE.heavy>
42

>  <SCORE.norm>
-1.15367

>  <RMSD>
4.846

$$$$
1fyp_lig
 OpenBabel11021811393D
libRbt.so/2013.1/901 2013/11/27
 42 45  0  0  0  0  0  0  0  0999 V2000
    3.4353    7.4238   26.1181 C   0  0  2  0  0  0  0  0  0  0  0  0
    3.2947    5.9738   26.1168 O   0  0  0  0  0  0  0  0  0  0  0  0
    3.9105    4.2210   29.9625 C   0  0  2  0  0  0  0  0  0  0  0  0
    3.7790    3.6127   31.2993 N   0  0  0  0  0  0  0  0  0  0  0  0
    1.4368    2.9690   26.4469 C   0  0  1  0  0  0  0  0  0  0  0  0
   -2.2584    0.9555   25.7990 C   0  0  1  0  0  0  0  0  0  0  0  0
    3.5977    7.9845   24.6686 C   0  0  2  0  0  0  0  0  0  0  0  0
    2.5388    7.4716   23.7734 N   0  0  0  0  0  0  0  0  0  0  0  0
    3.1021    5.5329   29.9142 C   0  0  0  0  0  0  0  0  0  0  0  0
    0.9769    1.5089   26.4328 C   0  0  2  0  0  0  0  0  0  0  0  0
    0.7463    1.0943   25.0858 O   0  0  0  0  0  0  0  0  0  0  0  0
   -3.0948    0.2115   26.8844 C   0  0  2  0  0  0  0  0  0  0  0  0
   -2.2868   -0.1652   28.0699 N   0  0  0  0  0  0  0  0  0  0  0  0
    5.0070    7.6393   24.0935 C   0  0  1  0  0  0  0  0  0  0  0  0
    5.1993    8.2897   22.8398 O   0  0  0  0  0  0  0  0  0  0  0  0
    3.2178    6.2443   28.5383 C   0  0  2  0  0  0  0  0  0  0  0  0
    2.3476    7.4381   28.5728 N   0  0  0  0  0  0  0  0  0  0  0  0
   -0.3323    1.5848   27.2231 C   0  0  2  0  0  0  0  0  0  0  0  0
   -1.4450    2.0049   26.3852 O   0  0  0  0  0  0  0  0  0  0  0  0
   -3.8194   -1.0280   26.2746 C   0  0  1  0  0  0  0  0  0  0  0  0
   -4.8991   -0.5688   25.4642 O   0  0  0  0  0  0  0  0  0  0  0  0
    6.1432    8.0735   25.0531 C   0  0  2  0  0  0  0  0  0  0  0  0
    7.3925    7.6487   24.5170 O   0  0  0  0  0  0  0  0  0  0  0  0
    2.8548    5.3042   27.3331 C   0  0  2  0  0  0  0  0  0  0  0  0
   -0.0125    2.6577   28.2734 C   0  0  2  0  0  0  0  0  0  0  0  0
    0.9098    3.5670   27.6422 O   0  0  0  0  0  0  0  0  0  0  0  0
   -2.9023   -1.9336   25.3979 C   0  0  2  0  0  0  0  0  0  0  0  0
   -2.0214   -2.6570   26.2590 O   0  0  0  0  0  0  0  0  0  0  0  0
    5.9187    7.4650   26.4664 C   0  0  2  0  0  0  0  0  0  0  0  0
    4.5850    7.8260   26.9363 O   0  0  0  0  0  0  0  0  0  0  0  0
    3.5428    3.8943   27.4285 C   0  0  2  0  0  0  0  0  0  0  0  0
    2.8919    3.0093   26.4800 O   0  0  0  0  0  0  0  0  0  0  0  0
    0.6097    2.0789   29.5565 C   0  0  0  0  0  0  0  0  0  0  0  0
    1.0731    3.1148   30.4049 O   0  0  0  0  0  0  0  0  0  0  0  0
   -2.0819   -1.0759   24.3852 C   0  0  1  0  0  0  0  0  0  0  0  0
   -1.3947   -0.0014   25.0963 O   0  0  0  0  0  0  0  0  0  0  0  0
    6.9134    7.9473   27.5458 C   0  0  0  0  0  0  0  0  0  0  0  0
    6.6739    7.3092   28.7888 O   0  0  0  0  0  0  0  0  0  0  0  0
    3.4327    3.2581   28.8490 C   0  0  1  0  0  0  0  0  0  0  0  0
    4.2254    2.0723   28.8837 O   0  0  0  0  0  0  0  0  0  0  0  0
   -1.0379   -1.9120   23.6014 C   0  0  0  0  0  0  0  0  0  0  0  0
   -1.1231   -1.6979   22.1455 N   0  0  0  0  0  0  0  0  0  0  0  0
  1  2  1  6  0  0  0
  1  7  1  0  0  0  0
  1 30  1  0  0  0  0
  3  4  1  1  0  0  0
  3  9  1  0  0  0  0
  3 39  1  0  0  0  0
  5 10  1  0  0  0  0
  5 26  1  0  0  0  0
  5 32  1  1  0  0  0
  6 12  1  0  0  0  0
  6 36  1  0  0  0  0
  6 19  1  1  0  0  0
  7  8  1  6  0  0  0
  7 14  1  0  0  0  0
  9 16  1  0  0  0  0
 10 11  1  6  0  0  0
 10 18  1  0  0  0  0
 12 13  1  1  0  0  0
 12 20  1  0  0  0  0
 14 15  1  6  0  0  0
 14 22  1  0  0  0  0
 16 17  1  1  0  0  0
 16 24  1  0  0  0  0
 18 19  1  6  0  0  0
 18 25  1  0  0  0  0
 20 21  1  6  0  0  0
 20 27  1  0  0  0  0
 22 23  1  6  0  0  0
 22 29  1  0  0  0  0
 24  2  1  6  0  0  0
 24 31  1  0  0  0  0
 25 26  1  0  0  0  0
 25 33  1  1  0  0  0
 27 28  1  1  0  0  0
 27 35  1  0  0  0  0
 29 30  1  0  0  0  0
 29 37  1  1  0  0  0
 31 32  1  6  0  0  0
 31 39  1  0  0  0  0
 33 34  1  0  0  0  0
 35 36  1  0  0  0  0
 35 41  1  1  0  0  0
 37 38  1  0  0  0  0
 39 40  1  6  0  0  0
 41 42  1  0  0  0  0
M  END
>  <CHROM.1>
-167.19536238,-24.05534030,66.88214848,59.09602769,-166.26069924,80.05420645
-64.03101598,17.37992190,94.64581367,69.31354065,-172.90747428,-65.39408870
171.04408602,68.46780545,-177.74376904,-47.49961994,-133.00136458,57.52433921
129.57159171,-56.32390140,173.56227577,57.73864455,1.69519003,3.47398884
26.68395516,0.04160574,-0.82727630,-1.41285225

>  <Name>
1fyp_lig

>  <RI>
0

>  <Rbt.Current_Directory>
/home/itssahil/PROJECTS/Mol_Feturizer/New_Systems/rnas/1fyp

>  <Rbt.Executable>
rbdock ($Id: //depot/dev/client3/rdock/2013.1/src/exe/rbdock.cxx#4 $)

>  <Rbt.Library>
libRbt.so (2013.1, Build901 2013/11/27)

>  <Rbt.Parameter_File>
/export/apps/rDock/src/rDock_2013.1_src/data/scripts/dock_solv.prm

>  <Rbt.Receptor>
prm/blind_docking_80.prm

>  <SCORE>
-46.2491

>  <SCORE.INTER>
-44.5781

>  <SCORE.INTER.CONST>
1

>  <SCORE.INTER.POLAR>
-6.13178

>  <SCORE.INTER.ROT>
14

>  <SCORE.INTER.SOLV>
12.384

>  <SCORE.INTER.VDW>
-26.3408

>  <SCORE.INTER.norm>
-1.06138

>  <SCORE.INTRA>
-1.67094

>  <SCORE.INTRA.DIHEDRAL>
-21.051

>  <SCORE.INTRA.DIHEDRAL.0>
48.7173

>  <SCORE.INTRA.POLAR>
-0.149849

>  <SCORE.INTRA.POLAR.0>
-1.54691

>  <SCORE.INTRA.REPUL>
0

>  <SCORE.INTRA.REPUL.0>
0

>  <SCORE.INTRA.SOLV>
1.21118

>  <SCORE.INTRA.SOLV.lig_0>
-64.052

>  <SCORE.INTRA.VDW>
8.75845

>  <SCORE.INTRA.VDW.0>
-7.0667

>  <SCORE.INTRA.norm>
-0.0397842

>  <SCORE.RESTR>
0

>  <SCORE.RESTR.CAVITY>
0

>  <SCORE.RESTR.norm>
0

>  <SCORE.SYSTEM>
0

>  <SCORE.SYSTEM.CONST>
0

>  <SCORE.SYSTEM.DIHEDRAL>
0

>  <SCORE.SYSTEM.SOLV>
0

>  <SCORE.SYSTEM.norm>
0

>  <SCORE.heavy>
42

>  <SCORE.norm>
-1.10117

>  <RMSD>
4.850

$$$$
1fyp_lig
 OpenBabel11021811393D
libRbt.so/2013.1/901 2013/11/27
 42 45  0  0  0  0  0  0  0  0999 V2000
    8.6672    6.3881   29.0326 C   0  0  2  0  0  0  0  0  0  0  0  0
    7.8674    6.8637   27.9116 O   0  0  0  0  0  0  0  0  0  0  0  0
    9.3560    9.8995   25.3022 C   0  0  2  0  0  0  0  0  0  0  0  0
   10.0205   10.6814   24.2432 N   0  0  0  0  0  0  0  0  0  0  0  0
    6.1062    6.1031   25.9627 C   0  0  1  0  0  0  0  0  0  0  0  0
    3.5123    3.9090   28.8526 C   0  0  1  0  0  0  0  0  0  0  0  0
    7.7750    5.7294   30.1336 C   0  0  2  0  0  0  0  0  0  0  0  0
    6.8680    4.7162   29.5536 N   0  0  0  0  0  0  0  0  0  0  0  0
   10.4008    9.0301   26.0300 C   0  0  0  0  0  0  0  0  0  0  0  0
    5.0386    6.6266   26.9270 C   0  0  2  0  0  0  0  0  0  0  0  0
    5.6304    6.8806   28.2017 O   0  0  0  0  0  0  0  0  0  0  0  0
    3.6750    2.3711   29.0513 C   0  0  2  0  0  0  0  0  0  0  0  0
    3.8395    1.6435   27.7692 N   0  0  0  0  0  0  0  0  0  0  0  0
    6.9560    6.8105   30.9060 C   0  0  1  0  0  0  0  0  0  0  0  0
    6.2717    6.2160   32.0060 O   0  0  0  0  0  0  0  0  0  0  0  0
    9.7731    8.1967   27.1806 C   0  0  2  0  0  0  0  0  0  0  0  0
   10.8366    7.3457   27.7537 N   0  0  0  0  0  0  0  0  0  0  0  0
    4.0669    5.4451   26.9906 C   0  0  2  0  0  0  0  0  0  0  0  0
    4.5094    4.4326   27.9370 O   0  0  0  0  0  0  0  0  0  0  0  0
    2.4917    1.7903   29.8853 C   0  0  1  0  0  0  0  0  0  0  0  0
    2.6556    2.1901   31.2443 O   0  0  0  0  0  0  0  0  0  0  0  0
    7.8635    7.9446   31.4451 C   0  0  2  0  0  0  0  0  0  0  0  0
    7.0492    8.9412   32.0554 O   0  0  0  0  0  0  0  0  0  0  0  0
    8.5425    7.3399   26.7121 C   0  0  2  0  0  0  0  0  0  0  0  0
    4.1239    4.9039   25.5553 C   0  0  2  0  0  0  0  0  0  0  0  0
    5.4613    5.1645   25.0868 O   0  0  0  0  0  0  0  0  0  0  0  0
    1.0845    2.2589   29.4054 C   0  0  2  0  0  0  0  0  0  0  0  0
    0.7759    1.5897   28.1816 O   0  0  0  0  0  0  0  0  0  0  0  0
    8.7058    8.5575   30.2906 C   0  0  2  0  0  0  0  0  0  0  0  0
    9.4391    7.4915   29.6155 O   0  0  0  0  0  0  0  0  0  0  0  0
    7.5273    8.1569   25.8336 C   0  0  2  0  0  0  0  0  0  0  0  0
    6.6322    7.2161   25.1853 O   0  0  0  0  0  0  0  0  0  0  0  0
    3.0971    5.5665   24.6197 C   0  0  0  0  0  0  0  0  0  0  0  0
    3.5221    5.4926   23.2701 O   0  0  0  0  0  0  0  0  0  0  0  0
    1.0571    3.8048   29.1958 C   0  0  1  0  0  0  0  0  0  0  0  0
    2.1694    4.2032   28.3375 O   0  0  0  0  0  0  0  0  0  0  0  0
    9.7538    9.6018   30.7358 C   0  0  0  0  0  0  0  0  0  0  0  0
   10.2241   10.3610   29.6350 O   0  0  0  0  0  0  0  0  0  0  0  0
    8.2265    9.0096   24.7297 C   0  0  1  0  0  0  0  0  0  0  0  0
    7.2496    9.8392   24.1027 O   0  0  0  0  0  0  0  0  0  0  0  0
   -0.2701    4.2994   28.5658 C   0  0  0  0  0  0  0  0  0  0  0  0
   -1.4328    4.0569   29.4390 N   0  0  0  0  0  0  0  0  0  0  0  0
  1  2  1  6  0  0  0
  1  7  1  0  0  0  0
  1 30  1  0  0  0  0
  3  4  1  6  0  0  0
  3  9  1  0  0  0  0
  3 39  1  0  0  0  0
  5 10  1  0  0  0  0
  5 26  1  0  0  0  0
  5 32  1  6  0  0  0
  6 12  1  0  0  0  0
  6 36  1  0  0  0  0
  6 19  1  6  0  0  0
  7  8  1  6  0  0  0
  7 14  1  0  0  0  0
  9 16  1  0  0  0  0
 10 11  1  1  0  0  0
 10 18  1  0  0  0  0
 12 13  1  6  0  0  0
 12 20  1  0  0  0  0
 14 15  1  1  0  0  0
 14 22  1  0  0  0  0
 16 17  1  6  0  0  0
 16 24  1  0  0  0  0
 18 19  1  1  0  0  0
 18 25  1  0  0  0  0
 20 21  1  1  0  0  0
 20 27  1  0  0  0  0
 22 23  1  6  0  0  0
 22 29  1  0  0  0  0
 24  2  1  1  0  0  0
 24 31  1  0  0  0  0
 25 26  1  0  0  0  0
 25 33  1  6  0  0  0
 27 28  1  6  0  0  0
 27 35  1  0  0  0  0
 29 30  1  0  0  0  0
 29 37  1  1  0  0  0
 31 32  1  6  0  0  0
 31 39  1  0  0  0  0
 33 34  1  0  0  0  0
 35 36  1  0  0  0  0
 35 41  1  6  0  0  0
 37 38  1  0  0  0  0
 39 40  1  1  0  0  0
 41 42  1  0  0  0  0
M  END
>  <CHROM.1>
-171.67724276,-41.51121501,-63.01160572,57.45380256,50.79950886,175.60068910
58.37729345,7.36469063,133.75618308,139.99863473,-56.29067903,175.29476806
155.22724448,69.71690845,-164.50706415,42.80293599,73.90927653,-43.34162021
63.82812781,-64.79950812,-69.07504293,-124.22650393,5.87301221,6.16609386
27.98050512,-0.24837478,0.62361001,1.77241430

>  <Name>
1fyp_lig

>  <RI>
0

>  <Rbt.Current_Directory>
/home/itssahil/PROJECTS/Mol_Feturizer/New_Systems/rnas/1fyp

>  <Rbt.Executable>
rbdock ($Id: //depot/dev/client3/rdock/2013.1/src/exe/rbdock.cxx#4 $)

>  <Rbt.Library>
libRbt.so (2013.1, Build901 2013/11/27)

>  <Rbt.Parameter_File>
/export/apps/rDock/src/rDock_2013.1_src/data/scripts/dock_solv.prm

>  <Rbt.Receptor>
prm/pocket_docking_5.prm

>  <SCORE>
-27.3821

>  <SCORE.INTER>
-33.3595

>  <SCORE.INTER.CONST>
1

>  <SCORE.INTER.POLAR>
-5.1825

>  <SCORE.INTER.ROT>
14

>  <SCORE.INTER.SOLV>
17.0047

>  <SCORE.INTER.VDW>
-23.5662

>  <SCORE.INTER.norm>
-0.794274

>  <SCORE.INTRA>
5.97742

>  <SCORE.INTRA.DIHEDRAL>
-21.992

>  <SCORE.INTRA.DIHEDRAL.0>
48.7173

>  <SCORE.INTRA.POLAR>
0.558597

>  <SCORE.INTRA.POLAR.0>
-1.54691

>  <SCORE.INTRA.REPUL>
0.765128

>  <SCORE.INTRA.REPUL.0>
0

>  <SCORE.INTRA.SOLV>
1.04334

>  <SCORE.INTRA.SOLV.lig_0>
-64.052

>  <SCORE.INTRA.VDW>
10.7269

>  <SCORE.INTRA.VDW.0>
-7.0667

>  <SCORE.INTRA.norm>
0.14232

>  <SCORE.RESTR>
0

>  <SCORE.RESTR.CAVITY>
0

>  <SCORE.RESTR.norm>
0

>  <SCORE.SYSTEM>
0

>  <SCORE.SYSTEM.CONST>
0

>  <SCORE.SYSTEM.DIHEDRAL>
0

>  <SCORE.SYSTEM.SOLV>
0

>  <SCORE.SYSTEM.norm>
0

>  <SCORE.heavy>
42

>  <SCORE.norm>
-0.651955

>  <RMSD>
4.861

$$$$
1fyp_lig
 OpenBabel11021811393D
libRbt.so/2013.1/901 2013/11/27
 42 45  0  0  0  0  0  0  0  0999 V2000
    5.6215    5.8699   27.6419 C   0  0  2  0  0  0  0  0  0  0  0  0
    5.5623    4.5299   28.2106 O   0  0  0  0  0  0  0  0  0  0  0  0
    3.2400    2.3931   31.0884 C   0  0  2  0  0  0  0  0  0  0  0  0
    2.1753    1.8198   31.9323 N   0  0  0  0  0  0  0  0  0  0  0  0
    2.6705    1.5520   27.0282 C   0  0  1  0  0  0  0  0  0  0  0  0
   -1.3159    0.7467   25.5755 C   0  0  1  0  0  0  0  0  0  0  0  0
    6.6612    5.9523   26.4781 C   0  0  2  0  0  0  0  0  0  0  0  0
    6.4455    4.8750   25.4889 N   0  0  0  0  0  0  0  0  0  0  0  0
    3.1447    3.9317   31.1173 C   0  0  0  0  0  0  0  0  0  0  0  0
    1.6111    2.6542   27.1086 C   0  0  2  0  0  0  0  0  0  0  0  0
    1.0013    2.6366   28.3999 O   0  0  0  0  0  0  0  0  0  0  0  0
   -2.7431    1.1930   26.0171 C   0  0  2  0  0  0  0  0  0  0  0  0
   -3.0030    0.9358   27.4547 N   0  0  0  0  0  0  0  0  0  0  0  0
    8.1199    5.8960   27.0305 C   0  0  1  0  0  0  0  0  0  0  0  0
    9.0532    6.1314   25.9792 O   0  0  0  0  0  0  0  0  0  0  0  0
    4.2571    4.6055   30.2682 C   0  0  2  0  0  0  0  0  0  0  0  0
    4.0265    6.0648   30.2984 N   0  0  0  0  0  0  0  0  0  0  0  0
    0.6240    2.2204   26.0215 C   0  0  2  0  0  0  0  0  0  0  0  0
   -0.3044    1.2110   26.5071 O   0  0  0  0  0  0  0  0  0  0  0  0
   -3.8342    0.5357   25.1169 C   0  0  1  0  0  0  0  0  0  0  0  0
   -3.8090    1.1680   23.8389 O   0  0  0  0  0  0  0  0  0  0  0  0
    8.3557    6.9480   28.1433 C   0  0  2  0  0  0  0  0  0  0  0  0
    9.6696    6.7834   28.6679 O   0  0  0  0  0  0  0  0  0  0  0  0
    4.3122    4.0635   28.7947 C   0  0  2  0  0  0  0  0  0  0  0  0
    1.5577    1.6274   24.9571 C   0  0  2  0  0  0  0  0  0  0  0  0
    2.6712    1.0639   25.6771 O   0  0  0  0  0  0  0  0  0  0  0  0
   -3.6467   -0.9974   24.9063 C   0  0  2  0  0  0  0  0  0  0  0  0
   -3.9973   -1.6686   26.1176 O   0  0  0  0  0  0  0  0  0  0  0  0
    7.2935    6.7917   29.2683 C   0  0  2  0  0  0  0  0  0  0  0  0
    5.9599    6.8516   28.6785 O   0  0  0  0  0  0  0  0  0  0  0  0
    4.2555    2.4948   28.7174 C   0  0  2  0  0  0  0  0  0  0  0  0
    3.9733    2.1203   27.3439 O   0  0  0  0  0  0  0  0  0  0  0  0
    2.0573    2.6723   23.9435 C   0  0  0  0  0  0  0  0  0  0  0  0
    2.9327    3.5984   24.5629 O   0  0  0  0  0  0  0  0  0  0  0  0
   -2.1725   -1.3266   24.5152 C   0  0  1  0  0  0  0  0  0  0  0  0
   -1.2614   -0.7173   25.4801 O   0  0  0  0  0  0  0  0  0  0  0  0
    7.3425    7.8814   30.3625 C   0  0  0  0  0  0  0  0  0  0  0  0
    8.6455    8.0068   30.9063 O   0  0  0  0  0  0  0  0  0  0  0  0
    3.1501    1.8800   29.6310 C   0  0  1  0  0  0  0  0  0  0  0  0
    3.2874    0.4598   29.6256 O   0  0  0  0  0  0  0  0  0  0  0  0
   -1.8967   -2.8508   24.4520 C   0  0  0  0  0  0  0  0  0  0  0  0
   -0.5329   -3.1573   23.9839 N   0  0  0  0  0  0  0  0  0  0  0  0
  1  2  1  1  0  0  0
  1  7  1  0  0  0  0
  1 30  1  0  0  0  0
  3  4  1  1  0  0  0
  3  9  1  0  0  0  0
  3 39  1  0  0  0  0
  5 10  1  0  0  0  0
  5 26  1  0  0  0  0
  5 32  1  6  0  0  0
  6 12  1  0  0  0  0
  6 36  1  0  0  0  0
  6 19  1  1  0  0  0
  7  8  1  6  0  0  0
  7 14  1  0  0  0  0
  9 16  1  0  0  0  0
 10 11  1  1  0  0  0
 10 18  1  0  0  0  0
 12 13  1  1  0  0  0
 12 20  1  0  0  0  0
 14 15  1  6  0  0  0
 14 22  1  0  0  0  0
 16 17  1  6  0  0  0
 16 24  1  0  0  0  0
 18 19  1  1  0  0  0
 18 25  1  0  0  0  0
 20 21  1  6  0  0  0
 20 27  1  0  0  0  0
 22 23  1  1  0  0  0
 22 29  1  0  0  0  0
 24  2  1  1  0  0  0
 24 31  1  0  0  0  0
 25 26  1  0  0  0  0
 25 33  1  6  0  0  0
 27 28  1  1  0  0  0
 27 35  1  0  0  0  0
 29 30  1  0  0  0  0
 29 37  1  1  0  0  0
 31 32  1  6  0  0  0
 31 39  1  0  0  0  0
 33 34  1  0  0  0  0
 35 36  1  0  0  0  0
 35 41  1  1  0  0  0
 37 38  1  0  0  0  0
 39 40  1  1  0  0  0
 41 42  1  0  0  0  0
M  END
>  <CHROM.1>
-150.60489294,-83.57438757,107.39321491,152.24642344,-66.06263756,136.03435339
58.88589555,72.96031639,178.31330698,-112.30290079,70.58169483,-174.15546770
68.18433414,-71.31152322,-52.76281665,-109.86016782,71.88949003,-66.38663501
175.67492552,-176.35596886,-51.74572713,161.07230526,2.67030721,2.84554479
27.32389060,-0.35672714,-0.58809439,-1.69131873

>  <Name>
1fyp_lig

>  <RI>
0

>  <Rbt.Current_Directory>
/home/itssahil/PROJECTS/Mol_Feturizer/New_Systems/rnas/1fyp

>  <Rbt.Executable>
rbdock ($Id: //depot/dev/client3/rdock/2013.1/src/exe/rbdock.cxx#4 $)

>  <Rbt.Library>
libRbt.so (2013.1, Build901 2013/11/27)

>  <Rbt.Parameter_File>
/export/apps/rDock/src/rDock_2013.1_src/data/scripts/dock_solv.prm

>  <Rbt.Receptor>
prm/pocket_docking_3.prm

>  <SCORE>
-26.7812

>  <SCORE.INTER>
-31.5867

>  <SCORE.INTER.CONST>
1

>  <SCORE.INTER.POLAR>
-4.49496

>  <SCORE.INTER.ROT>
14

>  <SCORE.INTER.SOLV>
18.8106

>  <SCORE.INTER.VDW>
-25.2781

>  <SCORE.INTER.norm>
-0.752065

>  <SCORE.INTRA>
1.00731

>  <SCORE.INTRA.DIHEDRAL>
-19.4536

>  <SCORE.INTRA.DIHEDRAL.0>
48.7173

>  <SCORE.INTRA.POLAR>
-0.433876

>  <SCORE.INTRA.POLAR.0>
-1.54691

>  <SCORE.INTRA.REPUL>
0.85054

>  <SCORE.INTRA.REPUL.0>
0

>  <SCORE.INTRA.SOLV>
0.320564

>  <SCORE.INTRA.SOLV.lig_0>
-64.052

>  <SCORE.INTRA.VDW>
7.79632

>  <SCORE.INTRA.VDW.0>
-7.0667

>  <SCORE.INTRA.norm>
0.0239835

>  <SCORE.RESTR>
3.79819

>  <SCORE.RESTR.CAVITY>
3.79819

>  <SCORE.RESTR.norm>
0.0904332

>  <SCORE.SYSTEM>
0

>  <SCORE.SYSTEM.CONST>
0

>  <SCORE.SYSTEM.DIHEDRAL>
0

>  <SCORE.SYSTEM.SOLV>
0

>  <SCORE.SYSTEM.norm>
0

>  <SCORE.heavy>
42

>  <SCORE.norm>
-0.637648

>  <RMSD>
4.878

$$$$
1fyp_lig
 OpenBabel11021811393D
libRbt.so/2013.1/901 2013/11/27
 42 45  0  0  0  0  0  0  0  0999 V2000
    3.5934    7.4334   25.0027 C   0  0  2  0  0  0  0  0  0  0  0  0
    3.8921    6.0120   25.1154 O   0  0  0  0  0  0  0  0  0  0  0  0
    5.7618    4.7860   28.7544 C   0  0  2  0  0  0  0  0  0  0  0  0
    6.0836    4.2966   30.1077 N   0  0  0  0  0  0  0  0  0  0  0  0
    2.7639    3.1593   25.5000 C   0  0  1  0  0  0  0  0  0  0  0  0
   -1.3433    1.7346   24.5682 C   0  0  1  0  0  0  0  0  0  0  0  0
    2.8864    7.7642   23.6489 C   0  0  2  0  0  0  0  0  0  0  0  0
    1.7293    6.8738   23.4166 N   0  0  0  0  0  0  0  0  0  0  0  0
    4.7156    5.9142   28.8523 C   0  0  0  0  0  0  0  0  0  0  0  0
    2.2319    1.7771   25.1125 C   0  0  2  0  0  0  0  0  0  0  0  0
    2.1575    1.6761   23.6899 O   0  0  0  0  0  0  0  0  0  0  0  0
   -2.3193    1.6808   25.7829 C   0  0  2  0  0  0  0  0  0  0  0  0
   -1.6396    1.3017   27.0457 N   0  0  0  0  0  0  0  0  0  0  0  0
    3.8914    7.6676   22.4586 C   0  0  1  0  0  0  0  0  0  0  0  0
    3.2756    8.1243   21.2569 O   0  0  0  0  0  0  0  0  0  0  0  0
    4.3483    6.4976   27.4605 C   0  0  2  0  0  0  0  0  0  0  0  0
    3.2875    7.5069   27.6597 N   0  0  0  0  0  0  0  0  0  0  0  0
    0.8365    1.7901   25.7426 C   0  0  2  0  0  0  0  0  0  0  0  0
   -0.1328    2.4661   24.8940 O   0  0  0  0  0  0  0  0  0  0  0  0
   -3.5270    0.7400   25.4841 C   0  0  1  0  0  0  0  0  0  0  0  0
   -4.3915    1.3925   24.5566 O   0  0  0  0  0  0  0  0  0  0  0  0
    5.1659    8.5117   22.7106 C   0  0  2  0  0  0  0  0  0  0  0  0
    6.0785    8.3080   21.6362 O   0  0  0  0  0  0  0  0  0  0  0  0
    3.9048    5.3939   26.4342 C   0  0  2  0  0  0  0  0  0  0  0  0
    1.0734    2.5877   27.0327 C   0  0  2  0  0  0  0  0  0  0  0  0
    2.1180    3.5320   26.7279 O   0  0  0  0  0  0  0  0  0  0  0  0
   -3.1243   -0.6422   24.8863 C   0  0  2  0  0  0  0  0  0  0  0  0
   -2.5434   -1.4339   25.9238 O   0  0  0  0  0  0  0  0  0  0  0  0
    5.8178    8.1145   24.0654 C   0  0  2  0  0  0  0  0  0  0  0  0
    4.8219    8.2262   25.1263 O   0  0  0  0  0  0  0  0  0  0  0  0
    4.8681    4.1521   26.4172 C   0  0  2  0  0  0  0  0  0  0  0  0
    4.2021    3.0738   25.7098 O   0  0  0  0  0  0  0  0  0  0  0  0
    1.4904    1.7027   28.2208 C   0  0  0  0  0  0  0  0  0  0  0  0
    1.7829    0.3847   27.7907 O   0  0  0  0  0  0  0  0  0  0  0  0
   -2.1114   -0.4643   23.7129 C   0  0  1  0  0  0  0  0  0  0  0  0
   -0.9961    0.3708   24.1502 O   0  0  0  0  0  0  0  0  0  0  0  0
    7.0167    8.9916   24.4902 C   0  0  0  0  0  0  0  0  0  0  0  0
    8.2488    8.3831   24.1422 O   0  0  0  0  0  0  0  0  0  0  0  0
    5.2361    3.6476   27.8471 C   0  0  1  0  0  0  0  0  0  0  0  0
    6.2384    2.6385   27.7341 O   0  0  0  0  0  0  0  0  0  0  0  0
   -1.5576   -1.8149   23.1910 C   0  0  0  0  0  0  0  0  0  0  0  0
   -2.6285   -2.7487   22.7983 N   0  0  0  0  0  0  0  0  0  0  0  0
  1  2  1  6  0  0  0
  1  7  1  0  0  0  0
  1 30  1  0  0  0  0
  3  4  1  1  0  0  0
  3  9  1  0  0  0  0
  3 39  1  0  0  0  0
  5 10  1  0  0  0  0
  5 26  1  0  0  0  0
  5 32  1  1  0  0  0
  6 12  1  0  0  0  0
  6 36  1  0  0  0  0
  6 19  1  1  0  0  0
  7  8  1  6  0  0  0
  7 14  1  0  0  0  0
  9 16  1  0  0  0  0
 10 11  1  6  0  0  0
 10 18  1  0  0  0  0
 12 13  1  1  0  0  0
 12 20  1  0  0  0  0
 14 15  1  6  0  0  0
 14 22  1  0  0  0  0
 16 17  1  1  0  0  0
 16 24  1  0  0  0  0
 18 19  1  6  0  0  0
 18 25  1  0  0  0  0
 20 21  1  6  0  0  0
 20 27  1  0  0  0  0
 22 23  1  6  0  0  0
 22 29  1  0  0  0  0
 24  2  1  6  0  0  0
 24 31  1  0  0  0  0
 25 26  1  0  0  0  0
 25 33  1  1  0  0  0
 27 28  1  1  0  0  0
 27 35  1  0  0  0  0
 29 30  1  0  0  0  0
 29 37  1  1  0  0  0
 31 32  1  6  0  0  0
 31 39  1  0  0  0  0
 33 34  1  0  0  0  0
 35 36  1  0  0  0  0
 35 41  1  1  0  0  0
 37 38  1  0  0  0  0
 39 40  1  6  0  0  0
 41 42  1  0  0  0  0
M  END
>  <CHROM.1>
-149.42583329,-30.30924367,-46.83512382,-111.21209711,-171.00852132,177.29705185
-58.08596469,-48.62503672,126.75234665,74.75323299,-179.48937432,176.84737784
10.13558667,-83.10303422,-97.31349544,-16.49491638,-163.93178933,-147.08466115
54.84788442,67.38470148,-168.27706891,-170.63524958,2.22227678,3.82217375
25.38188712,0.45594569,-0.67178640,-0.90349598

>  <Name>
1fyp_lig

>  <RI>
0

>  <Rbt.Current_Directory>
/home/itssahil/PROJECTS/Mol_Feturizer/New_Systems/rnas/1fyp

>  <Rbt.Executable>
rbdock ($Id: //depot/dev/client3/rdock/2013.1/src/exe/rbdock.cxx#4 $)

>  <Rbt.Library>
libRbt.so (2013.1, Build901 2013/11/27)

>  <Rbt.Parameter_File>
/export/apps/rDock/src/rDock_2013.1_src/data/scripts/dock_solv.prm

>  <Rbt.Receptor>
prm/blind_docking_100.prm

>  <SCORE>
-21.6297

>  <SCORE.INTER>
-32.1628

>  <SCORE.INTER.CONST>
1

>  <SCORE.INTER.POLAR>
-4.76456

>  <SCORE.INTER.ROT>
14

>  <SCORE.INTER.SOLV>
20.6348

>  <SCORE.INTER.VDW>
-25.3716

>  <SCORE.INTER.norm>
-0.76578

>  <SCORE.INTRA>
10.533

>  <SCORE.INTRA.DIHEDRAL>
-6.68911

>  <SCORE.INTRA.DIHEDRAL.0>
48.7173

>  <SCORE.INTRA.POLAR>
1.48219

>  <SCORE.INTRA.POLAR.0>
-1.54691

>  <SCORE.INTRA.REPUL>
0.0130436

>  <SCORE.INTRA.REPUL.0>
0

>  <SCORE.INTRA.SOLV>
-1.3077

>  <SCORE.INTRA.SOLV.lig_0>
-64.052

>  <SCORE.INTRA.VDW>
9.42677

>  <SCORE.INTRA.VDW.0>
-7.0667

>  <SCORE.INTRA.norm>
0.250786

>  <SCORE.RESTR>
0

>  <SCORE.RESTR.CAVITY>
0

>  <SCORE.RESTR.norm>
0

>  <SCORE.SYSTEM>
0

>  <SCORE.SYSTEM.CONST>
0

>  <SCORE.SYSTEM.DIHEDRAL>
0

>  <SCORE.SYSTEM.SOLV>
0

>  <SCORE.SYSTEM.norm>
0

>  <SCORE.heavy>
42

>  <SCORE.norm>
-0.514994

>  <RMSD>
4.882

$$$$
1fyp_lig
 OpenBabel11021811393D
libRbt.so/2013.1/901 2013/11/27
 42 45  0  0  0  0  0  0  0  0999 V2000
    4.9095    6.7605   27.9052 C   0  0  2  0  0  0  0  0  0  0  0  0
    4.6889    5.4632   28.5303 O   0  0  0  0  0  0  0  0  0  0  0  0
    4.7981    3.5456   32.3449 C   0  0  2  0  0  0  0  0  0  0  0  0
    4.7503    3.1965   33.7768 N   0  0  0  0  0  0  0  0  0  0  0  0
    1.2203    3.8385   29.1764 C   0  0  1  0  0  0  0  0  0  0  0  0
   -0.6666    1.1697   26.5050 C   0  0  1  0  0  0  0  0  0  0  0  0
    4.4012    6.7779   26.4276 C   0  0  2  0  0  0  0  0  0  0  0  0
    3.0127    6.2791   26.3323 N   0  0  0  0  0  0  0  0  0  0  0  0
    5.7379    4.7507   32.1418 C   0  0  0  0  0  0  0  0  0  0  0  0
    1.1099    4.3102   27.7242 C   0  0  2  0  0  0  0  0  0  0  0  0
   -0.0494    5.1307   27.5757 O   0  0  0  0  0  0  0  0  0  0  0  0
    0.2519    0.8290   25.2920 C   0  0  2  0  0  0  0  0  0  0  0  0
    0.2710    1.9038   24.2699 N   0  0  0  0  0  0  0  0  0  0  0  0
    5.3419    5.9401   25.5060 C   0  0  1  0  0  0  0  0  0  0  0  0
    4.9587    6.0945   24.1418 O   0  0  0  0  0  0  0  0  0  0  0  0
    5.8578    5.1575   30.6477 C   0  0  2  0  0  0  0  0  0  0  0  0
    6.7100    6.3625   30.5748 N   0  0  0  0  0  0  0  0  0  0  0  0
    0.9523    2.9842   26.9749 C   0  0  2  0  0  0  0  0  0  0  0  0
   -0.4252    2.5164   26.9895 O   0  0  0  0  0  0  0  0  0  0  0  0
   -0.1427   -0.5435   24.6645 C   0  0  1  0  0  0  0  0  0  0  0  0
    0.2846   -1.5830   25.5423 O   0  0  0  0  0  0  0  0  0  0  0  0
    6.8235    6.3685   25.6531 C   0  0  2  0  0  0  0  0  0  0  0  0
    7.6370    5.5085   24.8610 O   0  0  0  0  0  0  0  0  0  0  0  0
    4.4623    5.3995   29.9676 C   0  0  2  0  0  0  0  0  0  0  0  0
    1.8501    2.0444   27.7916 C   0  0  2  0  0  0  0  0  0  0  0  0
    1.7872    2.5188   29.1506 O   0  0  0  0  0  0  0  0  0  0  0  0
   -1.6721   -0.7132   24.4156 C   0  0  2  0  0  0  0  0  0  0  0  0
   -2.0434    0.0979   23.2999 O   0  0  0  0  0  0  0  0  0  0  0  0
    7.2570    6.3107   27.1454 C   0  0  2  0  0  0  0  0  0  0  0  0
    6.3337    7.1115   27.9429 O   0  0  0  0  0  0  0  0  0  0  0  0
    3.4240    4.2619   30.2805 C   0  0  2  0  0  0  0  0  0  0  0  0
    2.1058    4.7375   29.9027 O   0  0  0  0  0  0  0  0  0  0  0  0
    3.3096    2.0295   27.3035 C   0  0  0  0  0  0  0  0  0  0  0  0
    3.6814    3.2943   26.7842 O   0  0  0  0  0  0  0  0  0  0  0  0
   -2.4884   -0.2983   25.6788 C   0  0  1  0  0  0  0  0  0  0  0  0
   -2.0751    1.0329   26.1144 O   0  0  0  0  0  0  0  0  0  0  0  0
    8.6745    6.8552   27.4306 C   0  0  0  0  0  0  0  0  0  0  0  0
    8.8427    8.1579   26.8977 O   0  0  0  0  0  0  0  0  0  0  0  0
    3.3897    3.8673   31.7897 C   0  0  1  0  0  0  0  0  0  0  0  0
    2.5522    2.7228   31.9461 O   0  0  0  0  0  0  0  0  0  0  0  0
   -4.0182   -0.2960   25.4282 C   0  0  0  0  0  0  0  0  0  0  0  0
   -4.5809   -1.6571   25.3670 N   0  0  0  0  0  0  0  0  0  0  0  0
  1  2  1  6  0  0  0
  1  7  1  0  0  0  0
  1 30  1  0  0  0  0
  3  4  1  1  0  0  0
  3  9  1  0  0  0  0
  3 39  1  0  0  0  0
  5 10  1  0  0  0  0
  5 26  1  0  0  0  0
  5 32  1  1  0  0  0
  6 12  1  0  0  0  0
  6 36  1  0  0  0  0
  6 19  1  6  0  0  0
  7  8  1  1  0  0  0
  7 14  1  0  0  0  0
  9 16  1  0  0  0  0
 10 11  1  1  0  0  0
 10 18  1  0  0  0  0
 12 13  1  6  0  0  0
 12 20  1  0  0  0  0
 14 15  1  6  0  0  0
 14 22  1  0  0  0  0
 16 17  1  1  0  0  0
 16 24  1  0  0  0  0
 18 19  1  1  0  0  0
 18 25  1  0  0  0  0
 20 21  1  1  0  0  0
 20 27  1  0  0  0  0
 22 23  1  6  0  0  0
 22 29  1  0  0  0  0
 24  2  1  6  0  0  0
 24 31  1  0  0  0  0
 25 26  1  0  0  0  0
 25 33  1  6  0  0  0
 27 28  1  6  0  0  0
 27 35  1  0  0  0  0
 29 30  1  0  0  0  0
 29 37  1  6  0  0  0
 31 32  1  1  0  0  0
 31 39  1  0  0  0  0
 33 34  1  0  0  0  0
 35 36  1  0  0  0  0
 35 41  1  6  0  0  0
 37 38  1  0  0  0  0
 39 40  1  6  0  0  0
 41 42  1  0  0  0  0
M  END
>  <CHROM.1>
-150.10204253,-93.06580133,172.05439946,169.24836439,-58.27368915,73.12892357
61.17610977,-174.28692133,-170.22603071,-37.34195001,-171.02380030,-64.70078499
32.15961973,-45.80720014,52.53669255,136.04057452,-108.02110912,77.22030849
74.56885333,65.57722247,79.61348004,69.38117284,2.69386113,3.58003974,27.54687186
-0.25553814,-0.65745817,-1.49038167

>  <Name>
1fyp_lig

>  <RI>
0

>  <Rbt.Current_Directory>
/home/itssahil/PROJECTS/Mol_Feturizer/New_Systems/rnas/1fyp

>  <Rbt.Executable>
rbdock ($Id: //depot/dev/client3/rdock/2013.1/src/exe/rbdock.cxx#4 $)

>  <Rbt.Library>
libRbt.so (2013.1, Build901 2013/11/27)

>  <Rbt.Parameter_File>
/export/apps/rDock/src/rDock_2013.1_src/data/scripts/dock_solv.prm

>  <Rbt.Receptor>
prm/blind_docking_100.prm

>  <SCORE>
-34.1853

>  <SCORE.INTER>
-24.3908

>  <SCORE.INTER.CONST>
1

>  <SCORE.INTER.POLAR>
-3.61264

>  <SCORE.INTER.ROT>
14

>  <SCORE.INTER.SOLV>
12.6499

>  <SCORE.INTER.VDW>
-21.3684

>  <SCORE.INTER.norm>
-0.580733

>  <SCORE.INTRA>
-10.4474

>  <SCORE.INTRA.DIHEDRAL>
-16.3785

>  <SCORE.INTRA.DIHEDRAL.0>
48.7173

>  <SCORE.INTRA.POLAR>
-2.07295

>  <SCORE.INTRA.POLAR.0>
-1.54691

>  <SCORE.INTRA.REPUL>
0.283156

>  <SCORE.INTRA.REPUL.0>
0

>  <SCORE.INTRA.SOLV>
1.53707

>  <SCORE.INTRA.SOLV.lig_0>
-64.052

>  <SCORE.INTRA.VDW>
2.60558

>  <SCORE.INTRA.VDW.0>
-7.0667

>  <SCORE.INTRA.norm>
-0.248747

>  <SCORE.RESTR>
0.652937

>  <SCORE.RESTR.CAVITY>
0.652937

>  <SCORE.RESTR.norm>
0.0155461

>  <SCORE.SYSTEM>
0

>  <SCORE.SYSTEM.CONST>
0

>  <SCORE.SYSTEM.DIHEDRAL>
0

>  <SCORE.SYSTEM.SOLV>
0

>  <SCORE.SYSTEM.norm>
0

>  <SCORE.heavy>
42

>  <SCORE.norm>
-0.813935

>  <RMSD>
4.903

$$$$
1fyp_lig
 OpenBabel11021811393D
libRbt.so/2013.1/901 2013/11/27
 42 45  0  0  0  0  0  0  0  0999 V2000
    2.8025    6.9435   25.3408 C   0  0  2  0  0  0  0  0  0  0  0  0
    4.1060    6.3265   25.5470 O   0  0  0  0  0  0  0  0  0  0  0  0
    5.9079    3.7096   28.4011 C   0  0  2  0  0  0  0  0  0  0  0  0
    6.4785    3.0703   29.6011 N   0  0  0  0  0  0  0  0  0  0  0  0
    1.3342    4.0205   27.0873 C   0  0  1  0  0  0  0  0  0  0  0  0
   -1.1609    0.5029   26.2248 C   0  0  1  0  0  0  0  0  0  0  0  0
    2.4324    7.0062   23.8238 C   0  0  2  0  0  0  0  0  0  0  0  0
    2.5959    5.6869   23.1770 N   0  0  0  0  0  0  0  0  0  0  0  0
    6.5965    5.0692   28.1677 C   0  0  0  0  0  0  0  0  0  0  0  0
    1.9198    2.6151   26.9271 C   0  0  2  0  0  0  0  0  0  0  0  0
    2.3340    2.4221   25.5740 O   0  0  0  0  0  0  0  0  0  0  0  0
   -2.1388    0.5321   25.0107 C   0  0  2  0  0  0  0  0  0  0  0  0
   -2.6502    1.8942   24.7215 N   0  0  0  0  0  0  0  0  0  0  0  0
    3.2906    8.0811   23.0860 C   0  0  1  0  0  0  0  0  0  0  0  0
    2.8343    8.2386   21.7448 O   0  0  0  0  0  0  0  0  0  0  0  0
    6.0617    5.7889   26.8994 C   0  0  2  0  0  0  0  0  0  0  0  0
    6.7244    7.1070   26.8152 N   0  0  0  0  0  0  0  0  0  0  0  0
    0.7168    1.7329   27.2715 C   0  0  2  0  0  0  0  0  0  0  0  0
   -0.1686    1.5579   26.1304 O   0  0  0  0  0  0  0  0  0  0  0  0
   -3.3072   -0.4812   25.2139 C   0  0  1  0  0  0  0  0  0  0  0  0
   -2.7988   -1.8014   25.0346 O   0  0  0  0  0  0  0  0  0  0  0  0
    3.2235    9.4574   23.7940 C   0  0  2  0  0  0  0  0  0  0  0  0
    4.0968   10.3654   23.1294 O   0  0  0  0  0  0  0  0  0  0  0  0
    4.4972    5.9317   26.8932 C   0  0  2  0  0  0  0  0  0  0  0  0
    0.0240    2.5486   28.3720 C   0  0  2  0  0  0  0  0  0  0  0  0
    0.2818    3.9317   28.0611 O   0  0  0  0  0  0  0  0  0  0  0  0
   -3.9796   -0.4040   26.6181 C   0  0  2  0  0  0  0  0  0  0  0  0
   -4.7710    0.7838   26.6781 O   0  0  0  0  0  0  0  0  0  0  0  0
    3.6187    9.3146   25.2913 C   0  0  2  0  0  0  0  0  0  0  0  0
    2.7795    8.2948   25.9122 O   0  0  0  0  0  0  0  0  0  0  0  0
    3.7598    4.5984   27.2791 C   0  0  2  0  0  0  0  0  0  0  0  0
    2.3743    4.9171   27.5711 O   0  0  0  0  0  0  0  0  0  0  0  0
    0.5411    2.2184   29.7834 C   0  0  0  0  0  0  0  0  0  0  0  0
   -0.1798    2.9398   30.7671 O   0  0  0  0  0  0  0  0  0  0  0  0
   -2.9034   -0.3920   27.7477 C   0  0  1  0  0  0  0  0  0  0  0  0
   -1.9171    0.6497   27.4745 O   0  0  0  0  0  0  0  0  0  0  0  0
    3.4488   10.5994   26.1324 C   0  0  0  0  0  0  0  0  0  0  0  0
    3.7223   10.3579   27.5022 O   0  0  0  0  0  0  0  0  0  0  0  0
    4.3777    3.9015   28.5310 C   0  0  1  0  0  0  0  0  0  0  0  0
    3.7588    2.6270   28.6992 O   0  0  0  0  0  0  0  0  0  0  0  0
   -3.5138   -0.1543   29.1528 C   0  0  0  0  0  0  0  0  0  0  0  0
   -2.4966    0.2158   30.1534 N   0  0  0  0  0  0  0  0  0  0  0  0
  1  2  1  6  0  0  0
  1  7  1  0  0  0  0
  1 30  1  0  0  0  0
  3  4  1  1  0  0  0
  3  9  1  0  0  0  0
  3 39  1  0  0  0  0
  5 10  1  0  0  0  0
  5 26  1  0  0  0  0
  5 32  1  1  0  0  0
  6 12  1  0  0  0  0
  6 36  1  0  0  0  0
  6 19  1  6  0  0  0
  7  8  1  6  0  0  0
  7 14  1  0  0  0  0
  9 16  1  0  0  0  0
 10 11  1  6  0  0  0
 10 18  1  0  0  0  0
 12 13  1  1  0  0  0
 12 20  1  0  0  0  0
 14 15  1  6  0  0  0
 14 22  1  0  0  0  0
 16 17  1  1  0  0  0
 16 24  1  0  0  0  0
 18 19  1  6  0  0  0
 18 25  1  0  0  0  0
 20 21  1  1  0  0  0
 20 27  1  0  0  0  0
 22 23  1  6  0  0  0
 22 29  1  0  0  0  0
 24  2  1  6  0  0  0
 24 31  1  0  0  0  0
 25 26  1  0  0  0  0
 25 33  1  1  0  0  0
 27 28  1  6  0  0  0
 27 35  1  0  0  0  0
 29 30  1  0  0  0  0
 29 37  1  1  0  0  0
 31 32  1  1  0  0  0
 31 39  1  0  0  0  0
 33 34  1  0  0  0  0
 35 36  1  0  0  0  0
 35 41  1  1  0  0  0
 37 38  1  0  0  0  0
 39 40  1  6  0  0  0
 41 42  1  0  0  0  0
M  END
>  <CHROM.1>
-167.42814453,-160.37179897,-138.22848136,177.32907340,-176.87056843,71.96268688
-74.45517644,85.86868317,165.78469402,173.57773922,-57.72497546,178.07908823
-176.69265913,-47.40119458,175.11867332,138.73162597,26.09426800,-62.57876419
-164.59532207,57.96756710,62.17601636,-41.90229546,1.53416169,4.12574918
26.59808165,0.69752671,-0.56005234,-0.78346640

>  <Name>
1fyp_lig

>  <RI>
0

>  <Rbt.Current_Directory>
/home/itssahil/PROJECTS/Mol_Feturizer/New_Systems/rnas/1fyp

>  <Rbt.Executable>
rbdock ($Id: //depot/dev/client3/rdock/2013.1/src/exe/rbdock.cxx#4 $)

>  <Rbt.Library>
libRbt.so (2013.1, Build901 2013/11/27)

>  <Rbt.Parameter_File>
/export/apps/rDock/src/rDock_2013.1_src/data/scripts/dock_solv.prm

>  <Rbt.Receptor>
prm/blind_docking_60.prm

>  <SCORE>
-23.7031

>  <SCORE.INTER>
-19.6342

>  <SCORE.INTER.CONST>
1

>  <SCORE.INTER.POLAR>
-4.57559

>  <SCORE.INTER.ROT>
14

>  <SCORE.INTER.SOLV>
19.9347

>  <SCORE.INTER.VDW>
-17.4157

>  <SCORE.INTER.norm>
-0.467481

>  <SCORE.INTRA>
-5.14495

>  <SCORE.INTRA.DIHEDRAL>
-28.3483

>  <SCORE.INTRA.DIHEDRAL.0>
48.7173

>  <SCORE.INTRA.POLAR>
0.928886

>  <SCORE.INTRA.POLAR.0>
-1.54691

>  <SCORE.INTRA.REPUL>
0.460336

>  <SCORE.INTRA.REPUL.0>
0

>  <SCORE.INTRA.SOLV>
-1.85167

>  <SCORE.INTRA.SOLV.lig_0>
-64.052

>  <SCORE.INTRA.VDW>
4.49512

>  <SCORE.INTRA.VDW.0>
-7.0667

>  <SCORE.INTRA.norm>
-0.122499

>  <SCORE.RESTR>
1.07607

>  <SCORE.RESTR.CAVITY>
1.07607

>  <SCORE.RESTR.norm>
0.0256208

>  <SCORE.SYSTEM>
0

>  <SCORE.SYSTEM.CONST>
0

>  <SCORE.SYSTEM.DIHEDRAL>
0

>  <SCORE.SYSTEM.SOLV>
0

>  <SCORE.SYSTEM.norm>
0

>  <SCORE.heavy>
42

>  <SCORE.norm>
-0.564359

>  <RMSD>
4.934

$$$$
1fyp_lig
 OpenBabel11021811393D
libRbt.so/2013.1/901 2013/11/27
 42 45  0  0  0  0  0  0  0  0999 V2000
    4.0563    7.8053   25.1507 C   0  0  2  0  0  0  0  0  0  0  0  0
    4.3183    6.3934   24.9054 O   0  0  0  0  0  0  0  0  0  0  0  0
    6.2282    3.7986   27.7089 C   0  0  2  0  0  0  0  0  0  0  0  0
    6.5778    2.9027   28.8268 N   0  0  0  0  0  0  0  0  0  0  0  0
    2.4330    3.4309   25.3551 C   0  0  1  0  0  0  0  0  0  0  0  0
   -1.5280    1.8173   25.8023 C   0  0  1  0  0  0  0  0  0  0  0  0
    2.7766    8.2896   24.3958 C   0  0  2  0  0  0  0  0  0  0  0  0
    1.6279    7.3974   24.6606 N   0  0  0  0  0  0  0  0  0  0  0  0
    5.6148    5.0987   28.2661 C   0  0  0  0  0  0  0  0  0  0  0  0
    1.7735    2.0784   25.0731 C   0  0  2  0  0  0  0  0  0  0  0  0
    0.9840    2.1706   23.8866 O   0  0  0  0  0  0  0  0  0  0  0  0
   -2.3947    1.4353   27.0409 C   0  0  2  0  0  0  0  0  0  0  0  0
   -1.5838    0.9056   28.1643 N   0  0  0  0  0  0  0  0  0  0  0  0
    3.0412    8.3907   22.8609 C   0  0  1  0  0  0  0  0  0  0  0  0
    1.9214    8.9824   22.2069 O   0  0  0  0  0  0  0  0  0  0  0  0
    5.2465    6.1041   27.1410 C   0  0  2  0  0  0  0  0  0  0  0  0
    4.5972    7.2712   27.7733 N   0  0  0  0  0  0  0  0  0  0  0  0
    0.8942    1.8937   26.3130 C   0  0  2  0  0  0  0  0  0  0  0  0
   -0.3701    2.6026   26.1886 O   0  0  0  0  0  0  0  0  0  0  0  0
   -3.5278    0.4409   26.6408 C   0  0  1  0  0  0  0  0  0  0  0  0
   -4.5213    1.1559   25.9092 O   0  0  0  0  0  0  0  0  0  0  0  0
    4.2994    9.2386   22.5477 C   0  0  2  0  0  0  0  0  0  0  0  0
    4.5387    9.2146   21.1438 O   0  0  0  0  0  0  0  0  0  0  0  0
    4.3324    5.4700   26.0317 C   0  0  2  0  0  0  0  0  0  0  0  0
    1.7581    2.5204   27.4164 C   0  0  2  0  0  0  0  0  0  0  0  0
    2.5043    3.5773   26.7824 O   0  0  0  0  0  0  0  0  0  0  0  0
   -3.0449   -0.7557   25.7661 C   0  0  2  0  0  0  0  0  0  0  0  0
   -2.3108   -1.6576   26.5958 O   0  0  0  0  0  0  0  0  0  0  0  0
    5.5296    8.6864   23.3222 C   0  0  2  0  0  0  0  0  0  0  0  0
    5.2082    8.6181   24.7442 O   0  0  0  0  0  0  0  0  0  0  0  0
    4.8444    4.0656   25.5463 C   0  0  2  0  0  0  0  0  0  0  0  0
    3.7770    3.4308   24.7953 O   0  0  0  0  0  0  0  0  0  0  0  0
    2.7197    1.5145   28.0738 C   0  0  0  0  0  0  0  0  0  0  0  0
    2.6961    0.2730   27.3913 O   0  0  0  0  0  0  0  0  0  0  0  0
   -2.1500   -0.2562   24.5896 C   0  0  1  0  0  0  0  0  0  0  0  0
   -1.0875    0.5995   25.1107 O   0  0  0  0  0  0  0  0  0  0  0  0
    6.8108    9.5411   23.1990 C   0  0  0  0  0  0  0  0  0  0  0  0
    7.2705    9.5895   21.8589 O   0  0  0  0  0  0  0  0  0  0  0  0
    5.2439    3.1231   26.7239 C   0  0  1  0  0  0  0  0  0  0  0  0
    5.8513    1.9491   26.1867 O   0  0  0  0  0  0  0  0  0  0  0  0
   -1.5141   -1.4195   23.7863 C   0  0  0  0  0  0  0  0  0  0  0  0
   -1.7489   -1.2970   22.3362 N   0  0  0  0  0  0  0  0  0  0  0  0
  1  2  1  6  0  0  0
  1  7  1  0  0  0  0
  1 30  1  0  0  0  0
  3  4  1  1  0  0  0
  3  9  1  0  0  0  0
  3 39  1  0  0  0  0
  5 10  1  0  0  0  0
  5 26  1  0  0  0  0
  5 32  1  1  0  0  0
  6 12  1  0  0  0  0
  6 36  1  0  0  0  0
  6 19  1  1  0  0  0
  7  8  1  6  0  0  0
  7 14  1  0  0  0  0
  9 16  1  0  0  0  0
 10 11  1  6  0  0  0
 10 18  1  0  0  0  0
 12 13  1  1  0  0  0
 12 20  1  0  0  0  0
 14 15  1  6  0  0  0
 14 22  1  0  0  0  0
 16 17  1  1  0  0  0
 16 24  1  0  0  0  0
 18 19  1  6  0  0  0
 18 25  1  0  0  0  0
 20 21  1  6  0  0  0
 20 27  1  0  0  0  0
 22 23  1  6  0  0  0
 22 29  1  0  0  0  0
 24  2  1  6  0  0  0
 24 31  1  0  0  0  0
 25 26  1  0  0  0  0
 25 33  1  6  0  0  0
 27 28  1  1  0  0  0
 27 35  1  0  0  0  0
 29 30  1  0  0  0  0
 29 37  1  1  0  0  0
 31 32  1  1  0  0  0
 31 39  1  0  0  0  0
 33 34  1  0  0  0  0
 35 36  1  0  0  0  0
 35 41  1  1  0  0  0
 37 38  1  0  0  0  0
 39 40  1  6  0  0  0
 41 42  1  0  0  0  0
M  END
>  <CHROM.1>
-119.45895512,-48.87107519,151.66852192,-54.30415784,-163.73508281,177.29781486
-60.18596712,-60.17053211,99.73006843,99.06734683,-56.49110860,-41.22209782
7.10802810,72.14908312,-63.37925624,-46.98194581,-140.70963929,131.65857892
128.39996710,57.97384657,-52.06240374,179.66250527,2.22586164,3.94698110
25.40747610,0.76483541,-0.46767779,-0.65816052

>  <Name>
1fyp_lig

>  <RI>
0

>  <Rbt.Current_Directory>
/home/itssahil/PROJECTS/Mol_Feturizer/New_Systems/rnas/1fyp

>  <Rbt.Executable>
rbdock ($Id: //depot/dev/client3/rdock/2013.1/src/exe/rbdock.cxx#4 $)

>  <Rbt.Library>
libRbt.so (2013.1, Build901 2013/11/27)

>  <Rbt.Parameter_File>
/export/apps/rDock/src/rDock_2013.1_src/data/scripts/dock_solv.prm

>  <Rbt.Receptor>
prm/pocket_docking_3.prm

>  <SCORE>
-44.087

>  <SCORE.INTER>
-48.6731

>  <SCORE.INTER.CONST>
1

>  <SCORE.INTER.POLAR>
-7.39726

>  <SCORE.INTER.ROT>
14

>  <SCORE.INTER.SOLV>
23.3198

>  <SCORE.INTER.VDW>
-28.4978

>  <SCORE.INTER.norm>
-1.15888

>  <SCORE.INTRA>
4.28001

>  <SCORE.INTRA.DIHEDRAL>
-2.03782

>  <SCORE.INTRA.DIHEDRAL.0>
48.7173

>  <SCORE.INTRA.POLAR>
0.212547

>  <SCORE.INTRA.POLAR.0>
-1.54691

>  <SCORE.INTRA.REPUL>
0

>  <SCORE.INTRA.REPUL.0>
0

>  <SCORE.INTRA.SOLV>
-0.586903

>  <SCORE.INTRA.SOLV.lig_0>
-64.052

>  <SCORE.INTRA.VDW>
4.86971

>  <SCORE.INTRA.VDW.0>
-7.0667

>  <SCORE.INTRA.norm>
0.101905

>  <SCORE.RESTR>
0.30607

>  <SCORE.RESTR.CAVITY>
0.30607

>  <SCORE.RESTR.norm>
0.00728739

>  <SCORE.SYSTEM>
0

>  <SCORE.SYSTEM.CONST>
0

>  <SCORE.SYSTEM.DIHEDRAL>
0

>  <SCORE.SYSTEM.SOLV>
0

>  <SCORE.SYSTEM.norm>
0

>  <SCORE.heavy>
42

>  <SCORE.norm>
-1.04969

>  <RMSD>
4.935

$$$$
1fyp_lig
 OpenBabel11021811393D
libRbt.so/2013.1/901 2013/11/27
 42 45  0  0  0  0  0  0  0  0999 V2000
    3.6046    7.6735   26.0748 C   0  0  2  0  0  0  0  0  0  0  0  0
    3.8798    6.2769   26.3847 O   0  0  0  0  0  0  0  0  0  0  0  0
    6.3602    4.2069   29.1781 C   0  0  2  0  0  0  0  0  0  0  0  0
    7.0655    3.7014   30.3704 N   0  0  0  0  0  0  0  0  0  0  0  0
    2.0161    3.0764   27.4792 C   0  0  1  0  0  0  0  0  0  0  0  0
   -0.4396   -0.3059   26.3279 C   0  0  1  0  0  0  0  0  0  0  0  0
    2.3922    7.8152   25.0990 C   0  0  2  0  0  0  0  0  0  0  0  0
    1.2222    7.0522   25.5832 N   0  0  0  0  0  0  0  0  0  0  0  0
    6.5336    5.7363   29.0896 C   0  0  0  0  0  0  0  0  0  0  0  0
    1.8150    1.9155   28.4567 C   0  0  2  0  0  0  0  0  0  0  0  0
    2.8972    0.9923   28.3304 O   0  0  0  0  0  0  0  0  0  0  0  0
   -0.0735   -1.1859   25.0939 C   0  0  2  0  0  0  0  0  0  0  0  0
    0.7423   -0.4557   24.0931 N   0  0  0  0  0  0  0  0  0  0  0  0
    2.7806    7.3551   23.6590 C   0  0  1  0  0  0  0  0  0  0  0  0
    1.7199    7.6378   22.7497 O   0  0  0  0  0  0  0  0  0  0  0  0
    5.8365    6.3354   27.8376 C   0  0  2  0  0  0  0  0  0  0  0  0
    5.9936    7.8037   27.8927 N   0  0  0  0  0  0  0  0  0  0  0  0
    0.5030    1.3064   27.9546 C   0  0  2  0  0  0  0  0  0  0  0  0
    0.7209    0.4033   26.8350 O   0  0  0  0  0  0  0  0  0  0  0  0
   -1.3550   -1.7948   24.4459 C   0  0  1  0  0  0  0  0  0  0  0  0
   -1.8452   -2.8294   25.2961 O   0  0  0  0  0  0  0  0  0  0  0  0
    4.0636    8.0620   23.1545 C   0  0  2  0  0  0  0  0  0  0  0  0
    4.4156    7.5327   21.8799 O   0  0  0  0  0  0  0  0  0  0  0  0
    4.3244    5.9238   27.7260 C   0  0  2  0  0  0  0  0  0  0  0  0
   -0.2762    2.5490   27.5019 C   0  0  2  0  0  0  0  0  0  0  0  0
    0.7125    3.4893   27.0389 O   0  0  0  0  0  0  0  0  0  0  0  0
   -2.5034   -0.7657   24.2180 C   0  0  2  0  0  0  0  0  0  0  0  0
   -2.1445    0.0806   23.1246 O   0  0  0  0  0  0  0  0  0  0  0  0
    5.2247    7.8630   24.1696 C   0  0  2  0  0  0  0  0  0  0  0  0
    4.7891    8.3109   25.4885 O   0  0  0  0  0  0  0  0  0  0  0  0
    4.0893    4.3882   27.9644 C   0  0  2  0  0  0  0  0  0  0  0  0
    2.6690    4.1763   28.1747 O   0  0  0  0  0  0  0  0  0  0  0  0
   -1.1171    3.1769   28.6277 C   0  0  0  0  0  0  0  0  0  0  0  0
   -1.6738    2.1751   29.4609 O   0  0  0  0  0  0  0  0  0  0  0  0
   -2.7462    0.0868   25.5021 C   0  0  1  0  0  0  0  0  0  0  0  0
   -1.4821    0.6590   25.9572 O   0  0  0  0  0  0  0  0  0  0  0  0
    6.5153    8.6462   23.8406 C   0  0  0  0  0  0  0  0  0  0  0  0
    7.4393    8.5905   24.9142 O   0  0  0  0  0  0  0  0  0  0  0  0
    4.8567    3.8408   29.2078 C   0  0  1  0  0  0  0  0  0  0  0  0
    4.7214    2.4209   29.2424 O   0  0  0  0  0  0  0  0  0  0  0  0
   -3.7670    1.2313   25.2760 C   0  0  0  0  0  0  0  0  0  0  0  0
   -4.1102    1.9348   26.5251 N   0  0  0  0  0  0  0  0  0  0  0  0
  1  2  1  6  0  0  0
  1  7  1  0  0  0  0
  1 30  1  0  0  0  0
  3  4  1  1  0  0  0
  3  9  1  0  0  0  0
  3 39  1  0  0  0  0
  5 10  1  0  0  0  0
  5 26  1  0  0  0  0
  5 32  1  1  0  0  0
  6 12  1  0  0  0  0
  6 36  1  0  0  0  0
  6 19  1  6  0  0  0
  7  8  1  1  0  0  0
  7 14  1  0  0  0  0
  9 16  1  0  0  0  0
 10 11  1  6  0  0  0
 10 18  1  0  0  0  0
 12 13  1  6  0  0  0
 12 20  1  0  0  0  0
 14 15  1  6  0  0  0
 14 22  1  0  0  0  0
 16 17  1  1  0  0  0
 16 24  1  0  0  0  0
 18 19  1  6  0  0  0
 18 25  1  0  0  0  0
 20 21  1  1  0  0  0
 20 27  1  0  0  0  0
 22 23  1  6  0  0  0
 22 29  1  0  0  0  0
 24  2  1  6  0  0  0
 24 31  1  0  0  0  0
 25 26  1  0  0  0  0
 25 33  1  1  0  0  0
 27 28  1  6  0  0  0
 27 35  1  0  0  0  0
 29 30  1  0  0  0  0
 29 37  1  6  0  0  0
 31 32  1  1  0  0  0
 31 39  1  0  0  0  0
 33 34  1  0  0  0  0
 35 36  1  0  0  0  0
 35 41  1  6  0  0  0
 37 38  1  0  0  0  0
 39 40  1  6  0  0  0
 41 42  1  0  0  0  0
M  END
>  <CHROM.1>
-143.74970697,-76.28333752,-69.33298360,-21.14415096,55.38453689,102.82533347
-56.35709675,54.79084825,176.01641092,177.47742304,-73.12829857,-54.64277212
-37.06297396,64.48296407,170.33102258,134.41021526,102.18159172,-147.01151838
173.39117531,-65.85584707,62.68453480,-63.84755729,2.04930829,3.73428349
26.35140517,0.50814389,-0.66386301,-0.81021704

>  <Name>
1fyp_lig

>  <RI>
0

>  <Rbt.Current_Directory>
/home/itssahil/PROJECTS/Mol_Feturizer/New_Systems/rnas/1fyp

>  <Rbt.Executable>
rbdock ($Id: //depot/dev/client3/rdock/2013.1/src/exe/rbdock.cxx#4 $)

>  <Rbt.Library>
libRbt.so (2013.1, Build901 2013/11/27)

>  <Rbt.Parameter_File>
/export/apps/rDock/src/rDock_2013.1_src/data/scripts/dock_solv.prm

>  <Rbt.Receptor>
prm/blind_docking_100.prm

>  <SCORE>
-52.0157

>  <SCORE.INTER>
-44.4631

>  <SCORE.INTER.CONST>
1

>  <SCORE.INTER.POLAR>
-5.91589

>  <SCORE.INTER.ROT>
14

>  <SCORE.INTER.SOLV>
20.7994

>  <SCORE.INTER.VDW>
-29.7889

>  <SCORE.INTER.norm>
-1.05864

>  <SCORE.INTRA>
-7.55264

>  <SCORE.INTRA.DIHEDRAL>
-18.6411

>  <SCORE.INTRA.DIHEDRAL.0>
48.7173

>  <SCORE.INTRA.POLAR>
-0.324166

>  <SCORE.INTRA.POLAR.0>
-1.54691

>  <SCORE.INTRA.REPUL>
0.0071758

>  <SCORE.INTRA.REPUL.0>
0

>  <SCORE.INTRA.SOLV>
-0.688415

>  <SCORE.INTRA.SOLV.lig_0>
-64.052

>  <SCORE.INTRA.VDW>
3.17839

>  <SCORE.INTRA.VDW.0>
-7.0667

>  <SCORE.INTRA.norm>
-0.179825

>  <SCORE.RESTR>
0

>  <SCORE.RESTR.CAVITY>
0

>  <SCORE.RESTR.norm>
0

>  <SCORE.SYSTEM>
0

>  <SCORE.SYSTEM.CONST>
0

>  <SCORE.SYSTEM.DIHEDRAL>
0

>  <SCORE.SYSTEM.SOLV>
0

>  <SCORE.SYSTEM.norm>
0

>  <SCORE.heavy>
42

>  <SCORE.norm>
-1.23847

>  <RMSD>
4.968

$$$$
1fyp_lig
 OpenBabel11021811393D
libRbt.so/2013.1/901 2013/11/27
 42 45  0  0  0  0  0  0  0  0999 V2000
    2.9112    7.3608   26.4185 C   0  0  2  0  0  0  0  0  0  0  0  0
    2.4351    5.9928   26.5747 O   0  0  0  0  0  0  0  0  0  0  0  0
    4.2612    5.2227   30.3580 C   0  0  2  0  0  0  0  0  0  0  0  0
    4.5922    4.8012   31.7317 N   0  0  0  0  0  0  0  0  0  0  0  0
    2.1579    3.0479   26.6421 C   0  0  1  0  0  0  0  0  0  0  0  0
   -1.7894    1.4929   25.5874 C   0  0  1  0  0  0  0  0  0  0  0  0
    3.1402    7.7189   24.9147 C   0  0  2  0  0  0  0  0  0  0  0  0
    1.9544    7.3848   24.0973 N   0  0  0  0  0  0  0  0  0  0  0  0
    2.9385    6.0147   30.3692 C   0  0  0  0  0  0  0  0  0  0  0  0
    1.9410    1.5601   26.3537 C   0  0  2  0  0  0  0  0  0  0  0  0
    2.2316    1.2927   24.9813 O   0  0  0  0  0  0  0  0  0  0  0  0
   -2.0762    0.3746   26.6355 C   0  0  2  0  0  0  0  0  0  0  0  0
   -1.1586   -0.7831   26.5015 N   0  0  0  0  0  0  0  0  0  0  0  0
    4.4044    6.9935   24.3565 C   0  0  1  0  0  0  0  0  0  0  0  0
    4.6915    7.4509   23.0374 O   0  0  0  0  0  0  0  0  0  0  0  0
    2.5411    6.5153   28.9536 C   0  0  2  0  0  0  0  0  0  0  0  0
    1.2290    7.1859   29.0637 N   0  0  0  0  0  0  0  0  0  0  0  0
    0.4470    1.3983   26.6474 C   0  0  2  0  0  0  0  0  0  0  0  0
   -0.3724    1.7980   25.5136 O   0  0  0  0  0  0  0  0  0  0  0  0
   -3.5687   -0.0744   26.5747 C   0  0  1  0  0  0  0  0  0  0  0  0
   -4.3751    0.9531   27.1469 O   0  0  0  0  0  0  0  0  0  0  0  0
    5.6494    7.2398   25.2452 C   0  0  2  0  0  0  0  0  0  0  0  0
    6.7413    6.4793   24.7369 O   0  0  0  0  0  0  0  0  0  0  0  0
    2.5089    5.3631   27.8860 C   0  0  2  0  0  0  0  0  0  0  0  0
    0.2445    2.3612   27.8256 C   0  0  2  0  0  0  0  0  0  0  0  0
    1.1851    3.4342   27.6260 O   0  0  0  0  0  0  0  0  0  0  0  0
   -4.0898   -0.3576   25.1331 C   0  0  2  0  0  0  0  0  0  0  0  0
   -3.5226   -1.5873   24.6784 O   0  0  0  0  0  0  0  0  0  0  0  0
    5.3475    6.8465   26.7191 C   0  0  2  0  0  0  0  0  0  0  0  0
    4.1560    7.5587   27.1696 O   0  0  0  0  0  0  0  0  0  0  0  0
    3.7771    4.4367   27.9474 C   0  0  2  0  0  0  0  0  0  0  0  0
    3.4982    3.2381   27.1780 O   0  0  0  0  0  0  0  0  0  0  0  0
    0.4813    1.6979   29.1940 C   0  0  0  0  0  0  0  0  0  0  0  0
    0.2571    2.6188   30.2473 O   0  0  0  0  0  0  0  0  0  0  0  0
   -3.7032    0.8043   24.1661 C   0  0  1  0  0  0  0  0  0  0  0  0
   -2.2707    1.0698   24.2666 O   0  0  0  0  0  0  0  0  0  0  0  0
    6.4713    7.1847   27.7239 C   0  0  0  0  0  0  0  0  0  0  0  0
    6.4884    8.5686   28.0307 O   0  0  0  0  0  0  0  0  0  0  0  0
    4.1500    4.0111   29.4015 C   0  0  1  0  0  0  0  0  0  0  0  0
    5.3990    3.3219   29.3721 O   0  0  0  0  0  0  0  0  0  0  0  0
   -4.0579    0.4960   22.6889 C   0  0  0  0  0  0  0  0  0  0  0  0
   -3.1642   -0.5143   22.0941 N   0  0  0  0  0  0  0  0  0  0  0  0
  1  2  1  6  0  0  0
  1  7  1  0  0  0  0
  1 30  1  0  0  0  0
  3  4  1  1  0  0  0
  3  9  1  0  0  0  0
  3 39  1  0  0  0  0
  5 10  1  0  0  0  0
  5 26  1  0  0  0  0
  5 32  1  1  0  0  0
  6 12  1  0  0  0  0
  6 36  1  0  0  0  0
  6 19  1  6  0  0  0
  7  8  1  6  0  0  0
  7 14  1  0  0  0  0
  9 16  1  0  0  0  0
 10 11  1  6  0  0  0
 10 18  1  0  0  0  0
 12 13  1  6  0  0  0
 12 20  1  0  0  0  0
 14 15  1  6  0  0  0
 14 22  1  0  0  0  0
 16 17  1  1  0  0  0
 16 24  1  0  0  0  0
 18 19  1  6  0  0  0
 18 25  1  0  0  0  0
 20 21  1  6  0  0  0
 20 27  1  0  0  0  0
 22 23  1  6  0  0  0
 22 29  1  0  0  0  0
 24  2  1  6  0  0  0
 24 31  1  0  0  0  0
 25 26  1  0  0  0  0
 25 33  1  1  0  0  0
 27 28  1  6  0  0  0
 27 35  1  0  0  0  0
 29 30  1  0  0  0  0
 29 37  1  1  0  0  0
 31 32  1  6  0  0  0
 31 39  1  0  0  0  0
 33 34  1  0  0  0  0
 35 36  1  0  0  0  0
 35 41  1  6  0  0  0
 37 38  1  0  0  0  0
 39 40  1  6  0  0  0
 41 42  1  0  0  0  0
M  END
>  <CHROM.1>
163.56233384,23.40716339,60.10352761,-45.17661748,170.32831519,-113.47800946
-161.33163756,-50.54494493,170.48171088,-19.61751897,-55.13217362,177.96255158
-178.85994910,66.59754716,76.55062480,-5.87085521,-158.76483737,62.56548121
-72.42653953,-177.11943665,78.46172097,36.29207513,1.54078649,3.74743831
26.70219514,-0.03138816,-0.73902641,-1.29905744

>  <Name>
1fyp_lig

>  <RI>
0

>  <Rbt.Current_Directory>
/home/itssahil/PROJECTS/Mol_Feturizer/New_Systems/rnas/1fyp

>  <Rbt.Executable>
rbdock ($Id: //depot/dev/client3/rdock/2013.1/src/exe/rbdock.cxx#4 $)

>  <Rbt.Library>
libRbt.so (2013.1, Build901 2013/11/27)

>  <Rbt.Parameter_File>
/export/apps/rDock/src/rDock_2013.1_src/data/scripts/dock_solv.prm

>  <Rbt.Receptor>
prm/pocket_docking_6.prm

>  <SCORE>
-35.4918

>  <SCORE.INTER>
-42.8135

>  <SCORE.INTER.CONST>
1

>  <SCORE.INTER.POLAR>
-6.04385

>  <SCORE.INTER.ROT>
14

>  <SCORE.INTER.SOLV>
17.6159

>  <SCORE.INTER.VDW>
-27.2015

>  <SCORE.INTER.norm>
-1.01937

>  <SCORE.INTRA>
7.32171

>  <SCORE.INTRA.DIHEDRAL>
-18.3266

>  <SCORE.INTRA.DIHEDRAL.0>
48.7173

>  <SCORE.INTRA.POLAR>
0.791605

>  <SCORE.INTRA.POLAR.0>
-1.54691

>  <SCORE.INTRA.REPUL>
0

>  <SCORE.INTRA.REPUL.0>
0

>  <SCORE.INTRA.SOLV>
-1.06812

>  <SCORE.INTRA.SOLV.lig_0>
-64.052

>  <SCORE.INTRA.VDW>
14.3276

>  <SCORE.INTRA.VDW.0>
-7.0667

>  <SCORE.INTRA.norm>
0.174326

>  <SCORE.RESTR>
0

>  <SCORE.RESTR.CAVITY>
0

>  <SCORE.RESTR.norm>
0

>  <SCORE.SYSTEM>
0

>  <SCORE.SYSTEM.CONST>
0

>  <SCORE.SYSTEM.DIHEDRAL>
0

>  <SCORE.SYSTEM.SOLV>
0

>  <SCORE.SYSTEM.norm>
0

>  <SCORE.heavy>
42

>  <SCORE.norm>
-0.845043

>  <RMSD>
4.978

$$$$
1fyp_lig
 OpenBabel11021811393D
libRbt.so/2013.1/901 2013/11/27
 42 45  0  0  0  0  0  0  0  0999 V2000
    4.1200    7.9786   26.2162 C   0  0  2  0  0  0  0  0  0  0  0  0
    3.8584    6.5517   26.0821 O   0  0  0  0  0  0  0  0  0  0  0  0
    5.8017    3.0362   27.5330 C   0  0  2  0  0  0  0  0  0  0  0  0
    6.4292    1.9735   28.3401 N   0  0  0  0  0  0  0  0  0  0  0  0
    1.3761    3.2125   27.4270 C   0  0  1  0  0  0  0  0  0  0  0  0
   -1.1119    0.5691   27.1986 C   0  0  1  0  0  0  0  0  0  0  0  0
    3.1073    8.8272   25.3816 C   0  0  2  0  0  0  0  0  0  0  0  0
    1.7121    8.4298   25.6665 N   0  0  0  0  0  0  0  0  0  0  0  0
    6.4711    4.3873   27.8543 C   0  0  0  0  0  0  0  0  0  0  0  0
    1.2153    2.7319   28.8716 C   0  0  2  0  0  0  0  0  0  0  0  0
    2.1738    1.7089   29.1436 O   0  0  0  0  0  0  0  0  0  0  0  0
   -2.5741    0.2648   27.6465 C   0  0  2  0  0  0  0  0  0  0  0  0
   -2.6400   -0.7289   28.7458 N   0  0  0  0  0  0  0  0  0  0  0  0
    3.4044    8.7037   23.8544 C   0  0  1  0  0  0  0  0  0  0  0  0
    2.5788    9.6030   23.1186 O   0  0  0  0  0  0  0  0  0  0  0  0
    5.8758    5.5521   27.0168 C   0  0  2  0  0  0  0  0  0  0  0  0
    6.5262    6.8035   27.4578 N   0  0  0  0  0  0  0  0  0  0  0  0
   -0.2090    2.1701   28.8585 C   0  0  2  0  0  0  0  0  0  0  0  0
   -0.2486    0.8114   28.3399 O   0  0  0  0  0  0  0  0  0  0  0  0
   -3.4473   -0.1751   26.4311 C   0  0  1  0  0  0  0  0  0  0  0  0
   -3.7148    0.9714   25.6264 O   0  0  0  0  0  0  0  0  0  0  0  0
    4.8863    9.0168   23.5285 C   0  0  2  0  0  0  0  0  0  0  0  0
    5.1136    8.7966   22.1397 O   0  0  0  0  0  0  0  0  0  0  0  0
    4.3117    5.6474   27.1300 C   0  0  2  0  0  0  0  0  0  0  0  0
   -0.9263    3.1337   27.9027 C   0  0  2  0  0  0  0  0  0  0  0  0
    0.0661    3.5546   26.9467 O   0  0  0  0  0  0  0  0  0  0  0  0
   -2.7831   -1.2596   25.5296 C   0  0  2  0  0  0  0  0  0  0  0  0
   -2.8142   -2.5080   26.2232 O   0  0  0  0  0  0  0  0  0  0  0  0
    5.8282    8.1244   24.3856 C   0  0  2  0  0  0  0  0  0  0  0  0
    5.4910    8.2896   25.7958 O   0  0  0  0  0  0  0  0  0  0  0  0
    3.6003    4.2564   26.9602 C   0  0  2  0  0  0  0  0  0  0  0  0
    2.2274    4.3936   27.4104 O   0  0  0  0  0  0  0  0  0  0  0  0
   -1.5249    4.3581   28.6178 C   0  0  0  0  0  0  0  0  0  0  0  0
   -1.9948    4.0095   29.9083 O   0  0  0  0  0  0  0  0  0  0  0  0
   -1.3116   -0.8699   25.1871 C   0  0  1  0  0  0  0  0  0  0  0  0
   -0.5881   -0.5576   26.4166 O   0  0  0  0  0  0  0  0  0  0  0  0
    7.3322    8.4507   24.2494 C   0  0  0  0  0  0  0  0  0  0  0  0
    8.0752    7.9155   25.3316 O   0  0  0  0  0  0  0  0  0  0  0  0
    4.2776    3.1211   27.7890 C   0  0  1  0  0  0  0  0  0  0  0  0
    3.6745    1.8758   27.4406 O   0  0  0  0  0  0  0  0  0  0  0  0
   -0.5574   -1.9911   24.4275 C   0  0  0  0  0  0  0  0  0  0  0  0
   -0.7529   -1.9129   22.9685 N   0  0  0  0  0  0  0  0  0  0  0  0
  1  2  1  6  0  0  0
  1  7  1  0  0  0  0
  1 30  1  0  0  0  0
  3  4  1  1  0  0  0
  3  9  1  0  0  0  0
  3 39  1  0  0  0  0
  5 10  1  0  0  0  0
  5 26  1  0  0  0  0
  5 32  1  1  0  0  0
  6 12  1  0  0  0  0
  6 36  1  0  0  0  0
  6 19  1  1  0  0  0
  7  8  1  6  0  0  0
  7 14  1  0  0  0  0
  9 16  1  0  0  0  0
 10 11  1  6  0  0  0
 10 18  1  0  0  0  0
 12 13  1  1  0  0  0
 12 20  1  0  0  0  0
 14 15  1  6  0  0  0
 14 22  1  0  0  0  0
 16 17  1  1  0  0  0
 16 24  1  0  0  0  0
 18 19  1  6  0  0  0
 18 25  1  0  0  0  0
 20 21  1  6  0  0  0
 20 27  1  0  0  0  0
 22 23  1  6  0  0  0
 22 29  1  0  0  0  0
 24  2  1  6  0  0  0
 24 31  1  0  0  0  0
 25 26  1  0  0  0  0
 25 33  1  1  0  0  0
 27 28  1  1  0  0  0
 27 35  1  0  0  0  0
 29 30  1  0  0  0  0
 29 37  1  1  0  0  0
 31 32  1  1  0  0  0
 31 39  1  0  0  0  0
 33 34  1  0  0  0  0
 35 36  1  0  0  0  0
 35 41  1  1  0  0  0
 37 38  1  0  0  0  0
 39 40  1  6  0  0  0
 41 42  1  0  0  0  0
M  END
>  <CHROM.1>
-156.37445917,-72.11478982,-18.07020704,-150.68119850,-66.06345937,-97.69216287
61.31298867,-15.77886372,-123.19747448,-85.88852040,68.72420506,-54.87482565
-34.76471283,164.75408039,161.60022737,-176.40464368,104.35552166,-62.52334426
87.17827639,-98.51416504,69.22199349,47.72268832,1.95455591,3.78017308,26.49371386
0.78818420,-0.35985699,-0.52803605

>  <Name>
1fyp_lig

>  <RI>
0

>  <Rbt.Current_Directory>
/home/itssahil/PROJECTS/Mol_Feturizer/New_Systems/rnas/1fyp

>  <Rbt.Executable>
rbdock ($Id: //depot/dev/client3/rdock/2013.1/src/exe/rbdock.cxx#4 $)

>  <Rbt.Library>
libRbt.so (2013.1, Build901 2013/11/27)

>  <Rbt.Parameter_File>
/export/apps/rDock/src/rDock_2013.1_src/data/scripts/dock_solv.prm

>  <Rbt.Receptor>
prm/blind_docking_80.prm

>  <SCORE>
-28.9733

>  <SCORE.INTER>
-35.3534

>  <SCORE.INTER.CONST>
1

>  <SCORE.INTER.POLAR>
-4.57496

>  <SCORE.INTER.ROT>
14

>  <SCORE.INTER.SOLV>
19.5625

>  <SCORE.INTER.VDW>
-27.7732

>  <SCORE.INTER.norm>
-0.841748

>  <SCORE.INTRA>
6.38008

>  <SCORE.INTRA.DIHEDRAL>
-9.89594

>  <SCORE.INTRA.DIHEDRAL.0>
48.7173

>  <SCORE.INTRA.POLAR>
-0.0578459

>  <SCORE.INTRA.POLAR.0>
-1.54691

>  <SCORE.INTRA.REPUL>
0.0240573

>  <SCORE.INTRA.REPUL.0>
0

>  <SCORE.INTRA.SOLV>
0.345242

>  <SCORE.INTRA.SOLV.lig_0>
-64.052

>  <SCORE.INTRA.VDW>
11.2318

>  <SCORE.INTRA.VDW.0>
-7.0667

>  <SCORE.INTRA.norm>
0.151907

>  <SCORE.RESTR>
0

>  <SCORE.RESTR.CAVITY>
0

>  <SCORE.RESTR.norm>
0

>  <SCORE.SYSTEM>
0

>  <SCORE.SYSTEM.CONST>
0

>  <SCORE.SYSTEM.DIHEDRAL>
0

>  <SCORE.SYSTEM.SOLV>
0

>  <SCORE.SYSTEM.norm>
0

>  <SCORE.heavy>
42

>  <SCORE.norm>
-0.689841

>  <RMSD>
4.985

$$$$
1fyp_lig
 OpenBabel11021811393D
libRbt.so/2013.1/901 2013/11/27
 42 45  0  0  0  0  0  0  0  0999 V2000
    2.4085    7.4875   25.4558 C   0  0  2  0  0  0  0  0  0  0  0  0
    3.4847    7.0307   26.3249 O   0  0  0  0  0  0  0  0  0  0  0  0
    4.1806    5.0115   30.0235 C   0  0  2  0  0  0  0  0  0  0  0  0
    4.1177    4.1670   31.2307 N   0  0  0  0  0  0  0  0  0  0  0  0
    3.2145    3.3237   26.0839 C   0  0  1  0  0  0  0  0  0  0  0  0
    0.5973   -0.2291   25.4912 C   0  0  1  0  0  0  0  0  0  0  0  0
    2.3838    6.6940   24.1098 C   0  0  2  0  0  0  0  0  0  0  0  0
    2.4034    5.2349   24.3470 N   0  0  0  0  0  0  0  0  0  0  0  0
    2.8930    5.8530   29.9186 C   0  0  0  0  0  0  0  0  0  0  0  0
    3.6639    1.9339   25.6254 C   0  0  2  0  0  0  0  0  0  0  0  0
    3.6351    1.8696   24.1990 O   0  0  0  0  0  0  0  0  0  0  0  0
    0.1880   -0.7228   24.0700 C   0  0  2  0  0  0  0  0  0  0  0  0
   -0.3490    0.3670   23.2191 N   0  0  0  0  0  0  0  0  0  0  0  0
    3.5795    7.1103   23.1969 C   0  0  1  0  0  0  0  0  0  0  0  0
    3.4554    6.4992   21.9151 O   0  0  0  0  0  0  0  0  0  0  0  0
    2.9025    6.7900   28.6800 C   0  0  2  0  0  0  0  0  0  0  0  0
    1.5995    7.4853   28.6299 N   0  0  0  0  0  0  0  0  0  0  0  0
    2.5885    1.0366   26.2442 C   0  0  2  0  0  0  0  0  0  0  0  0
    1.3897    0.9850   25.4216 O   0  0  0  0  0  0  0  0  0  0  0  0
   -0.8131   -1.9154   24.1631 C   0  0  1  0  0  0  0  0  0  0  0  0
   -0.0985   -3.0755   24.5841 O   0  0  0  0  0  0  0  0  0  0  0  0
    3.6511    8.6460   23.0057 C   0  0  2  0  0  0  0  0  0  0  0  0
    4.8116    8.9663   22.2445 O   0  0  0  0  0  0  0  0  0  0  0  0
    3.1971    6.0258   27.3393 C   0  0  2  0  0  0  0  0  0  0  0  0
    2.3009    1.7488   27.5733 C   0  0  2  0  0  0  0  0  0  0  0  0
    2.5084    3.1524   27.3232 O   0  0  0  0  0  0  0  0  0  0  0  0
   -1.9914   -1.6812   25.1564 C   0  0  2  0  0  0  0  0  0  0  0  0
   -2.8971   -0.7428   24.5734 O   0  0  0  0  0  0  0  0  0  0  0  0
    3.6874    9.3612   24.3861 C   0  0  2  0  0  0  0  0  0  0  0  0
    2.5455    8.9226   25.1821 O   0  0  0  0  0  0  0  0  0  0  0  0
    4.4145    5.0384   27.4530 C   0  0  2  0  0  0  0  0  0  0  0  0
    4.3892    4.1560   26.3009 O   0  0  0  0  0  0  0  0  0  0  0  0
    3.2114    1.2755   28.7204 C   0  0  0  0  0  0  0  0  0  0  0  0
    2.7010    1.6919   29.9749 O   0  0  0  0  0  0  0  0  0  0  0  0
   -1.4651   -1.1442   26.5235 C   0  0  1  0  0  0  0  0  0  0  0  0
   -0.6054    0.0144   26.2972 O   0  0  0  0  0  0  0  0  0  0  0  0
    3.6141   10.9031   24.3200 C   0  0  0  0  0  0  0  0  0  0  0  0
    3.2481   11.4554   25.5731 O   0  0  0  0  0  0  0  0  0  0  0  0
    4.3693    4.1624   28.7434 C   0  0  1  0  0  0  0  0  0  0  0  0
    5.5892    3.4292   28.8437 O   0  0  0  0  0  0  0  0  0  0  0  0
   -2.6096   -0.7435   27.4893 C   0  0  0  0  0  0  0  0  0  0  0  0
   -2.3934   -1.2462   28.8580 N   0  0  0  0  0  0  0  0  0  0  0  0
  1  2  1  1  0  0  0
  1  7  1  0  0  0  0
  1 30  1  0  0  0  0
  3  4  1  1  0  0  0
  3  9  1  0  0  0  0
  3 39  1  0  0  0  0
  5 10  1  0  0  0  0
  5 26  1  0  0  0  0
  5 32  1  1  0  0  0
  6 12  1  0  0  0  0
  6 36  1  0  0  0  0
  6 19  1  6  0  0  0
  7  8  1  1  0  0  0
  7 14  1  0  0  0  0
  9 16  1  0  0  0  0
 10 11  1  6  0  0  0
 10 18  1  0  0  0  0
 12 13  1  6  0  0  0
 12 20  1  0  0  0  0
 14 15  1  6  0  0  0
 14 22  1  0  0  0  0
 16 17  1  6  0  0  0
 16 24  1  0  0  0  0
 18 19  1  6  0  0  0
 18 25  1  0  0  0  0
 20 21  1  1  0  0  0
 20 27  1  0  0  0  0
 22 23  1  6  0  0  0
 22 29  1  0  0  0  0
 24  2  1  6  0  0  0
 24 31  1  0  0  0  0
 25 26  1  0  0  0  0
 25 33  1  1  0  0  0
 27 28  1  6  0  0  0
 27 35  1  0  0  0  0
 29 30  1  0  0  0  0
 29 37  1  6  0  0  0
 31 32  1  6  0  0  0
 31 39  1  0  0  0  0
 33 34  1  0  0  0  0
 35 36  1  0  0  0  0
 35 41  1  1  0  0  0
 37 38  1  0  0  0  0
 39 40  1  1  0  0  0
 41 42  1  0  0  0  0
M  END
>  <CHROM.1>
-94.82876322,-95.10519632,96.54931854,160.41472571,109.99296780,70.03513217
174.80754804,71.26261526,151.11252887,-134.10901806,-179.58084785,-48.80370603
-165.10860168,76.16182809,162.26363034,-59.28580368,-139.20326338,77.42798776
134.56761619,74.26200164,-171.84585052,46.62081942,2.13981180,3.71872977
26.14570852,0.57431973,-1.05123587,-0.99476276

>  <Name>
1fyp_lig

>  <RI>
0

>  <Rbt.Current_Directory>
/home/itssahil/PROJECTS/Mol_Feturizer/New_Systems/rnas/1fyp

>  <Rbt.Executable>
rbdock ($Id: //depot/dev/client3/rdock/2013.1/src/exe/rbdock.cxx#4 $)

>  <Rbt.Library>
libRbt.so (2013.1, Build901 2013/11/27)

>  <Rbt.Parameter_File>
/export/apps/rDock/src/rDock_2013.1_src/data/scripts/dock_solv.prm

>  <Rbt.Receptor>
prm/blind_docking_80.prm

>  <SCORE>
-50.3161

>  <SCORE.INTER>
-54.1136

>  <SCORE.INTER.CONST>
1

>  <SCORE.INTER.POLAR>
-7.11611

>  <SCORE.INTER.ROT>
14

>  <SCORE.INTER.SOLV>
24.7326

>  <SCORE.INTER.VDW>
-33.5329

>  <SCORE.INTER.norm>
-1.28842

>  <SCORE.INTRA>
3.60382

>  <SCORE.INTRA.DIHEDRAL>
-4.14268

>  <SCORE.INTRA.DIHEDRAL.0>
48.7173

>  <SCORE.INTRA.POLAR>
0.302526

>  <SCORE.INTRA.POLAR.0>
-1.54691

>  <SCORE.INTRA.REPUL>
0

>  <SCORE.INTRA.REPUL.0>
0

>  <SCORE.INTRA.SOLV>
-0.0866014

>  <SCORE.INTRA.SOLV.lig_0>
-64.052

>  <SCORE.INTRA.VDW>
4.68987

>  <SCORE.INTRA.VDW.0>
-7.0667

>  <SCORE.INTRA.norm>
0.0858052

>  <SCORE.RESTR>
0.193729

>  <SCORE.RESTR.CAVITY>
0.193729

>  <SCORE.RESTR.norm>
0.0046126

>  <SCORE.SYSTEM>
0

>  <SCORE.SYSTEM.CONST>
0

>  <SCORE.SYSTEM.DIHEDRAL>
0

>  <SCORE.SYSTEM.SOLV>
0

>  <SCORE.SYSTEM.norm>
0

>  <SCORE.heavy>
42

>  <SCORE.norm>
-1.198

>  <RMSD>
4.994

$$$$
1fyp_lig
 OpenBabel11021811393D
libRbt.so/2013.1/901 2013/11/27
 42 45  0  0  0  0  0  0  0  0999 V2000
    2.4798    7.8363   25.2509 C   0  0  2  0  0  0  0  0  0  0  0  0
    3.4640    7.3878   26.2269 O   0  0  0  0  0  0  0  0  0  0  0  0
    3.4629    5.9273   30.2403 C   0  0  2  0  0  0  0  0  0  0  0  0
    3.2011    5.2298   31.5129 N   0  0  0  0  0  0  0  0  0  0  0  0
    3.5906    3.7687   26.3616 C   0  0  1  0  0  0  0  0  0  0  0  0
    1.0847    0.3931   25.4375 C   0  0  1  0  0  0  0  0  0  0  0  0
    2.5601    7.0019   23.9321 C   0  0  2  0  0  0  0  0  0  0  0  0
    2.5285    5.5507   24.2128 N   0  0  0  0  0  0  0  0  0  0  0  0
    2.1588    6.5736   29.7319 C   0  0  0  0  0  0  0  0  0  0  0  0
    4.2408    2.5092   25.7831 C   0  0  2  0  0  0  0  0  0  0  0  0
    4.3662    2.6444   24.3670 O   0  0  0  0  0  0  0  0  0  0  0  0
    0.3820   -0.0328   24.1124 C   0  0  2  0  0  0  0  0  0  0  0  0
    0.0058    1.1265   23.2669 N   0  0  0  0  0  0  0  0  0  0  0  0
    3.8411    7.3684   23.1193 C   0  0  1  0  0  0  0  0  0  0  0  0
    3.8203    6.7201   21.8500 O   0  0  0  0  0  0  0  0  0  0  0  0
    2.3671    7.3514   28.4037 C   0  0  2  0  0  0  0  0  0  0  0  0
    1.0499    7.8582   27.9660 N   0  0  0  0  0  0  0  0  0  0  0  0
    3.2174    1.4311   26.1503 C   0  0  2  0  0  0  0  0  0  0  0  0
    2.1232    1.3772   25.1930 O   0  0  0  0  0  0  0  0  0  0  0  0
   -0.8491   -0.9450   24.4046 C   0  0  1  0  0  0  0  0  0  0  0  0
   -0.3768   -2.2290   24.8068 O   0  0  0  0  0  0  0  0  0  0  0  0
    3.9609    8.8959   22.8903 C   0  0  2  0  0  0  0  0  0  0  0  0
    5.1914    9.1719   22.2281 O   0  0  0  0  0  0  0  0  0  0  0  0
    3.0469    6.4802   27.2870 C   0  0  2  0  0  0  0  0  0  0  0  0
    2.7152    1.9162   27.5173 C   0  0  2  0  0  0  0  0  0  0  0  0
    2.7852    3.3547   27.4769 O   0  0  0  0  0  0  0  0  0  0  0  0
   -1.7935   -0.4015   25.5193 C   0  0  2  0  0  0  0  0  0  0  0  0
   -2.5238    0.7084   24.9946 O   0  0  0  0  0  0  0  0  0  0  0  0
    3.8875    9.6530   24.2467 C   0  0  2  0  0  0  0  0  0  0  0  0
    2.6700    9.2595   24.9487 O   0  0  0  0  0  0  0  0  0  0  0  0
    4.2959    5.6820   27.8095 C   0  0  2  0  0  0  0  0  0  0  0  0
    4.6338    4.6746   26.8208 O   0  0  0  0  0  0  0  0  0  0  0  0
    3.5512    1.3787   28.6924 C   0  0  0  0  0  0  0  0  0  0  0  0
    2.9171    1.6513   29.9298 O   0  0  0  0  0  0  0  0  0  0  0  0
   -0.9754    0.0363   26.7737 C   0  0  1  0  0  0  0  0  0  0  0  0
    0.0936    0.9453   26.3692 O   0  0  0  0  0  0  0  0  0  0  0  0
    3.8518   11.1931   24.1289 C   0  0  0  0  0  0  0  0  0  0  0  0
    3.7833   11.8057   25.4054 O   0  0  0  0  0  0  0  0  0  0  0  0
    4.0345    4.9657   29.1707 C   0  0  1  0  0  0  0  0  0  0  0  0
    5.2634    4.4165   29.6440 O   0  0  0  0  0  0  0  0  0  0  0  0
   -1.8518    0.7322   27.8464 C   0  0  0  0  0  0  0  0  0  0  0  0
   -2.2215    2.1075   27.4661 N   0  0  0  0  0  0  0  0  0  0  0  0
  1  2  1  1  0  0  0
  1  7  1  0  0  0  0
  1 30  1  0  0  0  0
  3  4  1  1  0  0  0
  3  9  1  0  0  0  0
  3 39  1  0  0  0  0
  5 10  1  0  0  0  0
  5 26  1  0  0  0  0
  5 32  1  1  0  0  0
  6 12  1  0  0  0  0
  6 36  1  0  0  0  0
  6 19  1  6  0  0  0
  7  8  1  1  0  0  0
  7 14  1  0  0  0  0
  9 16  1  0  0  0  0
 10 11  1  6  0  0  0
 10 18  1  0  0  0  0
 12 13  1  1  0  0  0
 12 20  1  0  0  0  0
 14 15  1  6  0  0  0
 14 22  1  0  0  0  0
 16 17  1  6  0  0  0
 16 24  1  0  0  0  0
 18 19  1  6  0  0  0
 18 25  1  0  0  0  0
 20 21  1  1  0  0  0
 20 27  1  0  0  0  0
 22 23  1  1  0  0  0
 22 29  1  0  0  0  0
 24  2  1  6  0  0  0
 24 31  1  0  0  0  0
 25 26  1  0  0  0  0
 25 33  1  1  0  0  0
 27 28  1  6  0  0  0
 27 35  1  0  0  0  0
 29 30  1  0  0  0  0
 29 37  1  6  0  0  0
 31 32  1  6  0  0  0
 31 39  1  0  0  0  0
 33 34  1  0  0  0  0
 35 36  1  0  0  0  0
 35 41  1  1  0  0  0
 37 38  1  0  0  0  0
 39 40  1  1  0  0  0
 41 42  1  0  0  0  0
M  END
>  <CHROM.1>
-98.36076243,-81.00462104,-79.87174691,166.76872491,147.82095244,70.73720362
64.68599576,-84.39415319,-179.83528855,-153.52770028,-26.44401253,64.02573703
-169.52963735,-45.13967830,179.91140430,-52.50966566,-158.31624303,66.76082548
-74.73511731,-55.29767514,-177.55555138,-68.69254885,2.28655477,4.37346303
26.16024584,0.46956726,-1.10119327,-1.15868383

>  <Name>
1fyp_lig

>  <RI>
0

>  <Rbt.Current_Directory>
/home/itssahil/PROJECTS/Mol_Feturizer/New_Systems/rnas/1fyp

>  <Rbt.Executable>
rbdock ($Id: //depot/dev/client3/rdock/2013.1/src/exe/rbdock.cxx#4 $)

>  <Rbt.Library>
libRbt.so (2013.1, Build901 2013/11/27)

>  <Rbt.Parameter_File>
/export/apps/rDock/src/rDock_2013.1_src/data/scripts/dock_solv.prm

>  <Rbt.Receptor>
prm/blind_docking_100.prm

>  <SCORE>
-57.5663

>  <SCORE.INTER>
-53.0206

>  <SCORE.INTER.CONST>
1

>  <SCORE.INTER.POLAR>
-7.26451

>  <SCORE.INTER.ROT>
14

>  <SCORE.INTER.SOLV>
24.3193

>  <SCORE.INTER.VDW>
-32.1718

>  <SCORE.INTER.norm>
-1.2624

>  <SCORE.INTRA>
-4.54565

>  <SCORE.INTRA.DIHEDRAL>
-22.8075

>  <SCORE.INTRA.DIHEDRAL.0>
48.7173

>  <SCORE.INTRA.POLAR>
0.813863

>  <SCORE.INTRA.POLAR.0>
-1.54691

>  <SCORE.INTRA.REPUL>
0.0450237

>  <SCORE.INTRA.REPUL.0>
0

>  <SCORE.INTRA.SOLV>
-0.882841

>  <SCORE.INTRA.SOLV.lig_0>
-64.052

>  <SCORE.INTRA.VDW>
4.30727

>  <SCORE.INTRA.VDW.0>
-7.0667

>  <SCORE.INTRA.norm>
-0.10823

>  <SCORE.RESTR>
0

>  <SCORE.RESTR.CAVITY>
0

>  <SCORE.RESTR.norm>
0

>  <SCORE.SYSTEM>
0

>  <SCORE.SYSTEM.CONST>
0

>  <SCORE.SYSTEM.DIHEDRAL>
0

>  <SCORE.SYSTEM.SOLV>
0

>  <SCORE.SYSTEM.norm>
0

>  <SCORE.heavy>
42

>  <SCORE.norm>
-1.37063

>  <RMSD>
5.000

$$$$
1fyp_lig
 OpenBabel11021811393D
libRbt.so/2013.1/901 2013/11/27
 42 45  0  0  0  0  0  0  0  0999 V2000
    6.1737    6.5101   26.5833 C   0  0  2  0  0  0  0  0  0  0  0  0
    5.2509    6.7852   27.6765 O   0  0  0  0  0  0  0  0  0  0  0  0
    7.9128    5.2457   30.6405 C   0  0  2  0  0  0  0  0  0  0  0  0
    8.6377    4.9015   31.8776 N   0  0  0  0  0  0  0  0  0  0  0  0
    3.7464    3.7052   28.4702 C   0  0  1  0  0  0  0  0  0  0  0  0
    1.0569    0.7792   26.4468 C   0  0  1  0  0  0  0  0  0  0  0  0
    5.5002    6.7452   25.1929 C   0  0  2  0  0  0  0  0  0  0  0  0
    4.8512    8.0720   25.1288 N   0  0  0  0  0  0  0  0  0  0  0  0
    7.8318    6.7792   30.5033 C   0  0  0  0  0  0  0  0  0  0  0  0
    2.7828    2.7186   29.1349 C   0  0  2  0  0  0  0  0  0  0  0  0
    3.4618    1.4890   29.3930 O   0  0  0  0  0  0  0  0  0  0  0  0
    1.4261    0.3508   24.9938 C   0  0  2  0  0  0  0  0  0  0  0  0
    1.9507    1.4761   24.1820 N   0  0  0  0  0  0  0  0  0  0  0  0
    4.4647    5.6202   24.8793 C   0  0  1  0  0  0  0  0  0  0  0  0
    3.9771    5.7583   23.5470 O   0  0  0  0  0  0  0  0  0  0  0  0
    7.1020    7.2153   29.2034 C   0  0  2  0  0  0  0  0  0  0  0  0
    7.0087    8.6901   29.2112 N   0  0  0  0  0  0  0  0  0  0  0  0
    1.7136    2.5468   28.0525 C   0  0  2  0  0  0  0  0  0  0  0  0
    2.1130    1.5718   27.0492 O   0  0  0  0  0  0  0  0  0  0  0  0
    0.2148   -0.3379   24.2928 C   0  0  1  0  0  0  0  0  0  0  0  0
    0.0466   -1.6387   24.8525 O   0  0  0  0  0  0  0  0  0  0  0  0
    5.0834    4.2082   25.0335 C   0  0  2  0  0  0  0  0  0  0  0  0
    4.0685    3.2306   24.8263 O   0  0  0  0  0  0  0  0  0  0  0  0
    5.6868    6.5515   29.0465 C   0  0  2  0  0  0  0  0  0  0  0  0
    1.6456    3.9532   27.4412 C   0  0  2  0  0  0  0  0  0  0  0  0
    2.9742    4.4989   27.5550 O   0  0  0  0  0  0  0  0  0  0  0  0
   -1.1306    0.4350   24.4421 C   0  0  2  0  0  0  0  0  0  0  0  0
   -1.0847    1.5924   23.6061 O   0  0  0  0  0  0  0  0  0  0  0  0
    5.7182    4.0477   26.4440 C   0  0  2  0  0  0  0  0  0  0  0  0
    6.6697    5.1317   26.6665 O   0  0  0  0  0  0  0  0  0  0  0  0
    5.7012    5.0059   29.3312 C   0  0  2  0  0  0  0  0  0  0  0  0
    4.3282    4.5637   29.4920 O   0  0  0  0  0  0  0  0  0  0  0  0
    0.6343    4.8709   28.1510 C   0  0  0  0  0  0  0  0  0  0  0  0
   -0.5219    4.1472   28.5345 O   0  0  0  0  0  0  0  0  0  0  0  0
   -1.3682    0.8518   25.9268 C   0  0  1  0  0  0  0  0  0  0  0  0
   -0.1913    1.5520   26.4339 O   0  0  0  0  0  0  0  0  0  0  0  0
    6.4925    2.7283   26.6605 C   0  0  0  0  0  0  0  0  0  0  0  0
    7.8213    2.8258   26.1767 O   0  0  0  0  0  0  0  0  0  0  0  0
    6.4919    4.6324   30.6233 C   0  0  1  0  0  0  0  0  0  0  0  0
    6.5946    3.2116   30.7043 O   0  0  0  0  0  0  0  0  0  0  0  0
   -2.6116    1.7611   26.1010 C   0  0  0  0  0  0  0  0  0  0  0  0
   -3.8714    1.0551   25.8052 N   0  0  0  0  0  0  0  0  0  0  0  0
  1  2  1  1  0  0  0
  1  7  1  0  0  0  0
  1 30  1  0  0  0  0
  3  4  1  1  0  0  0
  3  9  1  0  0  0  0
  3 39  1  0  0  0  0
  5 10  1  0  0  0  0
  5 26  1  0  0  0  0
  5 32  1  1  0  0  0
  6 12  1  0  0  0  0
  6 36  1  0  0  0  0
  6 19  1  6  0  0  0
  7  8  1  1  0  0  0
  7 14  1  0  0  0  0
  9 16  1  0  0  0  0
 10 11  1  6  0  0  0
 10 18  1  0  0  0  0
 12 13  1  6  0  0  0
 12 20  1  0  0  0  0
 14 15  1  6  0  0  0
 14 22  1  0  0  0  0
 16 17  1  1  0  0  0
 16 24  1  0  0  0  0
 18 19  1  6  0  0  0
 18 25  1  0  0  0  0
 20 21  1  1  0  0  0
 20 27  1  0  0  0  0
 22 23  1  1  0  0  0
 22 29  1  0  0  0  0
 24  2  1  6  0  0  0
 24 31  1  0  0  0  0
 25 26  1  0  0  0  0
 25 33  1  1  0  0  0
 27 28  1  6  0  0  0
 27 35  1  0  0  0  0
 29 30  1  0  0  0  0
 29 37  1  6  0  0  0
 31 32  1  1  0  0  0
 31 39  1  0  0  0  0
 33 34  1  0  0  0  0
 35 36  1  0  0  0  0
 35 41  1  6  0  0  0
 37 38  1  0  0  0  0
 39 40  1  6  0  0  0
 41 42  1  0  0  0  0
M  END
>  <CHROM.1>
176.81505566,47.91108886,-154.34810391,-66.21494047,66.24263493,55.66027879
47.29819676,-106.00565958,147.05574187,151.07530312,-70.07082827,-157.33882842
-37.79278953,58.08925027,84.12792162,111.07478340,145.46728878,-64.46865336
66.77874537,43.89577728,64.70659694,175.25722586,3.47236745,3.69045398,27.13402270
-0.18948376,-0.65315387,-1.25950322

>  <Name>
1fyp_lig

>  <RI>
0

>  <Rbt.Current_Directory>
/home/itssahil/PROJECTS/Mol_Feturizer/New_Systems/rnas/1fyp

>  <Rbt.Executable>
rbdock ($Id: //depot/dev/client3/rdock/2013.1/src/exe/rbdock.cxx#4 $)

>  <Rbt.Library>
libRbt.so (2013.1, Build901 2013/11/27)

>  <Rbt.Parameter_File>
/export/apps/rDock/src/rDock_2013.1_src/data/scripts/dock_solv.prm

>  <Rbt.Receptor>
prm/pocket_docking_3.prm

>  <SCORE>
-41.9238

>  <SCORE.INTER>
-40.4002

>  <SCORE.INTER.CONST>
1

>  <SCORE.INTER.POLAR>
-6.00688

>  <SCORE.INTER.ROT>
14

>  <SCORE.INTER.SOLV>
21.585

>  <SCORE.INTER.VDW>
-27.0389

>  <SCORE.INTER.norm>
-0.961911

>  <SCORE.INTRA>
-4.21109

>  <SCORE.INTRA.DIHEDRAL>
-16.9263

>  <SCORE.INTRA.DIHEDRAL.0>
48.7173

>  <SCORE.INTRA.POLAR>
0.264406

>  <SCORE.INTRA.POLAR.0>
-1.54691

>  <SCORE.INTRA.REPUL>
0

>  <SCORE.INTRA.REPUL.0>
0

>  <SCORE.INTRA.SOLV>
0.0560778

>  <SCORE.INTRA.SOLV.lig_0>
-64.052

>  <SCORE.INTRA.VDW>
3.32505

>  <SCORE.INTRA.VDW.0>
-7.0667

>  <SCORE.INTRA.norm>
-0.100264

>  <SCORE.RESTR>
2.68749

>  <SCORE.RESTR.CAVITY>
2.68749

>  <SCORE.RESTR.norm>
0.0639878

>  <SCORE.SYSTEM>
0

>  <SCORE.SYSTEM.CONST>
0

>  <SCORE.SYSTEM.DIHEDRAL>
0

>  <SCORE.SYSTEM.SOLV>
0

>  <SCORE.SYSTEM.norm>
0

>  <SCORE.heavy>
42

>  <SCORE.norm>
-0.998187

>  <RMSD>
5.002

$$$$
1fyp_lig
 OpenBabel11021811393D
libRbt.so/2013.1/901 2013/11/27
 42 45  0  0  0  0  0  0  0  0999 V2000
    3.5181    7.2102   26.6261 C   0  0  2  0  0  0  0  0  0  0  0  0
    3.0081    5.8491   26.5283 O   0  0  0  0  0  0  0  0  0  0  0  0
    4.1190    4.3223   30.3592 C   0  0  2  0  0  0  0  0  0  0  0  0
    4.1712    3.7031   31.6964 N   0  0  0  0  0  0  0  0  0  0  0  0
    2.1755    2.1316   27.1673 C   0  0  1  0  0  0  0  0  0  0  0  0
   -1.9298    0.5574   27.1308 C   0  0  1  0  0  0  0  0  0  0  0  0
    3.8304    7.8071   25.2160 C   0  0  2  0  0  0  0  0  0  0  0  0
    2.6816    7.6468   24.2994 N   0  0  0  0  0  0  0  0  0  0  0  0
    2.9979    5.3802   30.3272 C   0  0  0  0  0  0  0  0  0  0  0  0
    0.9626    3.0063   26.8394 C   0  0  2  0  0  0  0  0  0  0  0  0
    0.5067    3.6546   28.0273 O   0  0  0  0  0  0  0  0  0  0  0  0
   -1.8740   -0.8714   27.7527 C   0  0  2  0  0  0  0  0  0  0  0  0
   -0.5730   -1.5452   27.5208 N   0  0  0  0  0  0  0  0  0  0  0  0
    5.1071    7.1499   24.6043 C   0  0  1  0  0  0  0  0  0  0  0  0
    5.4699    7.8123   23.3954 O   0  0  0  0  0  0  0  0  0  0  0  0
    2.9032    6.0949   28.9515 C   0  0  2  0  0  0  0  0  0  0  0  0
    1.7544    7.0229   29.0030 N   0  0  0  0  0  0  0  0  0  0  0  0
   -0.0498    1.9676   26.3492 C   0  0  2  0  0  0  0  0  0  0  0  0
   -0.7401    1.3226   27.4556 O   0  0  0  0  0  0  0  0  0  0  0  0
   -3.0633   -1.7446   27.2464 C   0  0  1  0  0  0  0  0  0  0  0  0
   -4.2588   -1.2932   27.8792 O   0  0  0  0  0  0  0  0  0  0  0  0
    6.3097    7.2101   25.5791 C   0  0  2  0  0  0  0  0  0  0  0  0
    7.4110    6.5148   25.0025 O   0  0  0  0  0  0  0  0  0  0  0  0
    2.7763    5.0906   27.7500 C   0  0  2  0  0  0  0  0  0  0  0  0
    0.8494    0.9632   25.6150 C   0  0  2  0  0  0  0  0  0  0  0  0
    2.1119    0.9814   26.3089 O   0  0  0  0  0  0  0  0  0  0  0  0
   -3.2788   -1.6932   25.7034 C   0  0  2  0  0  0  0  0  0  0  0  0
   -2.2373   -2.4415   25.0741 O   0  0  0  0  0  0  0  0  0  0  0  0
    5.9254    6.5856   26.9504 C   0  0  2  0  0  0  0  0  0  0  0  0
    4.7267    7.2457   27.4574 O   0  0  0  0  0  0  0  0  0  0  0  0
    3.8072    3.9070   27.8307 C   0  0  2  0  0  0  0  0  0  0  0  0
    3.3921    2.8820   26.8907 O   0  0  0  0  0  0  0  0  0  0  0  0
    1.0565    1.3122   24.1304 C   0  0  0  0  0  0  0  0  0  0  0  0
   -0.1755    1.6393   23.5118 O   0  0  0  0  0  0  0  0  0  0  0  0
   -3.2684   -0.2194   25.1913 C   0  0  1  0  0  0  0  0  0  0  0  0
   -2.0678    0.4585   25.6725 O   0  0  0  0  0  0  0  0  0  0  0  0
    7.0029    6.7206   28.0495 C   0  0  0  0  0  0  0  0  0  0  0  0
    7.2277    8.0791   28.3862 O   0  0  0  0  0  0  0  0  0  0  0  0
    3.8886    3.2666   29.2511 C   0  0  1  0  0  0  0  0  0  0  0  0
    4.9616    2.3264   29.2701 O   0  0  0  0  0  0  0  0  0  0  0  0
   -3.3179   -0.1232   23.6449 C   0  0  0  0  0  0  0  0  0  0  0  0
   -4.4933   -0.8067   23.0755 N   0  0  0  0  0  0  0  0  0  0  0  0
  1  2  1  6  0  0  0
  1  7  1  0  0  0  0
  1 30  1  0  0  0  0
  3  4  1  1  0  0  0
  3  9  1  0  0  0  0
  3 39  1  0  0  0  0
  5 10  1  0  0  0  0
  5 26  1  0  0  0  0
  5 32  1  6  0  0  0
  6 12  1  0  0  0  0
  6 36  1  0  0  0  0
  6 19  1  6  0  0  0
  7  8  1  6  0  0  0
  7 14  1  0  0  0  0
  9 16  1  0  0  0  0
 10 11  1  1  0  0  0
 10 18  1  0  0  0  0
 12 13  1  6  0  0  0
 12 20  1  0  0  0  0
 14 15  1  6  0  0  0
 14 22  1  0  0  0  0
 16 17  1  1  0  0  0
 16 24  1  0  0  0  0
 18 19  1  1  0  0  0
 18 25  1  0  0  0  0
 20 21  1  1  0  0  0
 20 27  1  0  0  0  0
 22 23  1  6  0  0  0
 22 29  1  0  0  0  0
 24  2  1  6  0  0  0
 24 31  1  0  0  0  0
 25 26  1  0  0  0  0
 25 33  1  6  0  0  0
 27 28  1  6  0  0  0
 27 35  1  0  0  0  0
 29 30  1  0  0  0  0
 29 37  1  1  0  0  0
 31 32  1  6  0  0  0
 31 39  1  0  0  0  0
 33 34  1  0  0  0  0
 35 36  1  0  0  0  0
 35 41  1  6  0  0  0
 37 38  1  0  0  0  0
 39 40  1  6  0  0  0
 41 42  1  0  0  0  0
M  END
>  <CHROM.1>
174.51538698,10.64053667,59.50238677,166.00534071,22.16362089,85.25790079
-58.92325069,-42.33523819,165.99196101,129.44672495,-176.37056712,75.34840135
-46.53993611,-47.19445767,64.26758737,-68.95611157,76.39398624,-38.35175879
57.03711468,179.12932119,174.11167574,-175.98746018,1.75240149,3.25579849
26.76019030,0.14034884,-0.76257156,-1.20465909

>  <Name>
1fyp_lig

>  <RI>
0

>  <Rbt.Current_Directory>
/home/itssahil/PROJECTS/Mol_Feturizer/New_Systems/rnas/1fyp

>  <Rbt.Executable>
rbdock ($Id: //depot/dev/client3/rdock/2013.1/src/exe/rbdock.cxx#4 $)

>  <Rbt.Library>
libRbt.so (2013.1, Build901 2013/11/27)

>  <Rbt.Parameter_File>
/export/apps/rDock/src/rDock_2013.1_src/data/scripts/dock_solv.prm

>  <Rbt.Receptor>
prm/pocket_docking_4.prm

>  <SCORE>
-37.9852

>  <SCORE.INTER>
-37.2607

>  <SCORE.INTER.CONST>
1

>  <SCORE.INTER.POLAR>
-4.74468

>  <SCORE.INTER.ROT>
14

>  <SCORE.INTER.SOLV>
16.7256

>  <SCORE.INTER.VDW>
-27.5334

>  <SCORE.INTER.norm>
-0.88716

>  <SCORE.INTRA>
-0.888473

>  <SCORE.INTRA.DIHEDRAL>
-20.7302

>  <SCORE.INTRA.DIHEDRAL.0>
48.7173

>  <SCORE.INTRA.POLAR>
0.267642

>  <SCORE.INTRA.POLAR.0>
-1.54691

>  <SCORE.INTRA.REPUL>
0

>  <SCORE.INTRA.REPUL.0>
0

>  <SCORE.INTRA.SOLV>
-0.4317

>  <SCORE.INTRA.SOLV.lig_0>
-64.052

>  <SCORE.INTRA.VDW>
8.7825

>  <SCORE.INTRA.VDW.0>
-7.0667

>  <SCORE.INTRA.norm>
-0.0211541

>  <SCORE.RESTR>
0.163991

>  <SCORE.RESTR.CAVITY>
0.163991

>  <SCORE.RESTR.norm>
0.00390456

>  <SCORE.SYSTEM>
0

>  <SCORE.SYSTEM.CONST>
0

>  <SCORE.SYSTEM.DIHEDRAL>
0

>  <SCORE.SYSTEM.SOLV>
0

>  <SCORE.SYSTEM.norm>
0

>  <SCORE.heavy>
42

>  <SCORE.norm>
-0.904409

>  <RMSD>
5.004

$$$$
1fyp_lig
 OpenBabel11021811393D
libRbt.so/2013.1/901 2013/11/27
 42 45  0  0  0  0  0  0  0  0999 V2000
    4.8837    5.3717   25.7834 C   0  0  2  0  0  0  0  0  0  0  0  0
    4.5955    5.6177   27.1901 O   0  0  0  0  0  0  0  0  0  0  0  0
    3.4540    2.9454   30.3200 C   0  0  2  0  0  0  0  0  0  0  0  0
    2.7462    2.0613   31.2643 N   0  0  0  0  0  0  0  0  0  0  0  0
    2.6843    2.5945   26.0258 C   0  0  1  0  0  0  0  0  0  0  0  0
   -0.9913    0.5053   25.6393 C   0  0  1  0  0  0  0  0  0  0  0  0
    6.1232    6.1921   25.3011 C   0  0  2  0  0  0  0  0  0  0  0  0
    7.2769    6.0026   26.2060 N   0  0  0  0  0  0  0  0  0  0  0  0
    2.7637    4.3236   30.2919 C   0  0  0  0  0  0  0  0  0  0  0  0
    1.9346    1.5407   26.8450 C   0  0  2  0  0  0  0  0  0  0  0  0
    2.0182    0.2762   26.1865 O   0  0  0  0  0  0  0  0  0  0  0  0
   -1.0124   -0.2050   24.2514 C   0  0  2  0  0  0  0  0  0  0  0  0
   -1.2900    0.7310   23.1346 N   0  0  0  0  0  0  0  0  0  0  0  0
    5.7736    7.7084   25.1798 C   0  0  1  0  0  0  0  0  0  0  0  0
    6.8600    8.4179   24.5898 O   0  0  0  0  0  0  0  0  0  0  0  0
    3.4756    5.3182   29.3347 C   0  0  2  0  0  0  0  0  0  0  0  0
    2.6921    6.5711   29.3212 N   0  0  0  0  0  0  0  0  0  0  0  0
    0.5039    2.0856   26.8229 C   0  0  2  0  0  0  0  0  0  0  0  0
   -0.1948    1.7181   25.6009 O   0  0  0  0  0  0  0  0  0  0  0  0
   -2.0160   -1.3991   24.2536 C   0  0  1  0  0  0  0  0  0  0  0  0
   -1.4533   -2.4629   25.0186 O   0  0  0  0  0  0  0  0  0  0  0  0
    4.5074    7.9406   24.3177 C   0  0  2  0  0  0  0  0  0  0  0  0
    4.1892    9.3289   24.3232 O   0  0  0  0  0  0  0  0  0  0  0  0
    3.6617    4.7422   27.8850 C   0  0  2  0  0  0  0  0  0  0  0  0
    0.7363    3.6020   26.8764 C   0  0  2  0  0  0  0  0  0  0  0  0
    1.9806    3.8363   26.1889 O   0  0  0  0  0  0  0  0  0  0  0  0
   -3.4137   -1.0546   24.8515 C   0  0  2  0  0  0  0  0  0  0  0  0
   -4.1200   -0.2394   23.9148 O   0  0  0  0  0  0  0  0  0  0  0  0
    3.3178    7.1042   24.8686 C   0  0  2  0  0  0  0  0  0  0  0  0
    3.7181    5.7035   24.9562 O   0  0  0  0  0  0  0  0  0  0  0  0
    4.2219    3.2737   27.8776 C   0  0  2  0  0  0  0  0  0  0  0  0
    4.0378    2.7270   26.5458 O   0  0  0  0  0  0  0  0  0  0  0  0
    0.8141    4.1498   28.3126 C   0  0  0  0  0  0  0  0  0  0  0  0
    0.1242    5.3827   28.4210 O   0  0  0  0  0  0  0  0  0  0  0  0
   -3.2649   -0.3062   26.2124 C   0  0  1  0  0  0  0  0  0  0  0  0
   -2.3624    0.8304   26.0510 O   0  0  0  0  0  0  0  0  0  0  0  0
    2.0395    7.1453   24.0018 C   0  0  0  0  0  0  0  0  0  0  0  0
    2.3532    7.1134   22.6198 O   0  0  0  0  0  0  0  0  0  0  0  0
    3.4966    2.3404   28.8960 C   0  0  1  0  0  0  0  0  0  0  0  0
    4.1803    1.0889   28.9395 O   0  0  0  0  0  0  0  0  0  0  0  0
   -4.6208    0.1997   26.7681 C   0  0  0  0  0  0  0  0  0  0  0  0
   -5.1613   -0.6792   27.8209 N   0  0  0  0  0  0  0  0  0  0  0  0
  1  2  1  1  0  0  0
  1  7  1  0  0  0  0
  1 30  1  0  0  0  0
  3  4  1  1  0  0  0
  3  9  1  0  0  0  0
  3 39  1  0  0  0  0
  5 10  1  0  0  0  0
  5 26  1  0  0  0  0
  5 32  1  1  0  0  0
  6 12  1  0  0  0  0
  6 36  1  0  0  0  0
  6 19  1  6  0  0  0
  7  8  1  1  0  0  0
  7 14  1  0  0  0  0
  9 16  1  0  0  0  0
 10 11  1  6  0  0  0
 10 18  1  0  0  0  0
 12 13  1  6  0  0  0
 12 20  1  0  0  0  0
 14 15  1  6  0  0  0
 14 22  1  0  0  0  0
 16 17  1  6  0  0  0
 16 24  1  0  0  0  0
 18 19  1  6  0  0  0
 18 25  1  0  0  0  0
 20 21  1  1  0  0  0
 20 27  1  0  0  0  0
 22 23  1  1  0  0  0
 22 29  1  0  0  0  0
 24  2  1  6  0  0  0
 24 31  1  0  0  0  0
 25 26  1  0  0  0  0
 25 33  1  1  0  0  0
 27 28  1  6  0  0  0
 27 35  1  0  0  0  0
 29 30  1  0  0  0  0
 29 37  1  6  0  0  0
 31 32  1  6  0  0  0
 31 39  1  0  0  0  0
 33 34  1  0  0  0  0
 35 36  1  0  0  0  0
 35 41  1  6  0  0  0
 37 38  1  0  0  0  0
 39 40  1  1  0  0  0
 41 42  1  0  0  0  0
M  END
>  <CHROM.1>
-167.30452037,-175.80741122,79.88066347,-40.50271928,-167.58438682,158.10340329
-167.58408460,55.38942126,93.25895845,-148.00879639,-174.19608124,64.22584483
-139.00771486,170.42213256,39.22292531,-61.80802871,-66.81642897,177.69934987
100.44822206,-171.71259645,62.55689475,-171.66257970,1.68183590,3.34583440
26.39145909,0.33648218,-0.69926418,-1.02933902

>  <Name>
1fyp_lig

>  <RI>
0

>  <Rbt.Current_Directory>
/home/itssahil/PROJECTS/Mol_Feturizer/New_Systems/rnas/1fyp

>  <Rbt.Executable>
rbdock ($Id: //depot/dev/client3/rdock/2013.1/src/exe/rbdock.cxx#4 $)

>  <Rbt.Library>
libRbt.so (2013.1, Build901 2013/11/27)

>  <Rbt.Parameter_File>
/export/apps/rDock/src/rDock_2013.1_src/data/scripts/dock_solv.prm

>  <Rbt.Receptor>
prm/blind_docking_80.prm

>  <SCORE>
-41.9315

>  <SCORE.INTER>
-41.5583

>  <SCORE.INTER.CONST>
1

>  <SCORE.INTER.POLAR>
-5.40687

>  <SCORE.INTER.ROT>
14

>  <SCORE.INTER.SOLV>
17.2254

>  <SCORE.INTER.VDW>
-28.3577

>  <SCORE.INTER.norm>
-0.989483

>  <SCORE.INTRA>
-0.373243

>  <SCORE.INTRA.DIHEDRAL>
-24.9706

>  <SCORE.INTRA.DIHEDRAL.0>
48.7173

>  <SCORE.INTRA.POLAR>
1.12614

>  <SCORE.INTRA.POLAR.0>
-1.54691

>  <SCORE.INTRA.REPUL>
0.146656

>  <SCORE.INTRA.REPUL.0>
0

>  <SCORE.INTRA.SOLV>
-0.211692

>  <SCORE.INTRA.SOLV.lig_0>
-64.052

>  <SCORE.INTRA.VDW>
7.65573

>  <SCORE.INTRA.VDW.0>
-7.0667

>  <SCORE.INTRA.norm>
-0.00888674

>  <SCORE.RESTR>
0

>  <SCORE.RESTR.CAVITY>
0

>  <SCORE.RESTR.norm>
0

>  <SCORE.SYSTEM>
0

>  <SCORE.SYSTEM.CONST>
0

>  <SCORE.SYSTEM.DIHEDRAL>
0

>  <SCORE.SYSTEM.SOLV>
0

>  <SCORE.SYSTEM.norm>
0

>  <SCORE.heavy>
42

>  <SCORE.norm>
-0.99837

>  <RMSD>
5.009

$$$$
1fyp_lig
 OpenBabel11021811393D
libRbt.so/2013.1/901 2013/11/27
 42 45  0  0  0  0  0  0  0  0999 V2000
    3.2323    6.4211   26.8127 C   0  0  2  0  0  0  0  0  0  0  0  0
    4.5655    5.9433   27.1545 O   0  0  0  0  0  0  0  0  0  0  0  0
    7.5991    5.8662   30.1598 C   0  0  2  0  0  0  0  0  0  0  0  0
    8.4643    6.0992   31.3310 N   0  0  0  0  0  0  0  0  0  0  0  0
    3.0484    4.0118   28.9589 C   0  0  1  0  0  0  0  0  0  0  0  0
    0.9100    0.8287   26.7395 C   0  0  1  0  0  0  0  0  0  0  0  0
    2.5210    5.4609   25.8056 C   0  0  2  0  0  0  0  0  0  0  0  0
    2.5688    4.0600   26.2754 N   0  0  0  0  0  0  0  0  0  0  0  0
    7.4147    7.1876   29.3874 C   0  0  0  0  0  0  0  0  0  0  0  0
    3.6502    2.6496   28.6041 C   0  0  2  0  0  0  0  0  0  0  0  0
    4.3447    2.7443   27.3598 O   0  0  0  0  0  0  0  0  0  0  0  0
    0.4910    0.9935   25.2467 C   0  0  2  0  0  0  0  0  0  0  0  0
    0.0362    2.3693   24.9294 N   0  0  0  0  0  0  0  0  0  0  0  0
    3.1547    5.5773   24.3840 C   0  0  1  0  0  0  0  0  0  0  0  0
    2.3973    4.8187   23.4445 O   0  0  0  0  0  0  0  0  0  0  0  0
    6.5329    7.0101   28.1211 C   0  0  2  0  0  0  0  0  0  0  0  0
    6.3543    8.3414   27.5051 N   0  0  0  0  0  0  0  0  0  0  0  0
    2.3984    1.7771   28.4771 C   0  0  2  0  0  0  0  0  0  0  0  0
    1.7782    1.9101   27.1678 O   0  0  0  0  0  0  0  0  0  0  0  0
   -0.5844   -0.0649   24.8514 C   0  0  1  0  0  0  0  0  0  0  0  0
    0.0495   -1.3379   24.7460 O   0  0  0  0  0  0  0  0  0  0  0  0
    3.2131    7.0471   23.8977 C   0  0  2  0  0  0  0  0  0  0  0  0
    3.8832    7.0951   22.6418 O   0  0  0  0  0  0  0  0  0  0  0  0
    5.1505    6.3309   28.4308 C   0  0  2  0  0  0  0  0  0  0  0  0
    1.4881    2.3598   29.5672 C   0  0  2  0  0  0  0  0  0  0  0  0
    1.8111    3.7618   29.6448 O   0  0  0  0  0  0  0  0  0  0  0  0
   -1.7599   -0.1880   25.8677 C   0  0  2  0  0  0  0  0  0  0  0  0
   -2.5962    0.9628   25.7365 O   0  0  0  0  0  0  0  0  0  0  0  0
    3.9466    7.9336   24.9438 C   0  0  2  0  0  0  0  0  0  0  0  0
    3.3028    7.7717   26.2434 O   0  0  0  0  0  0  0  0  0  0  0  0
    5.2845    5.0619   29.3483 C   0  0  2  0  0  0  0  0  0  0  0  0
    3.9632    4.7205   29.8424 O   0  0  0  0  0  0  0  0  0  0  0  0
    1.6889    1.6938   30.9401 C   0  0  0  0  0  0  0  0  0  0  0  0
    0.7649    2.2005   31.8872 O   0  0  0  0  0  0  0  0  0  0  0  0
   -1.2207   -0.2985   27.3277 C   0  0  1  0  0  0  0  0  0  0  0  0
   -0.2865    0.7929   27.5894 O   0  0  0  0  0  0  0  0  0  0  0  0
    3.9383    9.4467   24.6317 C   0  0  0  0  0  0  0  0  0  0  0  0
    4.9300    9.7807   23.6754 O   0  0  0  0  0  0  0  0  0  0  0  0
    6.2224    5.2930   30.5737 C   0  0  1  0  0  0  0  0  0  0  0  0
    6.4160    4.0488   31.2448 O   0  0  0  0  0  0  0  0  0  0  0  0
   -2.3515   -0.2612   28.3873 C   0  0  0  0  0  0  0  0  0  0  0  0
   -3.2682   -1.4100   28.2734 N   0  0  0  0  0  0  0  0  0  0  0  0
  1  2  1  6  0  0  0
  1  7  1  0  0  0  0
  1 30  1  0  0  0  0
  3  4  1  1  0  0  0
  3  9  1  0  0  0  0
  3 39  1  0  0  0  0
  5 10  1  0  0  0  0
  5 26  1  0  0  0  0
  5 32  1  1  0  0  0
  6 12  1  0  0  0  0
  6 36  1  0  0  0  0
  6 19  1  1  0  0  0
  7  8  1  1  0  0  0
  7 14  1  0  0  0  0
  9 16  1  0  0  0  0
 10 11  1  6  0  0  0
 10 18  1  0  0  0  0
 12 13  1  1  0  0  0
 12 20  1  0  0  0  0
 14 15  1  6  0  0  0
 14 22  1  0  0  0  0
 16 17  1  1  0  0  0
 16 24  1  0  0  0  0
 18 19  1  6  0  0  0
 18 25  1  0  0  0  0
 20 21  1  1  0  0  0
 20 27  1  0  0  0  0
 22 23  1  6  0  0  0
 22 29  1  0  0  0  0
 24  2  1  6  0  0  0
 24 31  1  0  0  0  0
 25 26  1  0  0  0  0
 25 33  1  1  0  0  0
 27 28  1  1  0  0  0
 27 35  1  0  0  0  0
 29 30  1  0  0  0  0
 29 37  1  6  0  0  0
 31 32  1  1  0  0  0
 31 39  1  0  0  0  0
 33 34  1  0  0  0  0
 35 36  1  0  0  0  0
 35 41  1  1  0  0  0
 37 38  1  0  0  0  0
 39 40  1  6  0  0  0
 41 42  1  0  0  0  0
M  END
>  <CHROM.1>
-154.33818030,-124.54487496,176.48639590,155.92808788,48.54465204,-127.44990181
48.65019292,48.18466169,158.43896675,-171.31593301,-176.14188140,-57.90605475
-175.96226398,65.99392179,-80.33097293,78.65776184,62.38151666,-55.24087177
63.57489432,-78.02280087,-176.13051432,76.28489504,2.73269108,3.96709229
27.31442550,0.34479275,-0.74605685,-1.00544900

>  <Name>
1fyp_lig

>  <RI>
0

>  <Rbt.Current_Directory>
/home/itssahil/PROJECTS/Mol_Feturizer/New_Systems/rnas/1fyp

>  <Rbt.Executable>
rbdock ($Id: //depot/dev/client3/rdock/2013.1/src/exe/rbdock.cxx#4 $)

>  <Rbt.Library>
libRbt.so (2013.1, Build901 2013/11/27)

>  <Rbt.Parameter_File>
/export/apps/rDock/src/rDock_2013.1_src/data/scripts/dock_solv.prm

>  <Rbt.Receptor>
prm/pocket_docking_8.prm

>  <SCORE>
-35.2355

>  <SCORE.INTER>
-29.0939

>  <SCORE.INTER.CONST>
1

>  <SCORE.INTER.POLAR>
-3.62288

>  <SCORE.INTER.ROT>
14

>  <SCORE.INTER.SOLV>
15.8445

>  <SCORE.INTER.VDW>
-25.5345

>  <SCORE.INTER.norm>
-0.692712

>  <SCORE.INTRA>
-6.14161

>  <SCORE.INTRA.DIHEDRAL>
-25.6656

>  <SCORE.INTRA.DIHEDRAL.0>
48.7173

>  <SCORE.INTRA.POLAR>
0.586746

>  <SCORE.INTRA.POLAR.0>
-1.54691

>  <SCORE.INTRA.REPUL>
0.316779

>  <SCORE.INTRA.REPUL.0>
0

>  <SCORE.INTRA.SOLV>
1.36117

>  <SCORE.INTRA.SOLV.lig_0>
-64.052

>  <SCORE.INTRA.VDW>
2.43175

>  <SCORE.INTRA.VDW.0>
-7.0667

>  <SCORE.INTRA.norm>
-0.146229

>  <SCORE.RESTR>
0

>  <SCORE.RESTR.CAVITY>
0

>  <SCORE.RESTR.norm>
0

>  <SCORE.SYSTEM>
0

>  <SCORE.SYSTEM.CONST>
0

>  <SCORE.SYSTEM.DIHEDRAL>
0

>  <SCORE.SYSTEM.SOLV>
0

>  <SCORE.SYSTEM.norm>
0

>  <SCORE.heavy>
42

>  <SCORE.norm>
-0.838941

>  <RMSD>
5.017

$$$$
1fyp_lig
 OpenBabel11021811393D
libRbt.so/2013.1/901 2013/11/27
 42 45  0  0  0  0  0  0  0  0999 V2000
    3.9749    7.0205   25.8663 C   0  0  2  0  0  0  0  0  0  0  0  0
    2.7012    6.4613   26.2991 O   0  0  0  0  0  0  0  0  0  0  0  0
    4.3868    4.5747   29.7401 C   0  0  2  0  0  0  0  0  0  0  0  0
    4.6498    3.8000   30.9669 N   0  0  0  0  0  0  0  0  0  0  0  0
    1.9518    3.1277   26.1902 C   0  0  1  0  0  0  0  0  0  0  0  0
   -1.6400    0.7718   25.0400 C   0  0  1  0  0  0  0  0  0  0  0  0
    4.0377    8.5619   26.1159 C   0  0  2  0  0  0  0  0  0  0  0  0
    3.6619    8.8958   27.5062 N   0  0  0  0  0  0  0  0  0  0  0  0
    3.1923    5.5203   29.9768 C   0  0  0  0  0  0  0  0  0  0  0  0
    1.7766    1.9495   25.2285 C   0  0  2  0  0  0  0  0  0  0  0  0
    1.3765    2.4353   23.9466 O   0  0  0  0  0  0  0  0  0  0  0  0
   -3.0789    1.3697   25.0954 C   0  0  2  0  0  0  0  0  0  0  0  0
   -3.3935    1.9813   26.4096 N   0  0  0  0  0  0  0  0  0  0  0  0
    3.1221    9.3260   25.1090 C   0  0  1  0  0  0  0  0  0  0  0  0
    3.3105   10.7325   25.2429 O   0  0  0  0  0  0  0  0  0  0  0  0
    2.8752    6.3902   28.7297 C   0  0  2  0  0  0  0  0  0  0  0  0
    1.6734    7.1943   29.0341 N   0  0  0  0  0  0  0  0  0  0  0  0
    0.6495    1.1608   25.9009 C   0  0  2  0  0  0  0  0  0  0  0  0
   -0.6598    1.7020   25.5699 O   0  0  0  0  0  0  0  0  0  0  0  0
   -4.1413    0.2985   24.6993 C   0  0  1  0  0  0  0  0  0  0  0  0
   -4.0642    0.0821   23.2919 O   0  0  0  0  0  0  0  0  0  0  0  0
    3.4197    8.9266   23.6420 C   0  0  2  0  0  0  0  0  0  0  0  0
    2.4929    9.5847   22.7837 O   0  0  0  0  0  0  0  0  0  0  0  0
    2.6798    5.5374   27.4249 C   0  0  2  0  0  0  0  0  0  0  0  0
    0.9574    1.3661   27.3907 C   0  0  2  0  0  0  0  0  0  0  0  0
    1.5588    2.6712   27.4944 O   0  0  0  0  0  0  0  0  0  0  0  0
   -3.9581   -1.0744   25.4146 C   0  0  2  0  0  0  0  0  0  0  0  0
   -4.3583   -0.9328   26.7786 O   0  0  0  0  0  0  0  0  0  0  0  0
    3.3232    7.3839   23.4718 C   0  0  2  0  0  0  0  0  0  0  0  0
    4.2006    6.7397   24.4439 O   0  0  0  0  0  0  0  0  0  0  0  0
    3.8007    4.4532   27.2292 C   0  0  2  0  0  0  0  0  0  0  0  0
    3.3537    3.5204   26.2110 O   0  0  0  0  0  0  0  0  0  0  0  0
    1.9075    0.2989   27.9627 C   0  0  0  0  0  0  0  0  0  0  0  0
    3.2374    0.7845   28.0189 O   0  0  0  0  0  0  0  0  0  0  0  0
   -2.4732   -1.5467   25.3349 C   0  0  1  0  0  0  0  0  0  0  0  0
   -1.5934   -0.4802   25.8053 O   0  0  0  0  0  0  0  0  0  0  0  0
    3.7419    6.8572   22.0810 C   0  0  0  0  0  0  0  0  0  0  0  0
    4.8022    7.6250   21.5374 O   0  0  0  0  0  0  0  0  0  0  0  0
    4.1044    3.6497   28.5318 C   0  0  1  0  0  0  0  0  0  0  0  0
    5.2408    2.8177   28.3036 O   0  0  0  0  0  0  0  0  0  0  0  0
   -2.2071   -2.8263   26.1686 C   0  0  0  0  0  0  0  0  0  0  0  0
   -2.1049   -2.5466   27.6124 N   0  0  0  0  0  0  0  0  0  0  0  0
  1  2  1  6  0  0  0
  1  7  1  0  0  0  0
  1 30  1  0  0  0  0
  3  4  1  1  0  0  0
  3  9  1  0  0  0  0
  3 39  1  0  0  0  0
  5 10  1  0  0  0  0
  5 26  1  0  0  0  0
  5 32  1  1  0  0  0
  6 12  1  0  0  0  0
  6 36  1  0  0  0  0
  6 19  1  1  0  0  0
  7  8  1  1  0  0  0
  7 14  1  0  0  0  0
  9 16  1  0  0  0  0
 10 11  1  6  0  0  0
 10 18  1  0  0  0  0
 12 13  1  1  0  0  0
 12 20  1  0  0  0  0
 14 15  1  6  0  0  0
 14 22  1  0  0  0  0
 16 17  1  1  0  0  0
 16 24  1  0  0  0  0
 18 19  1  1  0  0  0
 18 25  1  0  0  0  0
 20 21  1  6  0  0  0
 20 27  1  0  0  0  0
 22 23  1  6  0  0  0
 22 29  1  0  0  0  0
 24  2  1  6  0  0  0
 24 31  1  0  0  0  0
 25 26  1  0  0  0  0
 25 33  1  6  0  0  0
 27 28  1  1  0  0  0
 27 35  1  0  0  0  0
 29 30  1  0  0  0  0
 29 37  1  6  0  0  0
 31 32  1  6  0  0  0
 31 39  1  0  0  0  0
 33 34  1  0  0  0  0
 35 36  1  0  0  0  0
 35 41  1  1  0  0  0
 37 38  1  0  0  0  0
 39 40  1  6  0  0  0
 41 42  1  0  0  0  0
M  END
>  <CHROM.1>
-113.54693959,75.14123538,50.82692386,-175.86566304,-178.64760733,-82.92485589
48.63530659,-44.84746616,127.05379448,164.48432520,-153.78723692,70.33025893
98.89803812,178.10023040,34.79698070,-38.98769128,-168.92159792,-90.52774066
-77.20447813,51.92756456,-52.10732555,-87.62909565,1.39673911,3.72437210
26.17183628,0.63943727,-0.74102325,-0.77322323

>  <Name>
1fyp_lig

>  <RI>
0

>  <Rbt.Current_Directory>
/home/itssahil/PROJECTS/Mol_Feturizer/New_Systems/rnas/1fyp

>  <Rbt.Executable>
rbdock ($Id: //depot/dev/client3/rdock/2013.1/src/exe/rbdock.cxx#4 $)

>  <Rbt.Library>
libRbt.so (2013.1, Build901 2013/11/27)

>  <Rbt.Parameter_File>
/export/apps/rDock/src/rDock_2013.1_src/data/scripts/dock_solv.prm

>  <Rbt.Receptor>
prm/pocket_docking_4.prm

>  <SCORE>
-50.3357

>  <SCORE.INTER>
-49.8641

>  <SCORE.INTER.CONST>
1

>  <SCORE.INTER.POLAR>
-7.92955

>  <SCORE.INTER.ROT>
14

>  <SCORE.INTER.SOLV>
24.1341

>  <SCORE.INTER.VDW>
-27.7889

>  <SCORE.INTER.norm>
-1.18724

>  <SCORE.INTRA>
-1.33079

>  <SCORE.INTRA.DIHEDRAL>
-12.2987

>  <SCORE.INTRA.DIHEDRAL.0>
48.7173

>  <SCORE.INTRA.POLAR>
0.159194

>  <SCORE.INTRA.POLAR.0>
-1.54691

>  <SCORE.INTRA.REPUL>
0.0239089

>  <SCORE.INTRA.REPUL.0>
0

>  <SCORE.INTRA.SOLV>
0.819258

>  <SCORE.INTRA.SOLV.lig_0>
-64.052

>  <SCORE.INTRA.VDW>
3.74812

>  <SCORE.INTRA.VDW.0>
-7.0667

>  <SCORE.INTRA.norm>
-0.0316855

>  <SCORE.RESTR>
0.85926

>  <SCORE.RESTR.CAVITY>
0.85926

>  <SCORE.RESTR.norm>
0.0204586

>  <SCORE.SYSTEM>
0

>  <SCORE.SYSTEM.CONST>
0

>  <SCORE.SYSTEM.DIHEDRAL>
0

>  <SCORE.SYSTEM.SOLV>
0

>  <SCORE.SYSTEM.norm>
0

>  <SCORE.heavy>
42

>  <SCORE.norm>
-1.19847

>  <RMSD>
5.029

$$$$
1fyp_lig
 OpenBabel11021811393D
libRbt.so/2013.1/901 2013/11/27
 42 45  0  0  0  0  0  0  0  0999 V2000
    3.9113    7.5828   25.4564 C   0  0  2  0  0  0  0  0  0  0  0  0
    4.1460    6.1574   25.6447 O   0  0  0  0  0  0  0  0  0  0  0  0
    4.5000    4.5506   29.5860 C   0  0  2  0  0  0  0  0  0  0  0  0
    4.2790    3.9785   30.9269 N   0  0  0  0  0  0  0  0  0  0  0  0
    2.3935    3.1607   25.8457 C   0  0  1  0  0  0  0  0  0  0  0  0
   -1.6459    1.7983   24.5384 C   0  0  1  0  0  0  0  0  0  0  0  0
    2.9634    7.8515   24.2434 C   0  0  2  0  0  0  0  0  0  0  0  0
    1.7349    7.0338   24.3314 N   0  0  0  0  0  0  0  0  0  0  0  0
    3.6473    5.8251   29.4252 C   0  0  0  0  0  0  0  0  0  0  0  0
    2.0729    2.0734   24.8167 C   0  0  2  0  0  0  0  0  0  0  0  0
    1.9907    2.6569   23.5159 O   0  0  0  0  0  0  0  0  0  0  0  0
   -2.4260    1.4941   25.8537 C   0  0  2  0  0  0  0  0  0  0  0  0
   -1.5763    0.8533   26.8869 N   0  0  0  0  0  0  0  0  0  0  0  0
    3.6981    7.5814   22.8931 C   0  0  1  0  0  0  0  0  0  0  0  0
    2.8774    7.9811   21.7983 O   0  0  0  0  0  0  0  0  0  0  0  0
    3.8519    6.4983   28.0406 C   0  0  2  0  0  0  0  0  0  0  0  0
    2.9354    7.6547   27.9611 N   0  0  0  0  0  0  0  0  0  0  0  0
    0.7028    1.5841   25.2942 C   0  0  2  0  0  0  0  0  0  0  0  0
   -0.3727    2.4381   24.8143 O   0  0  0  0  0  0  0  0  0  0  0  0
   -3.7004    0.6439   25.5600 C   0  0  1  0  0  0  0  0  0  0  0  0
   -4.6709    1.4821   24.9363 O   0  0  0  0  0  0  0  0  0  0  0  0
    5.0427    8.3460   22.8057 C   0  0  2  0  0  0  0  0  0  0  0  0
    5.7047    7.9860   21.5970 O   0  0  0  0  0  0  0  0  0  0  0  0
    3.6307    5.5073   26.8418 C   0  0  2  0  0  0  0  0  0  0  0  0
    0.8368    1.6906   26.8197 C   0  0  2  0  0  0  0  0  0  0  0  0
    1.7192    2.8033   27.0628 O   0  0  0  0  0  0  0  0  0  0  0  0
   -3.4470   -0.5829   24.6322 C   0  0  2  0  0  0  0  0  0  0  0  0
   -2.7450   -1.5789   25.3777 O   0  0  0  0  0  0  0  0  0  0  0  0
    5.9332    8.0155   24.0369 C   0  0  2  0  0  0  0  0  0  0  0  0
    5.1819    8.2892   25.2578 O   0  0  0  0  0  0  0  0  0  0  0  0
    4.3632    4.1313   27.0426 C   0  0  2  0  0  0  0  0  0  0  0  0
    3.8312    3.1910   26.0735 O   0  0  0  0  0  0  0  0  0  0  0  0
    1.4044    0.4143   27.4658 C   0  0  0  0  0  0  0  0  0  0  0  0
    0.5540   -0.6937   27.2273 O   0  0  0  0  0  0  0  0  0  0  0  0
   -2.6193   -0.1664   23.3768 C   0  0  1  0  0  0  0  0  0  0  0  0
   -1.4191    0.5517   23.7968 O   0  0  0  0  0  0  0  0  0  0  0  0
    7.2410    8.8329   24.1298 C   0  0  0  0  0  0  0  0  0  0  0  0
    8.0737    8.6016   23.0062 O   0  0  0  0  0  0  0  0  0  0  0  0
    4.1575    3.5348   28.4697 C   0  0  1  0  0  0  0  0  0  0  0  0
    4.9907    2.3852   28.6113 O   0  0  0  0  0  0  0  0  0  0  0  0
   -2.2039   -1.3791   22.5051 C   0  0  0  0  0  0  0  0  0  0  0  0
   -0.8608   -1.8829   22.8444 N   0  0  0  0  0  0  0  0  0  0  0  0
  1  2  1  6  0  0  0
  1  7  1  0  0  0  0
  1 30  1  0  0  0  0
  3  4  1  1  0  0  0
  3  9  1  0  0  0  0
  3 39  1  0  0  0  0
  5 10  1  0  0  0  0
  5 26  1  0  0  0  0
  5 32  1  1  0  0  0
  6 12  1  0  0  0  0
  6 36  1  0  0  0  0
  6 19  1  1  0  0  0
  7  8  1  1  0  0  0
  7 14  1  0  0  0  0
  9 16  1  0  0  0  0
 10 11  1  6  0  0  0
 10 18  1  0  0  0  0
 12 13  1  1  0  0  0
 12 20  1  0  0  0  0
 14 15  1  6  0  0  0
 14 22  1  0  0  0  0
 16 17  1  6  0  0  0
 16 24  1  0  0  0  0
 18 19  1  6  0  0  0
 18 25  1  0  0  0  0
 20 21  1  6  0  0  0
 20 27  1  0  0  0  0
 22 23  1  6  0  0  0
 22 29  1  0  0  0  0
 24  2  1  6  0  0  0
 24 31  1  0  0  0  0
 25 26  1  0  0  0  0
 25 33  1  6  0  0  0
 27 28  1  1  0  0  0
 27 35  1  0  0  0  0
 29 30  1  0  0  0  0
 29 37  1  1  0  0  0
 31 32  1  6  0  0  0
 31 39  1  0  0  0  0
 33 34  1  0  0  0  0
 35 36  1  0  0  0  0
 35 41  1  1  0  0  0
 37 38  1  0  0  0  0
 39 40  1  1  0  0  0
 41 42  1  0  0  0  0
M  END
>  <CHROM.1>
-113.33891498,-39.98754837,-56.80422532,-3.13815094,-177.87524783,168.41913735
-165.51254378,132.29951507,147.52855022,76.92826833,-176.14816988,48.51070966
-61.24528825,65.09285701,-61.07512264,-42.84827354,-178.54792729,63.18790111
-94.00299673,-167.08614396,58.70559169,89.99789600,1.92191482,3.76543749
25.48545682,0.35318830,-0.74955471,-1.08587048

>  <Name>
1fyp_lig

>  <RI>
0

>  <Rbt.Current_Directory>
/home/itssahil/PROJECTS/Mol_Feturizer/New_Systems/rnas/1fyp

>  <Rbt.Executable>
rbdock ($Id: //depot/dev/client3/rdock/2013.1/src/exe/rbdock.cxx#4 $)

>  <Rbt.Library>
libRbt.so (2013.1, Build901 2013/11/27)

>  <Rbt.Parameter_File>
/export/apps/rDock/src/rDock_2013.1_src/data/scripts/dock_solv.prm

>  <Rbt.Receptor>
prm/blind_docking_40.prm

>  <SCORE>
-45.9617

>  <SCORE.INTER>
-46.3659

>  <SCORE.INTER.CONST>
1

>  <SCORE.INTER.POLAR>
-6.73583

>  <SCORE.INTER.ROT>
14

>  <SCORE.INTER.SOLV>
21.8924

>  <SCORE.INTER.VDW>
-28.6886

>  <SCORE.INTER.norm>
-1.10395

>  <SCORE.INTRA>
0.361508

>  <SCORE.INTRA.DIHEDRAL>
-20.7118

>  <SCORE.INTRA.DIHEDRAL.0>
48.7173

>  <SCORE.INTRA.POLAR>
0.991332

>  <SCORE.INTRA.POLAR.0>
-1.54691

>  <SCORE.INTRA.REPUL>
0.00275292

>  <SCORE.INTRA.REPUL.0>
0

>  <SCORE.INTRA.SOLV>
0.517147

>  <SCORE.INTRA.SOLV.lig_0>
-64.052

>  <SCORE.INTRA.VDW>
7.07455

>  <SCORE.INTRA.VDW.0>
-7.0667

>  <SCORE.INTRA.norm>
0.00860733

>  <SCORE.RESTR>
0.0427068

>  <SCORE.RESTR.CAVITY>
0.0427068

>  <SCORE.RESTR.norm>
0.00101683

>  <SCORE.SYSTEM>
0

>  <SCORE.SYSTEM.CONST>
0

>  <SCORE.SYSTEM.DIHEDRAL>
0

>  <SCORE.SYSTEM.SOLV>
0

>  <SCORE.SYSTEM.norm>
0

>  <SCORE.heavy>
42

>  <SCORE.norm>
-1.09433

>  <RMSD>
5.048

$$$$
1fyp_lig
 OpenBabel11021811393D
libRbt.so/2013.1/901 2013/11/27
 42 45  0  0  0  0  0  0  0  0999 V2000
    5.6377    6.5758   25.6333 C   0  0  2  0  0  0  0  0  0  0  0  0
    4.9151    7.1885   26.7400 O   0  0  0  0  0  0  0  0  0  0  0  0
    6.5482    4.4654   29.5964 C   0  0  2  0  0  0  0  0  0  0  0  0
    6.9540    3.7309   30.8089 N   0  0  0  0  0  0  0  0  0  0  0  0
    2.4327    3.8616   27.8696 C   0  0  1  0  0  0  0  0  0  0  0  0
   -0.9066    1.1292   26.8347 C   0  0  1  0  0  0  0  0  0  0  0  0
    6.7499    7.5244   25.0808 C   0  0  2  0  0  0  0  0  0  0  0  0
    7.6114    8.0320   26.1698 N   0  0  0  0  0  0  0  0  0  0  0  0
    6.9474    5.9479   29.7371 C   0  0  0  0  0  0  0  0  0  0  0  0
    1.0343    4.1194   27.3025 C   0  0  2  0  0  0  0  0  0  0  0  0
    0.0910    4.1897   28.3724 O   0  0  0  0  0  0  0  0  0  0  0  0
   -2.1238    1.7869   27.5537 C   0  0  2  0  0  0  0  0  0  0  0  0
   -1.9083    1.9453   29.0128 N   0  0  0  0  0  0  0  0  0  0  0  0
    6.1231    8.7133   24.2873 C   0  0  1  0  0  0  0  0  0  0  0  0
    7.1475    9.4785   23.6575 O   0  0  0  0  0  0  0  0  0  0  0  0
    6.5733    6.7793   28.4797 C   0  0  2  0  0  0  0  0  0  0  0  0
    6.9227    8.1894   28.7504 N   0  0  0  0  0  0  0  0  0  0  0  0
    0.8092    2.8719   26.4438 C   0  0  2  0  0  0  0  0  0  0  0  0
    0.3434    1.7462   27.2389 O   0  0  0  0  0  0  0  0  0  0  0  0
   -3.4368    0.9992   27.2564 C   0  0  1  0  0  0  0  0  0  0  0  0
   -3.8285    1.2620   25.9107 O   0  0  0  0  0  0  0  0  0  0  0  0
    5.1351    8.2229   23.1994 C   0  0  2  0  0  0  0  0  0  0  0  0
    4.5299    9.3524   22.5775 O   0  0  0  0  0  0  0  0  0  0  0  0
    5.0621    6.6297   28.0770 C   0  0  2  0  0  0  0  0  0  0  0  0
    2.2171    2.5999   25.8960 C   0  0  2  0  0  0  0  0  0  0  0  0
    3.1317    3.0449   26.9165 O   0  0  0  0  0  0  0  0  0  0  0  0
   -3.3073   -0.5441   27.4342 C   0  0  2  0  0  0  0  0  0  0  0  0
   -3.2448   -0.8368   28.8310 O   0  0  0  0  0  0  0  0  0  0  0  0
    4.0535    7.2995   23.8285 C   0  0  2  0  0  0  0  0  0  0  0  0
    4.7116    6.2170   24.5532 O   0  0  0  0  0  0  0  0  0  0  0  0
    4.5754    5.1353   28.0724 C   0  0  2  0  0  0  0  0  0  0  0  0
    3.1248    5.1330   28.0254 O   0  0  0  0  0  0  0  0  0  0  0  0
    2.5020    3.3342   24.5737 C   0  0  0  0  0  0  0  0  0  0  0  0
    3.8623    3.7227   24.4946 O   0  0  0  0  0  0  0  0  0  0  0  0
   -2.0310   -1.0794   26.7139 C   0  0  1  0  0  0  0  0  0  0  0  0
   -0.8672   -0.3065   27.1391 O   0  0  0  0  0  0  0  0  0  0  0  0
    3.0977    6.6346   22.8129 C   0  0  0  0  0  0  0  0  0  0  0  0
    2.4929    7.5986   21.9677 O   0  0  0  0  0  0  0  0  0  0  0  0
    5.0268    4.3443   29.3393 C   0  0  1  0  0  0  0  0  0  0  0  0
    4.6896    2.9687   29.1662 O   0  0  0  0  0  0  0  0  0  0  0  0
   -1.7708   -2.5814   26.9957 C   0  0  0  0  0  0  0  0  0  0  0  0
   -2.7568   -3.4571   26.3368 N   0  0  0  0  0  0  0  0  0  0  0  0
  1  2  1  1  0  0  0
  1  7  1  0  0  0  0
  1 30  1  0  0  0  0
  3  4  1  1  0  0  0
  3  9  1  0  0  0  0
  3 39  1  0  0  0  0
  5 10  1  0  0  0  0
  5 26  1  0  0  0  0
  5 32  1  6  0  0  0
  6 12  1  0  0  0  0
  6 36  1  0  0  0  0
  6 19  1  1  0  0  0
  7  8  1  1  0  0  0
  7 14  1  0  0  0  0
  9 16  1  0  0  0  0
 10 11  1  1  0  0  0
 10 18  1  0  0  0  0
 12 13  1  1  0  0  0
 12 20  1  0  0  0  0
 14 15  1  6  0  0  0
 14 22  1  0  0  0  0
 16 17  1  1  0  0  0
 16 24  1  0  0  0  0
 18 19  1  1  0  0  0
 18 25  1  0  0  0  0
 20 21  1  6  0  0  0
 20 27  1  0  0  0  0
 22 23  1  1  0  0  0
 22 29  1  0  0  0  0
 24  2  1  6  0  0  0
 24 31  1  0  0  0  0
 25 26  1  0  0  0  0
 25 33  1  6  0  0  0
 27 28  1  1  0  0  0
 27 35  1  0  0  0  0
 29 30  1  0  0  0  0
 29 37  1  6  0  0  0
 31 32  1  1  0  0  0
 31 39  1  0  0  0  0
 33 34  1  0  0  0  0
 35 36  1  0  0  0  0
 35 41  1  1  0  0  0
 37 38  1  0  0  0  0
 39 40  1  6  0  0  0
 41 42  1  0  0  0  0
M  END
>  <CHROM.1>
-112.22702305,62.45820657,168.20354573,-53.32739778,172.05284111,-50.42625901
-175.81601658,-93.96602645,123.85237834,-90.73471778,-66.15258527,-168.49403691
145.95320611,67.79221617,-53.68654870,173.58046523,-157.83696551,-73.81344391
70.51790069,127.68851286,151.23743171,53.61990407,2.57303211,4.14913013,26.64451925
0.51084666,-0.60104950,-0.98979462

>  <Name>
1fyp_lig

>  <RI>
0

>  <Rbt.Current_Directory>
/home/itssahil/PROJECTS/Mol_Feturizer/New_Systems/rnas/1fyp

>  <Rbt.Executable>
rbdock ($Id: //depot/dev/client3/rdock/2013.1/src/exe/rbdock.cxx#4 $)

>  <Rbt.Library>
libRbt.so (2013.1, Build901 2013/11/27)

>  <Rbt.Parameter_File>
/export/apps/rDock/src/rDock_2013.1_src/data/scripts/dock_solv.prm

>  <Rbt.Receptor>
prm/blind_docking_60.prm

>  <SCORE>
-38.0647

>  <SCORE.INTER>
-35.3609

>  <SCORE.INTER.CONST>
1

>  <SCORE.INTER.POLAR>
-4.59663

>  <SCORE.INTER.ROT>
14

>  <SCORE.INTER.SOLV>
18.461

>  <SCORE.INTER.VDW>
-27.3389

>  <SCORE.INTER.norm>
-0.841926

>  <SCORE.INTRA>
-3.82996

>  <SCORE.INTRA.DIHEDRAL>
-9.85427

>  <SCORE.INTRA.DIHEDRAL.0>
48.7173

>  <SCORE.INTRA.POLAR>
-1.04579

>  <SCORE.INTRA.POLAR.0>
-1.54691

>  <SCORE.INTRA.REPUL>
0

>  <SCORE.INTRA.REPUL.0>
0

>  <SCORE.INTRA.SOLV>
1.24078

>  <SCORE.INTRA.SOLV.lig_0>
-64.052

>  <SCORE.INTRA.VDW>
4.03245

>  <SCORE.INTRA.VDW.0>
-7.0667

>  <SCORE.INTRA.norm>
-0.0911896

>  <SCORE.RESTR>
1.12619

>  <SCORE.RESTR.CAVITY>
1.12619

>  <SCORE.RESTR.norm>
0.026814

>  <SCORE.SYSTEM>
0

>  <SCORE.SYSTEM.CONST>
0

>  <SCORE.SYSTEM.DIHEDRAL>
0

>  <SCORE.SYSTEM.SOLV>
0

>  <SCORE.SYSTEM.norm>
0

>  <SCORE.heavy>
42

>  <SCORE.norm>
-0.906302

>  <RMSD>
5.061

$$$$
1fyp_lig
 OpenBabel11021811393D
libRbt.so/2013.1/901 2013/11/27
 42 45  0  0  0  0  0  0  0  0999 V2000
    2.3462    7.9054   25.2072 C   0  0  2  0  0  0  0  0  0  0  0  0
    3.3701    7.4457   26.1360 O   0  0  0  0  0  0  0  0  0  0  0  0
    3.7248    5.5016   29.9222 C   0  0  2  0  0  0  0  0  0  0  0  0
    3.5679    4.6600   31.1228 N   0  0  0  0  0  0  0  0  0  0  0  0
    3.4213    3.7135   25.9275 C   0  0  1  0  0  0  0  0  0  0  0  0
    0.8516    0.2366   25.4795 C   0  0  1  0  0  0  0  0  0  0  0  0
    2.3853    7.1008   23.8681 C   0  0  2  0  0  0  0  0  0  0  0  0
    2.3778    5.6436   24.1176 N   0  0  0  0  0  0  0  0  0  0  0  0
    2.4026    6.2419   29.6383 C   0  0  0  0  0  0  0  0  0  0  0  0
    4.0317    2.3309   25.6834 C   0  0  2  0  0  0  0  0  0  0  0  0
    4.2668    2.1530   24.2861 O   0  0  0  0  0  0  0  0  0  0  0  0
    0.2654   -0.4031   24.1840 C   0  0  2  0  0  0  0  0  0  0  0  0
   -0.0527    0.6042   23.1427 N   0  0  0  0  0  0  0  0  0  0  0  0
    3.6319    7.4980   23.0169 C   0  0  1  0  0  0  0  0  0  0  0  0
    3.5701    6.8774   21.7352 O   0  0  0  0  0  0  0  0  0  0  0  0
    2.5040    7.1716   28.3982 C   0  0  2  0  0  0  0  0  0  0  0  0
    1.1703    7.7651   28.1688 N   0  0  0  0  0  0  0  0  0  0  0  0
    2.9194    1.4045   26.1824 C   0  0  2  0  0  0  0  0  0  0  0  0
    1.8956    1.1963   25.1700 O   0  0  0  0  0  0  0  0  0  0  0  0
   -0.9753   -1.2890   24.5141 C   0  0  1  0  0  0  0  0  0  0  0  0
   -0.5234   -2.4850   25.1458 O   0  0  0  0  0  0  0  0  0  0  0  0
    3.7288    9.0314   22.8176 C   0  0  2  0  0  0  0  0  0  0  0  0
    4.9312    9.3342   22.1168 O   0  0  0  0  0  0  0  0  0  0  0  0
    3.0283    6.4263   27.1185 C   0  0  2  0  0  0  0  0  0  0  0  0
    2.3514    2.1942   27.3699 C   0  0  2  0  0  0  0  0  0  0  0  0
    2.5137    3.5858   27.0337 O   0  0  0  0  0  0  0  0  0  0  0  0
   -2.0145   -0.6043   25.4528 C   0  0  2  0  0  0  0  0  0  0  0  0
   -2.7114    0.3948   24.7067 O   0  0  0  0  0  0  0  0  0  0  0  0
    3.6986    9.7578   24.1923 C   0  0  2  0  0  0  0  0  0  0  0  0
    2.5118    9.3367   24.9298 O   0  0  0  0  0  0  0  0  0  0  0  0
    4.2910    5.5351   27.4040 C   0  0  2  0  0  0  0  0  0  0  0  0
    4.4833    4.6484   26.2712 O   0  0  0  0  0  0  0  0  0  0  0  0
    3.0657    1.8840   28.6974 C   0  0  0  0  0  0  0  0  0  0  0  0
    4.4553    1.6982   28.4919 O   0  0  0  0  0  0  0  0  0  0  0  0
   -1.3076    0.0392   26.6859 C   0  0  1  0  0  0  0  0  0  0  0  0
   -0.2192    0.9009   26.2329 O   0  0  0  0  0  0  0  0  0  0  0  0
    3.6443   11.2997   24.1101 C   0  0  0  0  0  0  0  0  0  0  0  0
    2.4682   11.7391   23.4519 O   0  0  0  0  0  0  0  0  0  0  0  0
    4.1429    4.6638   28.6899 C   0  0  1  0  0  0  0  0  0  0  0  0
    5.3907    4.0263   28.9588 O   0  0  0  0  0  0  0  0  0  0  0  0
   -2.2774    0.8696   27.5652 C   0  0  0  0  0  0  0  0  0  0  0  0
   -1.6513    1.3234   28.8202 N   0  0  0  0  0  0  0  0  0  0  0  0
  1  2  1  1  0  0  0
  1  7  1  0  0  0  0
  1 30  1  0  0  0  0
  3  4  1  1  0  0  0
  3  9  1  0  0  0  0
  3 39  1  0  0  0  0
  5 10  1  0  0  0  0
  5 26  1  0  0  0  0
  5 32  1  1  0  0  0
  6 12  1  0  0  0  0
  6 36  1  0  0  0  0
  6 19  1  6  0  0  0
  7  8  1  1  0  0  0
  7 14  1  0  0  0  0
  9 16  1  0  0  0  0
 10 11  1  6  0  0  0
 10 18  1  0  0  0  0
 12 13  1  6  0  0  0
 12 20  1  0  0  0  0
 14 15  1  6  0  0  0
 14 22  1  0  0  0  0
 16 17  1  6  0  0  0
 16 24  1  0  0  0  0
 18 19  1  6  0  0  0
 18 25  1  0  0  0  0
 20 21  1  1  0  0  0
 20 27  1  0  0  0  0
 22 23  1  1  0  0  0
 22 29  1  0  0  0  0
 24  2  1  6  0  0  0
 24 31  1  0  0  0  0
 25 26  1  0  0  0  0
 25 33  1  1  0  0  0
 27 28  1  6  0  0  0
 27 35  1  0  0  0  0
 29 30  1  0  0  0  0
 29 37  1  6  0  0  0
 31 32  1  6  0  0  0
 31 39  1  0  0  0  0
 33 34  1  0  0  0  0
 35 36  1  0  0  0  0
 35 41  1  6  0  0  0
 37 38  1  0  0  0  0
 39 40  1  1  0  0  0
 41 42  1  0  0  0  0
M  END
>  <CHROM.1>
-93.21045922,-89.40689867,74.69544027,-80.06617070,111.80878358,-47.51226617
62.04045190,-77.39796256,174.39317278,-152.49115701,-175.39213996,67.63891869
37.47703664,61.62429462,61.60839202,-60.22827327,-133.63670317,-178.42761409
172.27998447,-169.78576922,64.01731165,-56.40994446,2.18627546,4.26980850
25.98302186,0.73797940,-1.03216332,-0.91251918

>  <Name>
1fyp_lig

>  <RI>
0

>  <Rbt.Current_Directory>
/home/itssahil/PROJECTS/Mol_Feturizer/New_Systems/rnas/1fyp

>  <Rbt.Executable>
rbdock ($Id: //depot/dev/client3/rdock/2013.1/src/exe/rbdock.cxx#4 $)

>  <Rbt.Library>
libRbt.so (2013.1, Build901 2013/11/27)

>  <Rbt.Parameter_File>
/export/apps/rDock/src/rDock_2013.1_src/data/scripts/dock_solv.prm

>  <Rbt.Receptor>
prm/blind_docking_60.prm

>  <SCORE>
-55.2436

>  <SCORE.INTER>
-56.2598

>  <SCORE.INTER.CONST>
1

>  <SCORE.INTER.POLAR>
-7.08686

>  <SCORE.INTER.ROT>
14

>  <SCORE.INTER.SOLV>
21.5986

>  <SCORE.INTER.VDW>
-34.0165

>  <SCORE.INTER.norm>
-1.33952

>  <SCORE.INTRA>
1.00477

>  <SCORE.INTRA.DIHEDRAL>
-19.738

>  <SCORE.INTRA.DIHEDRAL.0>
48.7173

>  <SCORE.INTRA.POLAR>
1.44215

>  <SCORE.INTRA.POLAR.0>
-1.54691

>  <SCORE.INTRA.REPUL>
0

>  <SCORE.INTRA.REPUL.0>
0

>  <SCORE.INTRA.SOLV>
1.24331

>  <SCORE.INTRA.SOLV.lig_0>
-64.052

>  <SCORE.INTRA.VDW>
5.34882

>  <SCORE.INTRA.VDW.0>
-7.0667

>  <SCORE.INTRA.norm>
0.023923

>  <SCORE.RESTR>
0.0114833

>  <SCORE.RESTR.CAVITY>
0.0114833

>  <SCORE.RESTR.norm>
0.000273413

>  <SCORE.SYSTEM>
0

>  <SCORE.SYSTEM.CONST>
0

>  <SCORE.SYSTEM.DIHEDRAL>
0

>  <SCORE.SYSTEM.SOLV>
0

>  <SCORE.SYSTEM.norm>
0

>  <SCORE.heavy>
42

>  <SCORE.norm>
-1.31532

>  <RMSD>
5.067

$$$$
1fyp_lig
 OpenBabel11021811393D
libRbt.so/2013.1/901 2013/11/27
 42 45  0  0  0  0  0  0  0  0999 V2000
    3.7964    5.9739   25.1747 C   0  0  2  0  0  0  0  0  0  0  0  0
    2.8578    6.4580   26.1782 O   0  0  0  0  0  0  0  0  0  0  0  0
    4.1665    4.8818   29.9257 C   0  0  2  0  0  0  0  0  0  0  0  0
    4.2862    4.2539   31.2546 N   0  0  0  0  0  0  0  0  0  0  0  0
    1.8331    2.9779   26.6879 C   0  0  1  0  0  0  0  0  0  0  0  0
   -1.5574    0.8585   25.3287 C   0  0  1  0  0  0  0  0  0  0  0  0
    5.2513    6.4625   25.4688 C   0  0  2  0  0  0  0  0  0  0  0  0
    5.6424    6.1729   26.8648 N   0  0  0  0  0  0  0  0  0  0  0  0
    3.0732    5.9681   29.9684 C   0  0  0  0  0  0  0  0  0  0  0  0
    1.5760    1.8525   25.6823 C   0  0  2  0  0  0  0  0  0  0  0  0
    0.9284    2.3846   24.5260 O   0  0  0  0  0  0  0  0  0  0  0  0
   -3.0732    1.1252   25.5785 C   0  0  2  0  0  0  0  0  0  0  0  0
   -3.4952    0.7766   26.9572 N   0  0  0  0  0  0  0  0  0  0  0  0
    5.3966    7.9878   25.1711 C   0  0  1  0  0  0  0  0  0  0  0  0
    6.7605    8.3843   25.2904 O   0  0  0  0  0  0  0  0  0  0  0  0
    2.9111    6.6927   28.6042 C   0  0  2  0  0  0  0  0  0  0  0  0
    1.7920    7.6493   28.7314 N   0  0  0  0  0  0  0  0  0  0  0  0
    0.6385    0.9347   26.4717 C   0  0  2  0  0  0  0  0  0  0  0  0
   -0.7422    1.3884   26.4064 O   0  0  0  0  0  0  0  0  0  0  0  0
   -3.9488    0.3935   24.5151 C   0  0  1  0  0  0  0  0  0  0  0  0
   -3.8225    1.0817   23.2725 O   0  0  0  0  0  0  0  0  0  0  0  0
    4.9020    8.3467   23.7474 C   0  0  2  0  0  0  0  0  0  0  0  0
    4.9732    9.7584   23.5725 O   0  0  0  0  0  0  0  0  0  0  0  0
    2.6835    5.6988   27.4089 C   0  0  2  0  0  0  0  0  0  0  0  0
    1.1839    1.0694   27.9002 C   0  0  2  0  0  0  0  0  0  0  0  0
    1.7031    2.4096   28.0009 O   0  0  0  0  0  0  0  0  0  0  0  0
   -3.5595   -1.0987   24.2879 C   0  0  2  0  0  0  0  0  0  0  0  0
   -3.9924   -1.8581   25.4177 O   0  0  0  0  0  0  0  0  0  0  0  0
    3.4461    7.8419   23.5381 C   0  0  2  0  0  0  0  0  0  0  0  0
    3.3873    6.4145   23.8362 O   0  0  0  0  0  0  0  0  0  0  0  0
    3.6866    4.4889   27.4201 C   0  0  2  0  0  0  0  0  0  0  0  0
    3.1873    3.4801   26.5038 O   0  0  0  0  0  0  0  0  0  0  0  0
    2.2893    0.0482   28.2225 C   0  0  0  0  0  0  0  0  0  0  0  0
    3.1852    0.5628   29.1921 O   0  0  0  0  0  0  0  0  0  0  0  0
   -2.0178   -1.2464   24.0982 C   0  0  1  0  0  0  0  0  0  0  0  0
   -1.3226   -0.5849   25.1990 O   0  0  0  0  0  0  0  0  0  0  0  0
    2.8987    8.0170   22.1039 C   0  0  0  0  0  0  0  0  0  0  0  0
    1.8949    9.0167   22.0544 O   0  0  0  0  0  0  0  0  0  0  0  0
    3.8401    3.8386   28.8301 C   0  0  1  0  0  0  0  0  0  0  0  0
    4.8877    2.8713   28.7779 O   0  0  0  0  0  0  0  0  0  0  0  0
   -1.5628   -2.7267   24.0295 C   0  0  0  0  0  0  0  0  0  0  0  0
   -0.4950   -2.9421   23.0363 N   0  0  0  0  0  0  0  0  0  0  0  0
  1  2  1  1  0  0  0
  1  7  1  0  0  0  0
  1 30  1  0  0  0  0
  3  4  1  1  0  0  0
  3  9  1  0  0  0  0
  3 39  1  0  0  0  0
  5 10  1  0  0  0  0
  5 26  1  0  0  0  0
  5 32  1  1  0  0  0
  6 12  1  0  0  0  0
  6 36  1  0  0  0  0
  6 19  1  1  0  0  0
  7  8  1  1  0  0  0
  7 14  1  0  0  0  0
  9 16  1  0  0  0  0
 10 11  1  6  0  0  0
 10 18  1  0  0  0  0
 12 13  1  1  0  0  0
 12 20  1  0  0  0  0
 14 15  1  6  0  0  0
 14 22  1  0  0  0  0
 16 17  1  1  0  0  0
 16 24  1  0  0  0  0
 18 19  1  1  0  0  0
 18 25  1  0  0  0  0
 20 21  1  6  0  0  0
 20 27  1  0  0  0  0
 22 23  1  1  0  0  0
 22 29  1  0  0  0  0
 24  2  1  6  0  0  0
 24 31  1  0  0  0  0
 25 26  1  0  0  0  0
 25 33  1  6  0  0  0
 27 28  1  1  0  0  0
 27 35  1  0  0  0  0
 29 30  1  0  0  0  0
 29 37  1  6  0  0  0
 31 32  1  6  0  0  0
 31 39  1  0  0  0  0
 33 34  1  0  0  0  0
 35 36  1  0  0  0  0
 35 41  1  1  0  0  0
 37 38  1  0  0  0  0
 39 40  1  6  0  0  0
 41 42  1  0  0  0  0
M  END
>  <CHROM.1>
-85.58536590,126.55497044,102.07941816,94.88091988,67.36793809,87.92038286
-167.55916597,-64.89333207,90.83515155,165.47010356,179.86862164,176.36538661
151.26286936,-48.18041653,-109.78527432,-55.15690502,-175.46451076,-177.55743219
141.16035796,-82.55790098,151.09239903,-76.65685867,1.65712460,3.52778347
26.06527363,0.45534912,-0.78586760,-0.86940649

>  <Name>
1fyp_lig

>  <RI>
0

>  <Rbt.Current_Directory>
/home/itssahil/PROJECTS/Mol_Feturizer/New_Systems/rnas/1fyp

>  <Rbt.Executable>
rbdock ($Id: //depot/dev/client3/rdock/2013.1/src/exe/rbdock.cxx#4 $)

>  <Rbt.Library>
libRbt.so (2013.1, Build901 2013/11/27)

>  <Rbt.Parameter_File>
/export/apps/rDock/src/rDock_2013.1_src/data/scripts/dock_solv.prm

>  <Rbt.Receptor>
prm/blind_docking_100.prm

>  <SCORE>
-36.1631

>  <SCORE.INTER>
-36.6734

>  <SCORE.INTER.CONST>
1

>  <SCORE.INTER.POLAR>
-4.97481

>  <SCORE.INTER.ROT>
14

>  <SCORE.INTER.SOLV>
19.8551

>  <SCORE.INTER.VDW>
-27.4179

>  <SCORE.INTER.norm>
-0.873176

>  <SCORE.INTRA>
0.510297

>  <SCORE.INTRA.DIHEDRAL>
-10.4649

>  <SCORE.INTRA.DIHEDRAL.0>
48.7173

>  <SCORE.INTRA.POLAR>
0.239735

>  <SCORE.INTRA.POLAR.0>
-1.54691

>  <SCORE.INTRA.REPUL>
0

>  <SCORE.INTRA.REPUL.0>
0

>  <SCORE.INTRA.SOLV>
-0.941906

>  <SCORE.INTRA.SOLV.lig_0>
-64.052

>  <SCORE.INTRA.VDW>
5.39861

>  <SCORE.INTRA.VDW.0>
-7.0667

>  <SCORE.INTRA.norm>
0.0121499

>  <SCORE.RESTR>
0

>  <SCORE.RESTR.CAVITY>
0

>  <SCORE.RESTR.norm>
0

>  <SCORE.SYSTEM>
0

>  <SCORE.SYSTEM.CONST>
0

>  <SCORE.SYSTEM.DIHEDRAL>
0

>  <SCORE.SYSTEM.SOLV>
0

>  <SCORE.SYSTEM.norm>
0

>  <SCORE.heavy>
42

>  <SCORE.norm>
-0.861026

>  <RMSD>
5.079

$$$$
1fyp_lig
 OpenBabel11021811393D
libRbt.so/2013.1/901 2013/11/27
 42 45  0  0  0  0  0  0  0  0999 V2000
    3.5011    7.6500   26.2686 C   0  0  2  0  0  0  0  0  0  0  0  0
    4.1404    6.4118   26.6935 O   0  0  0  0  0  0  0  0  0  0  0  0
    3.6855    4.1686   30.2993 C   0  0  2  0  0  0  0  0  0  0  0  0
    3.2065    3.3519   31.4299 N   0  0  0  0  0  0  0  0  0  0  0  0
    2.7688    3.1595   26.0545 C   0  0  1  0  0  0  0  0  0  0  0  0
   -0.7833    1.2129   24.2347 C   0  0  1  0  0  0  0  0  0  0  0  0
    2.1735    7.3717   25.4927 C   0  0  2  0  0  0  0  0  0  0  0  0
    1.2933    6.4545   26.2475 N   0  0  0  0  0  0  0  0  0  0  0  0
    2.7466    5.3759   30.1047 C   0  0  0  0  0  0  0  0  0  0  0  0
    2.8098    1.9572   25.1076 C   0  0  2  0  0  0  0  0  0  0  0  0
    2.9549    2.4141   23.7623 O   0  0  0  0  0  0  0  0  0  0  0  0
   -2.0301    1.7379   25.0100 C   0  0  2  0  0  0  0  0  0  0  0  0
   -1.7538    1.9655   26.4495 N   0  0  0  0  0  0  0  0  0  0  0  0
    2.4695    6.7927   24.0738 C   0  0  1  0  0  0  0  0  0  0  0  0
    1.2628    6.6936   23.3216 O   0  0  0  0  0  0  0  0  0  0  0  0
    3.2080    6.2981   28.9432 C   0  0  2  0  0  0  0  0  0  0  0  0
    2.2023    7.3699   28.7909 N   0  0  0  0  0  0  0  0  0  0  0  0
    1.4317    1.3306   25.3365 C   0  0  2  0  0  0  0  0  0  0  0  0
    0.4013    1.9903   24.5492 O   0  0  0  0  0  0  0  0  0  0  0  0
   -3.2500    0.7867   24.8099 C   0  0  1  0  0  0  0  0  0  0  0  0
   -3.7466    0.9588   23.4843 O   0  0  0  0  0  0  0  0  0  0  0  0
    3.4690    7.6774   23.2874 C   0  0  2  0  0  0  0  0  0  0  0  0
    3.7682    7.0491   22.0446 O   0  0  0  0  0  0  0  0  0  0  0  0
    3.4255    5.5196   27.5960 C   0  0  2  0  0  0  0  0  0  0  0  0
    1.2092    1.5808   26.8346 C   0  0  2  0  0  0  0  0  0  0  0  0
    1.8845    2.8178   27.1339 O   0  0  0  0  0  0  0  0  0  0  0  0
   -2.9201   -0.7230   25.0150 C   0  0  2  0  0  0  0  0  0  0  0  0
   -2.7430   -0.9635   26.4119 O   0  0  0  0  0  0  0  0  0  0  0  0
    4.7662    7.8953   24.1169 C   0  0  2  0  0  0  0  0  0  0  0  0
    4.4118    8.4336   25.4262 O   0  0  0  0  0  0  0  0  0  0  0  0
    4.2520    4.1957   27.7811 C   0  0  2  0  0  0  0  0  0  0  0  0
    4.1068    3.4006   26.5756 O   0  0  0  0  0  0  0  0  0  0  0  0
    1.7580    0.4501   27.7228 C   0  0  0  0  0  0  0  0  0  0  0  0
    3.1574    0.5822   27.9014 O   0  0  0  0  0  0  0  0  0  0  0  0
   -1.6300   -1.1194   24.2321 C   0  0  1  0  0  0  0  0  0  0  0  0
   -0.5490   -0.1973   24.5691 O   0  0  0  0  0  0  0  0  0  0  0  0
    5.7776    8.8821   23.4921 C   0  0  0  0  0  0  0  0  0  0  0  0
    6.0994    8.5157   22.1610 O   0  0  0  0  0  0  0  0  0  0  0  0
    3.7689    3.3412   28.9940 C   0  0  1  0  0  0  0  0  0  0  0  0
    4.6781    2.2581   29.1838 O   0  0  0  0  0  0  0  0  0  0  0  0
   -1.1700   -2.5691   24.5324 C   0  0  0  0  0  0  0  0  0  0  0  0
   -0.7363   -2.7442   25.9303 N   0  0  0  0  0  0  0  0  0  0  0  0
  1  2  1  6  0  0  0
  1  7  1  0  0  0  0
  1 30  1  0  0  0  0
  3  4  1  1  0  0  0
  3  9  1  0  0  0  0
  3 39  1  0  0  0  0
  5 10  1  0  0  0  0
  5 26  1  0  0  0  0
  5 32  1  1  0  0  0
  6 12  1  0  0  0  0
  6 36  1  0  0  0  0
  6 19  1  1  0  0  0
  7  8  1  1  0  0  0
  7 14  1  0  0  0  0
  9 16  1  0  0  0  0
 10 11  1  6  0  0  0
 10 18  1  0  0  0  0
 12 13  1  1  0  0  0
 12 20  1  0  0  0  0
 14 15  1  6  0  0  0
 14 22  1  0  0  0  0
 16 17  1  6  0  0  0
 16 24  1  0  0  0  0
 18 19  1  6  0  0  0
 18 25  1  0  0  0  0
 20 21  1  6  0  0  0
 20 27  1  0  0  0  0
 22 23  1  6  0  0  0
 22 29  1  0  0  0  0
 24  2  1  6  0  0  0
 24 31  1  0  0  0  0
 25 26  1  0  0  0  0
 25 33  1  1  0  0  0
 27 28  1  1  0  0  0
 27 35  1  0  0  0  0
 29 30  1  0  0  0  0
 29 37  1  6  0  0  0
 31 32  1  6  0  0  0
 31 39  1  0  0  0  0
 33 34  1  0  0  0  0
 35 36  1  0  0  0  0
 35 41  1  1  0  0  0
 37 38  1  0  0  0  0
 39 40  1  1  0  0  0
 41 42  1  0  0  0  0
M  END
>  <CHROM.1>
-60.82758741,-63.27453964,-68.98271052,131.60547398,178.21859546,-65.58308159
58.77773593,143.18739503,155.50348545,110.06899407,-167.09228417,-173.54376560
80.31671192,67.86430703,-53.73220413,-50.06814336,-161.09916648,-69.74550976
-65.77915389,-179.58479936,46.80015769,57.39143656,1.79870210,3.55757807
25.96521018,0.46046813,-0.85425422,-0.97606548

>  <Name>
1fyp_lig

>  <RI>
0

>  <Rbt.Current_Directory>
/home/itssahil/PROJECTS/Mol_Feturizer/New_Systems/rnas/1fyp

>  <Rbt.Executable>
rbdock ($Id: //depot/dev/client3/rdock/2013.1/src/exe/rbdock.cxx#4 $)

>  <Rbt.Library>
libRbt.so (2013.1, Build901 2013/11/27)

>  <Rbt.Parameter_File>
/export/apps/rDock/src/rDock_2013.1_src/data/scripts/dock_solv.prm

>  <Rbt.Receptor>
prm/pocket_docking_8.prm

>  <SCORE>
-57.2212

>  <SCORE.INTER>
-45.5449

>  <SCORE.INTER.CONST>
1

>  <SCORE.INTER.POLAR>
-5.16798

>  <SCORE.INTER.ROT>
14

>  <SCORE.INTER.SOLV>
21.2745

>  <SCORE.INTER.VDW>
-33.1615

>  <SCORE.INTER.norm>
-1.0844

>  <SCORE.INTRA>
-11.6763

>  <SCORE.INTRA.DIHEDRAL>
-28.3097

>  <SCORE.INTRA.DIHEDRAL.0>
48.7173

>  <SCORE.INTRA.POLAR>
-0.980641

>  <SCORE.INTRA.POLAR.0>
-1.54691

>  <SCORE.INTRA.REPUL>
0

>  <SCORE.INTRA.REPUL.0>
0

>  <SCORE.INTRA.SOLV>
3.09336

>  <SCORE.INTRA.SOLV.lig_0>
-64.052

>  <SCORE.INTRA.VDW>
4.26606

>  <SCORE.INTRA.VDW.0>
-7.0667

>  <SCORE.INTRA.norm>
-0.278007

>  <SCORE.RESTR>
0

>  <SCORE.RESTR.CAVITY>
0

>  <SCORE.RESTR.norm>
0

>  <SCORE.SYSTEM>
0

>  <SCORE.SYSTEM.CONST>
0

>  <SCORE.SYSTEM.DIHEDRAL>
0

>  <SCORE.SYSTEM.SOLV>
0

>  <SCORE.SYSTEM.norm>
0

>  <SCORE.heavy>
42

>  <SCORE.norm>
-1.36241

>  <RMSD>
5.089

$$$$
1fyp_lig
 OpenBabel11021811393D
libRbt.so/2013.1/901 2013/11/27
 42 45  0  0  0  0  0  0  0  0999 V2000
    3.7189    7.8603   26.2455 C   0  0  2  0  0  0  0  0  0  0  0  0
    3.7189    6.4194   26.4606 O   0  0  0  0  0  0  0  0  0  0  0  0
    5.8413    3.6359   28.9076 C   0  0  2  0  0  0  0  0  0  0  0  0
    6.5074    2.9038   30.0006 N   0  0  0  0  0  0  0  0  0  0  0  0
    1.1837    3.8996   27.5505 C   0  0  1  0  0  0  0  0  0  0  0  0
   -0.9836    0.3762   25.9666 C   0  0  1  0  0  0  0  0  0  0  0  0
    2.5992    8.2895   25.2434 C   0  0  2  0  0  0  0  0  0  0  0  0
    1.2881    7.7271   25.6313 N   0  0  0  0  0  0  0  0  0  0  0  0
    6.4003    5.0710   28.8361 C   0  0  0  0  0  0  0  0  0  0  0  0
    1.3344    2.3964   27.7984 C   0  0  2  0  0  0  0  0  0  0  0  0
    2.1407    1.8216   26.7693 O   0  0  0  0  0  0  0  0  0  0  0  0
    0.2099   -0.5570   25.5981 C   0  0  2  0  0  0  0  0  0  0  0  0
    1.1670    0.0819   24.6620 N   0  0  0  0  0  0  0  0  0  0  0  0
    2.9625    7.8616   23.7870 C   0  0  1  0  0  0  0  0  0  0  0  0
    2.0146    8.3964   22.8666 O   0  0  0  0  0  0  0  0  0  0  0  0
    5.7604    5.8943   27.6850 C   0  0  2  0  0  0  0  0  0  0  0  0
    6.3025    7.2672   27.7567 N   0  0  0  0  0  0  0  0  0  0  0  0
   -0.1161    1.9156   27.7020 C   0  0  2  0  0  0  0  0  0  0  0  0
   -0.5249    1.7067   26.3215 O   0  0  0  0  0  0  0  0  0  0  0  0
   -0.3026   -1.9212   25.0419 C   0  0  1  0  0  0  0  0  0  0  0  0
   -0.8304   -2.6833   26.1255 O   0  0  0  0  0  0  0  0  0  0  0  0
    4.3751    8.3494   23.3785 C   0  0  2  0  0  0  0  0  0  0  0  0
    4.6824    7.8495   22.0807 O   0  0  0  0  0  0  0  0  0  0  0  0
    4.1902    5.8940   27.7346 C   0  0  2  0  0  0  0  0  0  0  0  0
   -0.8863    3.0903   28.3211 C   0  0  2  0  0  0  0  0  0  0  0  0
   -0.1283    4.2731   28.0012 O   0  0  0  0  0  0  0  0  0  0  0  0
   -1.4107   -1.7888   23.9535 C   0  0  2  0  0  0  0  0  0  0  0  0
   -0.8066   -1.3272   22.7441 O   0  0  0  0  0  0  0  0  0  0  0  0
    5.4322    7.8709   24.4138 C   0  0  2  0  0  0  0  0  0  0  0  0
    5.0258    8.3036   25.7471 O   0  0  0  0  0  0  0  0  0  0  0  0
    3.5858    4.4611   27.9617 C   0  0  2  0  0  0  0  0  0  0  0  0
    2.1889    4.6128   28.3254 O   0  0  0  0  0  0  0  0  0  0  0  0
   -1.0533    2.9652   29.8459 C   0  0  0  0  0  0  0  0  0  0  0  0
   -1.8244    1.8237   30.1776 O   0  0  0  0  0  0  0  0  0  0  0  0
   -2.5230   -0.7960   24.4133 C   0  0  1  0  0  0  0  0  0  0  0  0
   -1.9137    0.4627   24.8340 O   0  0  0  0  0  0  0  0  0  0  0  0
    6.8582    8.4204   24.1861 C   0  0  0  0  0  0  0  0  0  0  0  0
    6.8430    9.8231   23.9820 O   0  0  0  0  0  0  0  0  0  0  0  0
    4.3057    3.6698   29.0976 C   0  0  1  0  0  0  0  0  0  0  0  0
    3.8065    2.3333   29.1138 O   0  0  0  0  0  0  0  0  0  0  0  0
   -3.5638   -0.5071   23.3013 C   0  0  0  0  0  0  0  0  0  0  0  0
   -3.0276    0.3655   22.2411 N   0  0  0  0  0  0  0  0  0  0  0  0
  1  2  1  6  0  0  0
  1  7  1  0  0  0  0
  1 30  1  0  0  0  0
  3  4  1  1  0  0  0
  3  9  1  0  0  0  0
  3 39  1  0  0  0  0
  5 10  1  0  0  0  0
  5 26  1  0  0  0  0
  5 32  1  1  0  0  0
  6 12  1  0  0  0  0
  6 36  1  0  0  0  0
  6 19  1  6  0  0  0
  7  8  1  1  0  0  0
  7 14  1  0  0  0  0
  9 16  1  0  0  0  0
 10 11  1  6  0  0  0
 10 18  1  0  0  0  0
 12 13  1  6  0  0  0
 12 20  1  0  0  0  0
 14 15  1  6  0  0  0
 14 22  1  0  0  0  0
 16 17  1  1  0  0  0
 16 24  1  0  0  0  0
 18 19  1  6  0  0  0
 18 25  1  0  0  0  0
 20 21  1  1  0  0  0
 20 27  1  0  0  0  0
 22 23  1  6  0  0  0
 22 29  1  0  0  0  0
 24  2  1  6  0  0  0
 24 31  1  0  0  0  0
 25 26  1  0  0  0  0
 25 33  1  1  0  0  0
 27 28  1  6  0  0  0
 27 35  1  0  0  0  0
 29 30  1  0  0  0  0
 29 37  1  6  0  0  0
 31 32  1  1  0  0  0
 31 39  1  0  0  0  0
 33 34  1  0  0  0  0
 35 36  1  0  0  0  0
 35 41  1  6  0  0  0
 37 38  1  0  0  0  0
 39 40  1  6  0  0  0
 41 42  1  0  0  0  0
M  END
>  <CHROM.1>
-151.37608112,-79.74441188,124.53616941,-8.33563066,174.39285564,72.38175983
-134.48366617,-69.22243433,121.66761932,-85.18076657,-47.16482962,-56.93458045
-63.11606764,-41.28694252,48.51931204,125.64850261,67.77107053,-57.77757254
-73.51156315,-170.36129276,-49.28069874,172.31428259,2.01090768,3.76933357
26.18317998,0.42588962,-0.80575165,-0.96989760

>  <Name>
1fyp_lig

>  <RI>
0

>  <Rbt.Current_Directory>
/home/itssahil/PROJECTS/Mol_Feturizer/New_Systems/rnas/1fyp

>  <Rbt.Executable>
rbdock ($Id: //depot/dev/client3/rdock/2013.1/src/exe/rbdock.cxx#4 $)

>  <Rbt.Library>
libRbt.so (2013.1, Build901 2013/11/27)

>  <Rbt.Parameter_File>
/export/apps/rDock/src/rDock_2013.1_src/data/scripts/dock_solv.prm

>  <Rbt.Receptor>
prm/blind_docking_80.prm

>  <SCORE>
-52.5473

>  <SCORE.INTER>
-47.5522

>  <SCORE.INTER.CONST>
1

>  <SCORE.INTER.POLAR>
-6.2588

>  <SCORE.INTER.ROT>
14

>  <SCORE.INTER.SOLV>
19.4928

>  <SCORE.INTER.VDW>
-30.2697

>  <SCORE.INTER.norm>
-1.13219

>  <SCORE.INTRA>
-4.99513

>  <SCORE.INTRA.DIHEDRAL>
-10.2102

>  <SCORE.INTRA.DIHEDRAL.0>
48.7173

>  <SCORE.INTRA.POLAR>
-0.654405

>  <SCORE.INTRA.POLAR.0>
-1.54691

>  <SCORE.INTRA.REPUL>
0

>  <SCORE.INTRA.REPUL.0>
0

>  <SCORE.INTRA.SOLV>
0.0623942

>  <SCORE.INTRA.SOLV.lig_0>
-64.052

>  <SCORE.INTRA.VDW>
2.30375

>  <SCORE.INTRA.VDW.0>
-7.0667

>  <SCORE.INTRA.norm>
-0.118932

>  <SCORE.RESTR>
0

>  <SCORE.RESTR.CAVITY>
0

>  <SCORE.RESTR.norm>
0

>  <SCORE.SYSTEM>
0

>  <SCORE.SYSTEM.CONST>
0

>  <SCORE.SYSTEM.DIHEDRAL>
0

>  <SCORE.SYSTEM.SOLV>
0

>  <SCORE.SYSTEM.norm>
0

>  <SCORE.heavy>
42

>  <SCORE.norm>
-1.25113

>  <RMSD>
5.094

$$$$
1fyp_lig
 OpenBabel11021811393D
libRbt.so/2013.1/901 2013/11/27
 42 45  0  0  0  0  0  0  0  0999 V2000
    2.9041    7.6728   25.3994 C   0  0  2  0  0  0  0  0  0  0  0  0
    4.1920    7.0838   25.7410 O   0  0  0  0  0  0  0  0  0  0  0  0
    6.1976    5.0149   28.8934 C   0  0  2  0  0  0  0  0  0  0  0  0
    6.7522    4.5480   30.1775 N   0  0  0  0  0  0  0  0  0  0  0  0
    1.8600    4.3062   26.8991 C   0  0  1  0  0  0  0  0  0  0  0  0
   -0.0553    0.4477   25.8081 C   0  0  1  0  0  0  0  0  0  0  0  0
    2.3835    7.1511   24.0214 C   0  0  2  0  0  0  0  0  0  0  0  0
    2.4187    5.6744   23.9590 N   0  0  0  0  0  0  0  0  0  0  0  0
    6.5706    6.4958   28.6818 C   0  0  0  0  0  0  0  0  0  0  0  0
    2.2730    2.9294   27.4260 C   0  0  2  0  0  0  0  0  0  0  0  0
    3.2921    2.3836   26.5876 O   0  0  0  0  0  0  0  0  0  0  0  0
    0.2243   -0.2828   24.4592 C   0  0  2  0  0  0  0  0  0  0  0  0
    0.2527    0.6448   23.3021 N   0  0  0  0  0  0  0  0  0  0  0  0
    3.2099    7.7625   22.8470 C   0  0  1  0  0  0  0  0  0  0  0  0
    2.6262    7.4052   21.5967 O   0  0  0  0  0  0  0  0  0  0  0  0
    6.0399    7.0483   27.3307 C   0  0  2  0  0  0  0  0  0  0  0  0
    6.3795    8.4850   27.2658 N   0  0  0  0  0  0  0  0  0  0  0  0
    0.9669    2.1404   27.2992 C   0  0  2  0  0  0  0  0  0  0  0  0
    0.7727    1.6312   25.9503 O   0  0  0  0  0  0  0  0  0  0  0  0
   -0.7957   -1.4411   24.2328 C   0  0  1  0  0  0  0  0  0  0  0  0
   -0.4693   -2.5119   25.1162 O   0  0  0  0  0  0  0  0  0  0  0  0
    3.2794    9.3077   22.9346 C   0  0  2  0  0  0  0  0  0  0  0  0
    4.1207    9.7952   21.8938 O   0  0  0  0  0  0  0  0  0  0  0  0
    4.4983    6.8137   27.1390 C   0  0  2  0  0  0  0  0  0  0  0  0
   -0.0866    3.2067   27.6305 C   0  0  2  0  0  0  0  0  0  0  0  0
    0.4565    4.4576   27.1656 O   0  0  0  0  0  0  0  0  0  0  0  0
   -2.2810   -1.0389   24.4818 C   0  0  2  0  0  0  0  0  0  0  0  0
   -2.7157   -0.2142   23.3994 O   0  0  0  0  0  0  0  0  0  0  0  0
    3.8192    9.7463   24.3255 C   0  0  2  0  0  0  0  0  0  0  0  0
    3.0021    9.1365   25.3696 O   0  0  0  0  0  0  0  0  0  0  0  0
    4.0536    5.3490   27.4952 C   0  0  2  0  0  0  0  0  0  0  0  0
    2.6071    5.3323   27.6125 O   0  0  0  0  0  0  0  0  0  0  0  0
   -0.4043    3.2939   29.1339 C   0  0  0  0  0  0  0  0  0  0  0  0
    0.7778    3.4940   29.8891 O   0  0  0  0  0  0  0  0  0  0  0  0
   -2.4288   -0.2751   25.8343 C   0  0  1  0  0  0  0  0  0  0  0  0
   -1.4717    0.8267   25.8825 O   0  0  0  0  0  0  0  0  0  0  0  0
    3.7960   11.2702   24.5792 C   0  0  0  0  0  0  0  0  0  0  0  0
    2.5138   11.8160   24.3192 O   0  0  0  0  0  0  0  0  0  0  0  0
    4.6610    4.8382   28.8387 C   0  0  1  0  0  0  0  0  0  0  0  0
    4.3432    3.4555   28.9899 O   0  0  0  0  0  0  0  0  0  0  0  0
   -3.8574    0.2863   26.0510 C   0  0  0  0  0  0  0  0  0  0  0  0
   -3.8507    1.6017   26.7163 N   0  0  0  0  0  0  0  0  0  0  0  0
  1  2  1  6  0  0  0
  1  7  1  0  0  0  0
  1 30  1  0  0  0  0
  3  4  1  1  0  0  0
  3  9  1  0  0  0  0
  3 39  1  0  0  0  0
  5 10  1  0  0  0  0
  5 26  1  0  0  0  0
  5 32  1  1  0  0  0
  6 12  1  0  0  0  0
  6 36  1  0  0  0  0
  6 19  1  6  0  0  0
  7  8  1  1  0  0  0
  7 14  1  0  0  0  0
  9 16  1  0  0  0  0
 10 11  1  6  0  0  0
 10 18  1  0  0  0  0
 12 13  1  6  0  0  0
 12 20  1  0  0  0  0
 14 15  1  6  0  0  0
 14 22  1  0  0  0  0
 16 17  1  1  0  0  0
 16 24  1  0  0  0  0
 18 19  1  6  0  0  0
 18 25  1  0  0  0  0
 20 21  1  1  0  0  0
 20 27  1  0  0  0  0
 22 23  1  6  0  0  0
 22 29  1  0  0  0  0
 24  2  1  6  0  0  0
 24 31  1  0  0  0  0
 25 26  1  0  0  0  0
 25 33  1  1  0  0  0
 27 28  1  6  0  0  0
 27 35  1  0  0  0  0
 29 30  1  0  0  0  0
 29 37  1  6  0  0  0
 31 32  1  1  0  0  0
 31 39  1  0  0  0  0
 33 34  1  0  0  0  0
 35 36  1  0  0  0  0
 35 41  1  6  0  0  0
 37 38  1  0  0  0  0
 39 40  1  6  0  0  0
 41 42  1  0  0  0  0
M  END
>  <CHROM.1>
-146.29758867,-145.98306010,-77.29170934,-8.16214829,49.42850202,31.86379841
41.79423678,69.03928276,154.43264965,-159.37438953,63.42925177,62.47850496
54.50650780,-47.46339705,51.88320758,130.51609203,62.13585900,164.05897336
-142.92205731,160.22944181,-61.87981642,178.46189930,1.96255198,4.46901121
25.99690510,0.68755795,-0.76285329,-0.71644007

>  <Name>
1fyp_lig

>  <RI>
0

>  <Rbt.Current_Directory>
/home/itssahil/PROJECTS/Mol_Feturizer/New_Systems/rnas/1fyp

>  <Rbt.Executable>
rbdock ($Id: //depot/dev/client3/rdock/2013.1/src/exe/rbdock.cxx#4 $)

>  <Rbt.Library>
libRbt.so (2013.1, Build901 2013/11/27)

>  <Rbt.Parameter_File>
/export/apps/rDock/src/rDock_2013.1_src/data/scripts/dock_solv.prm

>  <Rbt.Receptor>
prm/pocket_docking_6.prm

>  <SCORE>
-42.2783

>  <SCORE.INTER>
-41.9505

>  <SCORE.INTER.CONST>
1

>  <SCORE.INTER.POLAR>
-5.91257

>  <SCORE.INTER.ROT>
14

>  <SCORE.INTER.SOLV>
20.0751

>  <SCORE.INTER.VDW>
-27.8835

>  <SCORE.INTER.norm>
-0.998822

>  <SCORE.INTRA>
-0.327751

>  <SCORE.INTRA.DIHEDRAL>
-14.4822

>  <SCORE.INTRA.DIHEDRAL.0>
48.7173

>  <SCORE.INTRA.POLAR>
0.844451

>  <SCORE.INTRA.POLAR.0>
-1.54691

>  <SCORE.INTRA.REPUL>
0.221835

>  <SCORE.INTRA.REPUL.0>
0

>  <SCORE.INTRA.SOLV>
-0.466686

>  <SCORE.INTRA.SOLV.lig_0>
-64.052

>  <SCORE.INTRA.VDW>
3.16636

>  <SCORE.INTRA.VDW.0>
-7.0667

>  <SCORE.INTRA.norm>
-0.0078036

>  <SCORE.RESTR>
0

>  <SCORE.RESTR.CAVITY>
0

>  <SCORE.RESTR.norm>
0

>  <SCORE.SYSTEM>
0

>  <SCORE.SYSTEM.CONST>
0

>  <SCORE.SYSTEM.DIHEDRAL>
0

>  <SCORE.SYSTEM.SOLV>
0

>  <SCORE.SYSTEM.norm>
0

>  <SCORE.heavy>
42

>  <SCORE.norm>
-1.00663

>  <RMSD>
5.094

$$$$
1fyp_lig
 OpenBabel11021811393D
libRbt.so/2013.1/901 2013/11/27
 42 45  0  0  0  0  0  0  0  0999 V2000
    4.4299    4.8590   25.8474 C   0  0  2  0  0  0  0  0  0  0  0  0
    3.8231    5.2487   27.1133 O   0  0  0  0  0  0  0  0  0  0  0  0
    3.2246    2.1827   30.0257 C   0  0  2  0  0  0  0  0  0  0  0  0
    2.6856    1.1746   30.9573 N   0  0  0  0  0  0  0  0  0  0  0  0
    1.7231    2.4526   25.8950 C   0  0  1  0  0  0  0  0  0  0  0  0
   -1.8832    0.4796   24.7828 C   0  0  1  0  0  0  0  0  0  0  0  0
    5.9677    4.6253   25.9978 C   0  0  2  0  0  0  0  0  0  0  0  0
    6.2643    3.7167   27.1257 N   0  0  0  0  0  0  0  0  0  0  0  0
    2.5483    3.5420   30.2936 C   0  0  0  0  0  0  0  0  0  0  0  0
    1.1956    1.0174   25.9712 C   0  0  2  0  0  0  0  0  0  0  0  0
    1.2070    0.4350   24.6673 O   0  0  0  0  0  0  0  0  0  0  0  0
   -3.1951    0.1832   25.5715 C   0  0  2  0  0  0  0  0  0  0  0  0
   -2.9761    0.1059   27.0366 N   0  0  0  0  0  0  0  0  0  0  0  0
    6.7208    5.9800   26.1814 C   0  0  1  0  0  0  0  0  0  0  0  0
    8.1299    5.7665   26.1575 O   0  0  0  0  0  0  0  0  0  0  0  0
    3.0898    4.6614   29.3628 C   0  0  2  0  0  0  0  0  0  0  0  0
    2.3235    5.8930   29.6450 N   0  0  0  0  0  0  0  0  0  0  0  0
   -0.2354    1.2354   26.4703 C   0  0  2  0  0  0  0  0  0  0  0  0
   -1.1408    1.5730   25.3827 O   0  0  0  0  0  0  0  0  0  0  0  0
   -3.8881   -1.1062   25.0327 C   0  0  1  0  0  0  0  0  0  0  0  0
   -4.4736   -0.8110   23.7664 O   0  0  0  0  0  0  0  0  0  0  0  0
    6.3576    6.9964   25.0698 C   0  0  2  0  0  0  0  0  0  0  0  0
    7.0017    8.2366   25.3452 O   0  0  0  0  0  0  0  0  0  0  0  0
    3.0184    4.2770   27.8412 C   0  0  2  0  0  0  0  0  0  0  0  0
   -0.0662    2.4281   27.4217 C   0  0  2  0  0  0  0  0  0  0  0  0
    1.0088    3.2185   26.8783 O   0  0  0  0  0  0  0  0  0  0  0  0
   -2.9251   -2.3189   24.8540 C   0  0  2  0  0  0  0  0  0  0  0  0
   -2.5938   -2.8301   26.1461 O   0  0  0  0  0  0  0  0  0  0  0  0
    4.8160    7.1853   24.9931 C   0  0  2  0  0  0  0  0  0  0  0  0
    4.1822    5.8815   24.8246 O   0  0  0  0  0  0  0  0  0  0  0  0
    3.5598    2.8307   27.5497 C   0  0  2  0  0  0  0  0  0  0  0  0
    3.1444    2.4545   26.2109 O   0  0  0  0  0  0  0  0  0  0  0  0
    0.2642    2.0064   28.8645 C   0  0  0  0  0  0  0  0  0  0  0  0
   -0.2747    2.9280   29.7961 O   0  0  0  0  0  0  0  0  0  0  0  0
   -1.6305   -1.8911   24.0955 C   0  0  1  0  0  0  0  0  0  0  0  0
   -1.0431   -0.7239   24.7475 O   0  0  0  0  0  0  0  0  0  0  0  0
    4.3281    8.0686   23.8232 C   0  0  0  0  0  0  0  0  0  0  0  0
    4.0412    7.2893   22.6744 O   0  0  0  0  0  0  0  0  0  0  0  0
    3.0161    1.7641   28.5504 C   0  0  1  0  0  0  0  0  0  0  0  0
    3.6893    0.5283   28.3149 O   0  0  0  0  0  0  0  0  0  0  0  0
   -0.5720   -3.0221   24.0342 C   0  0  0  0  0  0  0  0  0  0  0  0
   -1.0973   -4.2521   23.4145 N   0  0  0  0  0  0  0  0  0  0  0  0
  1  2  1  1  0  0  0
  1  7  1  0  0  0  0
  1 30  1  0  0  0  0
  3  4  1  1  0  0  0
  3  9  1  0  0  0  0
  3 39  1  0  0  0  0
  5 10  1  0  0  0  0
  5 26  1  0  0  0  0
  5 32  1  1  0  0  0
  6 12  1  0  0  0  0
  6 36  1  0  0  0  0
  6 19  1  1  0  0  0
  7  8  1  1  0  0  0
  7 14  1  0  0  0  0
  9 16  1  0  0  0  0
 10 11  1  6  0  0  0
 10 18  1  0  0  0  0
 12 13  1  1  0  0  0
 12 20  1  0  0  0  0
 14 15  1  6  0  0  0
 14 22  1  0  0  0  0
 16 17  1  6  0  0  0
 16 24  1  0  0  0  0
 18 19  1  6  0  0  0
 18 25  1  0  0  0  0
 20 21  1  6  0  0  0
 20 27  1  0  0  0  0
 22 23  1  1  0  0  0
 22 29  1  0  0  0  0
 24  2  1  6  0  0  0
 24 31  1  0  0  0  0
 25 26  1  0  0  0  0
 25 33  1  1  0  0  0
 27 28  1  1  0  0  0
 27 35  1  0  0  0  0
 29 30  1  0  0  0  0
 29 37  1  6  0  0  0
 31 32  1  6  0  0  0
 31 39  1  0  0  0  0
 33 34  1  0  0  0  0
 35 36  1  0  0  0  0
 35 41  1  1  0  0  0
 37 38  1  0  0  0  0
 39 40  1  1  0  0  0
 41 42  1  0  0  0  0
M  END
>  <CHROM.1>
-105.53598390,153.07066371,148.13232725,-175.73023610,76.27311205,168.98428660
-63.27329593,-143.73801719,94.72499471,85.61338850,-177.47720019,-78.11191044
-148.29557998,64.23557603,91.44664688,-57.81778592,-99.64111406,176.14198984
56.74488425,-47.06988506,-165.77535516,6.71071561,1.76082394,2.47254472,26.39233782
0.01471342,-0.77496179,-1.41536985

>  <Name>
1fyp_lig

>  <RI>
0

>  <Rbt.Current_Directory>
/home/itssahil/PROJECTS/Mol_Feturizer/New_Systems/rnas/1fyp

>  <Rbt.Executable>
rbdock ($Id: //depot/dev/client3/rdock/2013.1/src/exe/rbdock.cxx#4 $)

>  <Rbt.Library>
libRbt.so (2013.1, Build901 2013/11/27)

>  <Rbt.Parameter_File>
/export/apps/rDock/src/rDock_2013.1_src/data/scripts/dock_solv.prm

>  <Rbt.Receptor>
prm/blind_docking_60.prm

>  <SCORE>
-39.3173

>  <SCORE.INTER>
-50.0362

>  <SCORE.INTER.CONST>
1

>  <SCORE.INTER.POLAR>
-6.82781

>  <SCORE.INTER.ROT>
14

>  <SCORE.INTER.SOLV>
15.582

>  <SCORE.INTER.VDW>
-28.7254

>  <SCORE.INTER.norm>
-1.19134

>  <SCORE.INTRA>
10.7189

>  <SCORE.INTRA.DIHEDRAL>
-10.6515

>  <SCORE.INTRA.DIHEDRAL.0>
48.7173

>  <SCORE.INTRA.POLAR>
1.36308

>  <SCORE.INTRA.POLAR.0>
-1.54691

>  <SCORE.INTRA.REPUL>
0.223849

>  <SCORE.INTRA.REPUL.0>
0

>  <SCORE.INTRA.SOLV>
1.31608

>  <SCORE.INTRA.SOLV.lig_0>
-64.052

>  <SCORE.INTRA.VDW>
9.6329

>  <SCORE.INTRA.VDW.0>
-7.0667

>  <SCORE.INTRA.norm>
0.255212

>  <SCORE.RESTR>
0

>  <SCORE.RESTR.CAVITY>
0

>  <SCORE.RESTR.norm>
0

>  <SCORE.SYSTEM>
0

>  <SCORE.SYSTEM.CONST>
0

>  <SCORE.SYSTEM.DIHEDRAL>
0

>  <SCORE.SYSTEM.SOLV>
0

>  <SCORE.SYSTEM.norm>
0

>  <SCORE.heavy>
42

>  <SCORE.norm>
-0.936126

>  <RMSD>
5.104

$$$$
1fyp_lig
 OpenBabel11021811393D
libRbt.so/2013.1/901 2013/11/27
 42 45  0  0  0  0  0  0  0  0999 V2000
    3.8118    7.1434   25.8860 C   0  0  2  0  0  0  0  0  0  0  0  0
    2.5648    6.7721   26.5414 O   0  0  0  0  0  0  0  0  0  0  0  0
    4.3581    4.7545   29.8512 C   0  0  2  0  0  0  0  0  0  0  0  0
    4.6646    3.9176   31.0259 N   0  0  0  0  0  0  0  0  0  0  0  0
    2.1171    3.1210   26.4172 C   0  0  1  0  0  0  0  0  0  0  0  0
   -0.9251   -0.0185   26.5716 C   0  0  1  0  0  0  0  0  0  0  0  0
    4.1008    8.6724   26.0297 C   0  0  2  0  0  0  0  0  0  0  0  0
    3.9949    9.1081   27.4385 N   0  0  0  0  0  0  0  0  0  0  0  0
    3.1225    5.6265   30.1509 C   0  0  0  0  0  0  0  0  0  0  0  0
    2.1101    1.9672   25.4110 C   0  0  2  0  0  0  0  0  0  0  0  0
    1.4030    2.3637   24.2352 O   0  0  0  0  0  0  0  0  0  0  0  0
   -0.4576   -1.3974   26.0137 C   0  0  2  0  0  0  0  0  0  0  0  0
   -0.2152   -1.3695   24.5506 N   0  0  0  0  0  0  0  0  0  0  0  0
    3.1364    9.5076   25.1307 C   0  0  1  0  0  0  0  0  0  0  0  0
    3.5136   10.8821   25.1493 O   0  0  0  0  0  0  0  0  0  0  0  0
    2.7574    6.5570   28.9621 C   0  0  2  0  0  0  0  0  0  0  0  0
    1.5214    7.2834   29.3205 N   0  0  0  0  0  0  0  0  0  0  0  0
    1.3474    0.8850   26.1801 C   0  0  2  0  0  0  0  0  0  0  0  0
   -0.0929    1.0625   26.0760 O   0  0  0  0  0  0  0  0  0  0  0  0
   -1.4651   -2.5237   26.4004 C   0  0  1  0  0  0  0  0  0  0  0  0
   -1.3183   -2.8056   27.7906 O   0  0  0  0  0  0  0  0  0  0  0  0
    3.1454    9.0142   23.6621 C   0  0  2  0  0  0  0  0  0  0  0  0
    2.1808    9.7518   22.9177 O   0  0  0  0  0  0  0  0  0  0  0  0
    2.5935    5.7795   27.6069 C   0  0  2  0  0  0  0  0  0  0  0  0
    1.8177    1.1229   27.6218 C   0  0  2  0  0  0  0  0  0  0  0  0
    2.0645    2.5383   27.7292 O   0  0  0  0  0  0  0  0  0  0  0  0
   -2.9574   -2.1628   26.1308 C   0  0  2  0  0  0  0  0  0  0  0  0
   -3.1872   -2.2043   24.7216 O   0  0  0  0  0  0  0  0  0  0  0  0
    2.8358    7.4914   23.6019 C   0  0  2  0  0  0  0  0  0  0  0  0
    3.7719    6.7785   24.4653 O   0  0  0  0  0  0  0  0  0  0  0  0
    3.7623    4.7633   27.3396 C   0  0  2  0  0  0  0  0  0  0  0  0
    3.3527    3.8763   26.2663 O   0  0  0  0  0  0  0  0  0  0  0  0
    3.0910    0.3353   27.9784 C   0  0  0  0  0  0  0  0  0  0  0  0
    3.3246    0.3587   29.3757 O   0  0  0  0  0  0  0  0  0  0  0  0
   -3.2944   -0.7458   26.6903 C   0  0  1  0  0  0  0  0  0  0  0  0
   -2.3223    0.2227   26.1907 O   0  0  0  0  0  0  0  0  0  0  0  0
    2.9601    6.8592   22.1977 C   0  0  0  0  0  0  0  0  0  0  0  0
    2.1036    5.7380   22.0601 O   0  0  0  0  0  0  0  0  0  0  0  0
    4.1113    3.8949   28.5880 C   0  0  1  0  0  0  0  0  0  0  0  0
    5.2837    3.1329   28.3041 O   0  0  0  0  0  0  0  0  0  0  0  0
   -4.7206   -0.2749   26.3062 C   0  0  0  0  0  0  0  0  0  0  0  0
   -5.1412    0.9200   27.0601 N   0  0  0  0  0  0  0  0  0  0  0  0
  1  2  1  6  0  0  0
  1  7  1  0  0  0  0
  1 30  1  0  0  0  0
  3  4  1  1  0  0  0
  3  9  1  0  0  0  0
  3 39  1  0  0  0  0
  5 10  1  0  0  0  0
  5 26  1  0  0  0  0
  5 32  1  1  0  0  0
  6 12  1  0  0  0  0
  6 36  1  0  0  0  0
  6 19  1  6  0  0  0
  7  8  1  1  0  0  0
  7 14  1  0  0  0  0
  9 16  1  0  0  0  0
 10 11  1  6  0  0  0
 10 18  1  0  0  0  0
 12 13  1  6  0  0  0
 12 20  1  0  0  0  0
 14 15  1  6  0  0  0
 14 22  1  0  0  0  0
 16 17  1  1  0  0  0
 16 24  1  0  0  0  0
 18 19  1  1  0  0  0
 18 25  1  0  0  0  0
 20 21  1  1  0  0  0
 20 27  1  0  0  0  0
 22 23  1  6  0  0  0
 22 29  1  0  0  0  0
 24  2  1  6  0  0  0
 24 31  1  0  0  0  0
 25 26  1  0  0  0  0
 25 33  1  6  0  0  0
 27 28  1  6  0  0  0
 27 35  1  0  0  0  0
 29 30  1  0  0  0  0
 29 37  1  6  0  0  0
 31 32  1  6  0  0  0
 31 39  1  0  0  0  0
 33 34  1  0  0  0  0
 35 36  1  0  0  0  0
 35 41  1  6  0  0  0
 37 38  1  0  0  0  0
 39 40  1  6  0  0  0
 41 42  1  0  0  0  0
M  END
>  <CHROM.1>
-120.92346677,91.99113580,34.34086349,53.16564717,-77.66665528,145.89621848
37.41418603,-39.26785580,170.02892811,-49.07246185,170.48201629,179.76141467
-167.62591667,69.31905124,-151.91560418,-56.30258573,-162.57636744,83.50831494
167.93247542,-49.45294079,74.96886907,-139.40721865,1.53007032,3.53345571
26.45919168,0.78214436,-0.78600019,-0.68178778

>  <Name>
1fyp_lig

>  <RI>
0

>  <Rbt.Current_Directory>
/home/itssahil/PROJECTS/Mol_Feturizer/New_Systems/rnas/1fyp

>  <Rbt.Executable>
rbdock ($Id: //depot/dev/client3/rdock/2013.1/src/exe/rbdock.cxx#4 $)

>  <Rbt.Library>
libRbt.so (2013.1, Build901 2013/11/27)

>  <Rbt.Parameter_File>
/export/apps/rDock/src/rDock_2013.1_src/data/scripts/dock_solv.prm

>  <Rbt.Receptor>
prm/pocket_docking_5.prm

>  <SCORE>
-30.1066

>  <SCORE.INTER>
-29.8883

>  <SCORE.INTER.CONST>
1

>  <SCORE.INTER.POLAR>
-8.69688

>  <SCORE.INTER.ROT>
14

>  <SCORE.INTER.SOLV>
29.3994

>  <SCORE.INTER.VDW>
-13.6691

>  <SCORE.INTER.norm>
-0.711627

>  <SCORE.INTRA>
-0.419722

>  <SCORE.INTRA.DIHEDRAL>
-17.4516

>  <SCORE.INTRA.DIHEDRAL.0>
48.7173

>  <SCORE.INTRA.POLAR>
1.01128

>  <SCORE.INTRA.POLAR.0>
-1.54691

>  <SCORE.INTRA.REPUL>
0

>  <SCORE.INTRA.REPUL.0>
0

>  <SCORE.INTRA.SOLV>
-2.42183

>  <SCORE.INTRA.SOLV.lig_0>
-64.052

>  <SCORE.INTRA.VDW>
6.07862

>  <SCORE.INTRA.VDW.0>
-7.0667

>  <SCORE.INTRA.norm>
-0.00999338

>  <SCORE.RESTR>
0.201401

>  <SCORE.RESTR.CAVITY>
0.201401

>  <SCORE.RESTR.norm>
0.00479526

>  <SCORE.SYSTEM>
0

>  <SCORE.SYSTEM.CONST>
0

>  <SCORE.SYSTEM.DIHEDRAL>
0

>  <SCORE.SYSTEM.SOLV>
0

>  <SCORE.SYSTEM.norm>
0

>  <SCORE.heavy>
42

>  <SCORE.norm>
-0.716825

>  <RMSD>
5.111

$$$$
1fyp_lig
 OpenBabel11021811393D
libRbt.so/2013.1/901 2013/11/27
 42 45  0  0  0  0  0  0  0  0999 V2000
    3.1848    7.2050   26.5494 C   0  0  2  0  0  0  0  0  0  0  0  0
    2.6896    5.8362   26.4912 O   0  0  0  0  0  0  0  0  0  0  0  0
    4.0807    4.3147   30.2317 C   0  0  2  0  0  0  0  0  0  0  0  0
    4.2313    3.6986   31.5629 N   0  0  0  0  0  0  0  0  0  0  0  0
    1.8379    2.1959   27.1495 C   0  0  1  0  0  0  0  0  0  0  0  0
   -2.4140    0.9517   27.1958 C   0  0  1  0  0  0  0  0  0  0  0  0
    3.4609    7.7750   25.1208 C   0  0  2  0  0  0  0  0  0  0  0  0
    2.2958    7.5813   24.2316 N   0  0  0  0  0  0  0  0  0  0  0  0
    2.9642    5.3767   30.2814 C   0  0  0  0  0  0  0  0  0  0  0  0
    0.6686    3.0937   26.7370 C   0  0  2  0  0  0  0  0  0  0  0  0
    0.2294    3.8532   27.8639 O   0  0  0  0  0  0  0  0  0  0  0  0
   -2.5758   -0.4193   27.9206 C   0  0  2  0  0  0  0  0  0  0  0  0
   -1.4014   -1.3061   27.7348 N   0  0  0  0  0  0  0  0  0  0  0  0
    4.7329    7.1199   24.4970 C   0  0  1  0  0  0  0  0  0  0  0  0
    5.0628    7.7603   23.2670 O   0  0  0  0  0  0  0  0  0  0  0  0
    2.7685    6.0883   28.9147 C   0  0  2  0  0  0  0  0  0  0  0  0
    1.6301    7.0207   29.0501 N   0  0  0  0  0  0  0  0  0  0  0  0
   -0.3838    2.0644   26.3159 C   0  0  2  0  0  0  0  0  0  0  0  0
   -1.1135    1.5396   27.4599 O   0  0  0  0  0  0  0  0  0  0  0  0
   -3.8956   -1.1265   27.4835 C   0  0  1  0  0  0  0  0  0  0  0  0
   -4.9952   -0.4466   28.0852 O   0  0  0  0  0  0  0  0  0  0  0  0
    5.9543    7.2155   25.4453 C   0  0  2  0  0  0  0  0  0  0  0  0
    7.0521    6.5210   24.8611 O   0  0  0  0  0  0  0  0  0  0  0  0
    2.5480    5.0816   27.7290 C   0  0  2  0  0  0  0  0  0  0  0  0
    0.4776    0.9669   25.6756 C   0  0  2  0  0  0  0  0  0  0  0  0
    1.7323    0.9852   26.3835 O   0  0  0  0  0  0  0  0  0  0  0  0
   -4.1229   -1.1528   25.9415 C   0  0  2  0  0  0  0  0  0  0  0  0
   -3.2223   -2.1003   25.3657 O   0  0  0  0  0  0  0  0  0  0  0  0
    5.6057    6.6162   26.8373 C   0  0  2  0  0  0  0  0  0  0  0  0
    4.4095    7.2728   27.3547 O   0  0  0  0  0  0  0  0  0  0  0  0
    3.5778    3.8943   27.7350 C   0  0  2  0  0  0  0  0  0  0  0  0
    3.0894    2.8686   26.8318 O   0  0  0  0  0  0  0  0  0  0  0  0
    0.7155    1.1880   24.1712 C   0  0  0  0  0  0  0  0  0  0  0  0
    0.9281   -0.0453   23.5069 O   0  0  0  0  0  0  0  0  0  0  0  0
   -3.8870    0.2600   25.3227 C   0  0  1  0  0  0  0  0  0  0  0  0
   -2.5873    0.7714   25.7492 O   0  0  0  0  0  0  0  0  0  0  0  0
    6.7036    6.7876   27.9107 C   0  0  0  0  0  0  0  0  0  0  0  0
    6.9046    8.1545   28.2280 O   0  0  0  0  0  0  0  0  0  0  0  0
    3.7637    3.2571   29.1470 C   0  0  1  0  0  0  0  0  0  0  0  0
    4.8319    2.3130   29.0877 O   0  0  0  0  0  0  0  0  0  0  0  0
   -3.9434    0.2513   23.7735 C   0  0  0  0  0  0  0  0  0  0  0  0
   -2.6797   -0.2043   23.1665 N   0  0  0  0  0  0  0  0  0  0  0  0
  1  2  1  6  0  0  0
  1  7  1  0  0  0  0
  1 30  1  0  0  0  0
  3  4  1  1  0  0  0
  3  9  1  0  0  0  0
  3 39  1  0  0  0  0
  5 10  1  0  0  0  0
  5 26  1  0  0  0  0
  5 32  1  6  0  0  0
  6 12  1  0  0  0  0
  6 36  1  0  0  0  0
  6 19  1  6  0  0  0
  7  8  1  6  0  0  0
  7 14  1  0  0  0  0
  9 16  1  0  0  0  0
 10 11  1  1  0  0  0
 10 18  1  0  0  0  0
 12 13  1  6  0  0  0
 12 20  1  0  0  0  0
 14 15  1  6  0  0  0
 14 22  1  0  0  0  0
 16 17  1  1  0  0  0
 16 24  1  0  0  0  0
 18 19  1  1  0  0  0
 18 25  1  0  0  0  0
 20 21  1  1  0  0  0
 20 27  1  0  0  0  0
 22 23  1  6  0  0  0
 22 29  1  0  0  0  0
 24  2  1  6  0  0  0
 24 31  1  0  0  0  0
 25 26  1  0  0  0  0
 25 33  1  6  0  0  0
 27 28  1  6  0  0  0
 27 35  1  0  0  0  0
 29 30  1  0  0  0  0
 29 37  1  1  0  0  0
 31 32  1  6  0  0  0
 31 39  1  0  0  0  0
 33 34  1  0  0  0  0
 35 36  1  0  0  0  0
 35 41  1  6  0  0  0
 37 38  1  0  0  0  0
 39 40  1  6  0  0  0
 41 42  1  0  0  0  0
M  END
>  <CHROM.1>
171.84066267,9.40602999,175.89453046,70.78419625,-62.74198519,84.78606222
64.70010137,-42.51620901,158.46340668,133.32922372,-59.13314192,-176.90610840
-152.48485582,-42.98688943,65.13509345,-64.21818393,79.81478746,68.09970774
-80.94102393,-58.59934976,70.89152953,54.98922458,1.47116512,3.34939223,26.76027689
0.09125668,-0.73784788,-1.30800693

>  <Name>
1fyp_lig

>  <RI>
0

>  <Rbt.Current_Directory>
/home/itssahil/PROJECTS/Mol_Feturizer/New_Systems/rnas/1fyp

>  <Rbt.Executable>
rbdock ($Id: //depot/dev/client3/rdock/2013.1/src/exe/rbdock.cxx#4 $)

>  <Rbt.Library>
libRbt.so (2013.1, Build901 2013/11/27)

>  <Rbt.Parameter_File>
/export/apps/rDock/src/rDock_2013.1_src/data/scripts/dock_solv.prm

>  <Rbt.Receptor>
prm/blind_docking_80.prm

>  <SCORE>
-42.2499

>  <SCORE.INTER>
-39.8911

>  <SCORE.INTER.CONST>
1

>  <SCORE.INTER.POLAR>
-4.73469

>  <SCORE.INTER.ROT>
14

>  <SCORE.INTER.SOLV>
17.1036

>  <SCORE.INTER.VDW>
-29.4463

>  <SCORE.INTER.norm>
-0.949788

>  <SCORE.INTRA>
-2.35883

>  <SCORE.INTRA.DIHEDRAL>
-23.2443

>  <SCORE.INTRA.DIHEDRAL.0>
48.7173

>  <SCORE.INTRA.POLAR>
0.424366

>  <SCORE.INTRA.POLAR.0>
-1.54691

>  <SCORE.INTRA.REPUL>
0

>  <SCORE.INTRA.REPUL.0>
0

>  <SCORE.INTRA.SOLV>
-0.038908

>  <SCORE.INTRA.SOLV.lig_0>
-64.052

>  <SCORE.INTRA.VDW>
7.83994

>  <SCORE.INTRA.VDW.0>
-7.0667

>  <SCORE.INTRA.norm>
-0.0561626

>  <SCORE.RESTR>
0

>  <SCORE.RESTR.CAVITY>
0

>  <SCORE.RESTR.norm>
0

>  <SCORE.SYSTEM>
0

>  <SCORE.SYSTEM.CONST>
0

>  <SCORE.SYSTEM.DIHEDRAL>
0

>  <SCORE.SYSTEM.SOLV>
0

>  <SCORE.SYSTEM.norm>
0

>  <SCORE.heavy>
42

>  <SCORE.norm>
-1.00595

>  <RMSD>
5.121

$$$$
1fyp_lig
 OpenBabel11021811393D
libRbt.so/2013.1/901 2013/11/27
 42 45  0  0  0  0  0  0  0  0999 V2000
    5.0852    6.1764   25.3150 C   0  0  2  0  0  0  0  0  0  0  0  0
    4.5113    6.7619   26.5192 O   0  0  0  0  0  0  0  0  0  0  0  0
    6.3266    3.8840   29.1006 C   0  0  2  0  0  0  0  0  0  0  0  0
    6.7794    3.0594   30.2361 N   0  0  0  0  0  0  0  0  0  0  0  0
    2.2674    3.1358   27.5009 C   0  0  1  0  0  0  0  0  0  0  0  0
   -1.1014    0.5414   27.2373 C   0  0  1  0  0  0  0  0  0  0  0  0
    6.3669    6.9456   24.8594 C   0  0  2  0  0  0  0  0  0  0  0  0
    7.3208    7.1077   25.9772 N   0  0  0  0  0  0  0  0  0  0  0  0
    6.6144    5.3691   29.3983 C   0  0  0  0  0  0  0  0  0  0  0  0
    0.8245    3.2672   27.0062 C   0  0  2  0  0  0  0  0  0  0  0  0
   -0.0608    3.3186   28.1256 O   0  0  0  0  0  0  0  0  0  0  0  0
   -1.3079   -0.8717   27.8632 C   0  0  2  0  0  0  0  0  0  0  0  0
   -0.4730   -1.9117   27.2140 N   0  0  0  0  0  0  0  0  0  0  0  0
    5.9960    8.3372   24.2579 C   0  0  1  0  0  0  0  0  0  0  0  0
    7.1535    8.9576   23.7036 O   0  0  0  0  0  0  0  0  0  0  0  0
    6.1862    6.2968   28.2285 C   0  0  2  0  0  0  0  0  0  0  0  0
    6.4291    7.6929   28.6474 N   0  0  0  0  0  0  0  0  0  0  0  0
    0.6450    1.9689   26.2145 C   0  0  2  0  0  0  0  0  0  0  0  0
    0.3082    0.8502   27.0815 O   0  0  0  0  0  0  0  0  0  0  0  0
   -2.8165   -1.2682   27.8545 C   0  0  1  0  0  0  0  0  0  0  0  0
   -3.4921   -0.5032   28.8504 O   0  0  0  0  0  0  0  0  0  0  0  0
    4.9220    8.2174   23.1477 C   0  0  2  0  0  0  0  0  0  0  0  0
    4.5609    9.5229   22.7072 O   0  0  0  0  0  0  0  0  0  0  0  0
    4.6923    6.0798   27.7933 C   0  0  2  0  0  0  0  0  0  0  0  0
    2.0368    1.7734   25.5972 C   0  0  2  0  0  0  0  0  0  0  0  0
    2.9710    2.3285   26.5433 O   0  0  0  0  0  0  0  0  0  0  0  0
   -3.5294   -1.0293   26.4890 C   0  0  2  0  0  0  0  0  0  0  0  0
   -3.0857   -2.0242   25.5648 O   0  0  0  0  0  0  0  0  0  0  0  0
    3.6758    7.4556   23.6816 C   0  0  2  0  0  0  0  0  0  0  0  0
    4.0990    6.1704   24.2285 O   0  0  0  0  0  0  0  0  0  0  0  0
    4.3175    4.5623   27.6287 C   0  0  2  0  0  0  0  0  0  0  0  0
    2.8713    4.4591   27.5632 O   0  0  0  0  0  0  0  0  0  0  0  0
    2.1932    2.4650   24.2313 C   0  0  0  0  0  0  0  0  0  0  0  0
    2.2796    3.8710   24.3840 O   0  0  0  0  0  0  0  0  0  0  0  0
   -3.2114    0.3961   25.9399 C   0  0  1  0  0  0  0  0  0  0  0  0
   -1.7664    0.6069   25.9301 O   0  0  0  0  0  0  0  0  0  0  0  0
    2.5975    7.1502   22.6181 C   0  0  0  0  0  0  0  0  0  0  0  0
    1.4427    6.5755   23.2061 O   0  0  0  0  0  0  0  0  0  0  0  0
    4.8197    3.6794   28.8131 C   0  0  1  0  0  0  0  0  0  0  0  0
    4.5859    2.3083   28.4949 O   0  0  0  0  0  0  0  0  0  0  0  0
   -3.7653    0.6235   24.5100 C   0  0  0  0  0  0  0  0  0  0  0  0
   -3.5333    1.9971   24.0280 N   0  0  0  0  0  0  0  0  0  0  0  0
  1  2  1  1  0  0  0
  1  7  1  0  0  0  0
  1 30  1  0  0  0  0
  3  4  1  1  0  0  0
  3  9  1  0  0  0  0
  3 39  1  0  0  0  0
  5 10  1  0  0  0  0
  5 26  1  0  0  0  0
  5 32  1  6  0  0  0
  6 12  1  0  0  0  0
  6 36  1  0  0  0  0
  6 19  1  6  0  0  0
  7  8  1  1  0  0  0
  7 14  1  0  0  0  0
  9 16  1  0  0  0  0
 10 11  1  1  0  0  0
 10 18  1  0  0  0  0
 12 13  1  6  0  0  0
 12 20  1  0  0  0  0
 14 15  1  6  0  0  0
 14 22  1  0  0  0  0
 16 17  1  1  0  0  0
 16 24  1  0  0  0  0
 18 19  1  1  0  0  0
 18 25  1  0  0  0  0
 20 21  1  1  0  0  0
 20 27  1  0  0  0  0
 22 23  1  1  0  0  0
 22 29  1  0  0  0  0
 24  2  1  6  0  0  0
 24 31  1  0  0  0  0
 25 26  1  0  0  0  0
 25 33  1  6  0  0  0
 27 28  1  6  0  0  0
 27 35  1  0  0  0  0
 29 30  1  0  0  0  0
 29 37  1  6  0  0  0
 31 32  1  1  0  0  0
 31 39  1  0  0  0  0
 33 34  1  0  0  0  0
 35 36  1  0  0  0  0
 35 41  1  6  0  0  0
 37 38  1  0  0  0  0
 39 40  1  6  0  0  0
 41 42  1  0  0  0  0
M  END
>  <CHROM.1>
-104.64587667,73.73662541,-144.81978493,142.43106869,-64.39696013,170.41084973
-165.11174357,65.42218456,94.90990987,164.91494365,177.20001322,-59.04276341
72.80192799,175.93211129,-174.21052810,-175.89995913,-162.49413939,63.46544996
176.55071443,53.30988976,-57.04730197,42.38942309,2.29145761,3.73190908,26.27516037
0.53582613,-0.55492319,-0.85289801

>  <Name>
1fyp_lig

>  <RI>
0

>  <Rbt.Current_Directory>
/home/itssahil/PROJECTS/Mol_Feturizer/New_Systems/rnas/1fyp

>  <Rbt.Executable>
rbdock ($Id: //depot/dev/client3/rdock/2013.1/src/exe/rbdock.cxx#4 $)

>  <Rbt.Library>
libRbt.so (2013.1, Build901 2013/11/27)

>  <Rbt.Parameter_File>
/export/apps/rDock/src/rDock_2013.1_src/data/scripts/dock_solv.prm

>  <Rbt.Receptor>
prm/pocket_docking_2.prm

>  <SCORE>
-22.835

>  <SCORE.INTER>
-20.998

>  <SCORE.INTER.CONST>
1

>  <SCORE.INTER.POLAR>
-1.25111

>  <SCORE.INTER.ROT>
14

>  <SCORE.INTER.SOLV>
19.3204

>  <SCORE.INTER.VDW>
-29.2018

>  <SCORE.INTER.norm>
-0.499952

>  <SCORE.INTRA>
-4.09297

>  <SCORE.INTRA.DIHEDRAL>
-28.1422

>  <SCORE.INTRA.DIHEDRAL.0>
48.7173

>  <SCORE.INTRA.POLAR>
1.2838

>  <SCORE.INTRA.POLAR.0>
-1.54691

>  <SCORE.INTRA.REPUL>
0.0125903

>  <SCORE.INTRA.REPUL.0>
0

>  <SCORE.INTRA.SOLV>
0.54656

>  <SCORE.INTRA.SOLV.lig_0>
-64.052

>  <SCORE.INTRA.VDW>
5.27695

>  <SCORE.INTRA.VDW.0>
-7.0667

>  <SCORE.INTRA.norm>
-0.0974517

>  <SCORE.RESTR>
2.25596

>  <SCORE.RESTR.CAVITY>
2.25596

>  <SCORE.RESTR.norm>
0.0537132

>  <SCORE.SYSTEM>
0

>  <SCORE.SYSTEM.CONST>
0

>  <SCORE.SYSTEM.DIHEDRAL>
0

>  <SCORE.SYSTEM.SOLV>
0

>  <SCORE.SYSTEM.norm>
0

>  <SCORE.heavy>
42

>  <SCORE.norm>
-0.543691

>  <RMSD>
5.153

$$$$
1fyp_lig
 OpenBabel11021811393D
libRbt.so/2013.1/901 2013/11/27
 42 45  0  0  0  0  0  0  0  0999 V2000
    3.6230    7.6045   25.9005 C   0  0  2  0  0  0  0  0  0  0  0  0
    3.7796    6.1716   26.1120 O   0  0  0  0  0  0  0  0  0  0  0  0
    6.0705    3.5732   28.6102 C   0  0  2  0  0  0  0  0  0  0  0  0
    6.7768    2.9028   29.7176 N   0  0  0  0  0  0  0  0  0  0  0  0
    1.4399    3.3776   27.3211 C   0  0  1  0  0  0  0  0  0  0  0  0
   -1.3778    0.2189   26.3179 C   0  0  1  0  0  0  0  0  0  0  0  0
    2.4858    7.9105   24.8733 C   0  0  2  0  0  0  0  0  0  0  0  0
    1.2374    7.2028   25.2286 N   0  0  0  0  0  0  0  0  0  0  0  0
    6.5282    5.0430   28.5252 C   0  0  0  0  0  0  0  0  0  0  0  0
    1.6198    1.9697   27.8948 C   0  0  2  0  0  0  0  0  0  0  0  0
    2.5158    1.2278   27.0663 O   0  0  0  0  0  0  0  0  0  0  0  0
   -1.5097   -0.9898   27.2941 C   0  0  2  0  0  0  0  0  0  0  0  0
   -0.3005   -1.8489   27.3065 N   0  0  0  0  0  0  0  0  0  0  0  0
    2.9285    7.5335   23.4249 C   0  0  1  0  0  0  0  0  0  0  0  0
    1.9483    7.9633   22.4835 O   0  0  0  0  0  0  0  0  0  0  0  0
    5.8423    5.8057   27.3589 C   0  0  2  0  0  0  0  0  0  0  0  0
    6.2861    7.2140   27.4176 N   0  0  0  0  0  0  0  0  0  0  0  0
    0.1959    1.4130   27.8118 C   0  0  2  0  0  0  0  0  0  0  0  0
   -0.1058    0.8977   26.4852 O   0  0  0  0  0  0  0  0  0  0  0  0
   -2.7923   -1.8201   26.9802 C   0  0  1  0  0  0  0  0  0  0  0  0
   -3.9300   -1.0797   27.4174 O   0  0  0  0  0  0  0  0  0  0  0  0
    4.2867    8.1785   23.0511 C   0  0  2  0  0  0  0  0  0  0  0  0
    4.6782    7.7228   21.7596 O   0  0  0  0  0  0  0  0  0  0  0  0
    4.2755    5.6958   27.3962 C   0  0  2  0  0  0  0  0  0  0  0  0
   -0.6535    2.6553   28.1144 C   0  0  2  0  0  0  0  0  0  0  0  0
    0.0879    3.7772   27.5971 O   0  0  0  0  0  0  0  0  0  0  0  0
   -2.9796   -2.1553   25.4694 C   0  0  2  0  0  0  0  0  0  0  0  0
   -2.0319   -3.1607   25.1064 O   0  0  0  0  0  0  0  0  0  0  0  0
    5.3664    7.8163   24.1099 C   0  0  2  0  0  0  0  0  0  0  0  0
    4.8832    8.1940   25.4342 O   0  0  0  0  0  0  0  0  0  0  0  0
    3.7710    4.2268   27.6365 C   0  0  2  0  0  0  0  0  0  0  0  0
    2.3639    4.2845   27.9873 O   0  0  0  0  0  0  0  0  0  0  0  0
   -0.9257    2.8485   29.6168 C   0  0  0  0  0  0  0  0  0  0  0  0
    0.2795    3.0909   30.3213 O   0  0  0  0  0  0  0  0  0  0  0  0
   -2.7778   -0.8821   24.5904 C   0  0  1  0  0  0  0  0  0  0  0  0
   -1.5080   -0.2466   24.9317 O   0  0  0  0  0  0  0  0  0  0  0  0
    6.7266    8.5233   23.9173 C   0  0  0  0  0  0  0  0  0  0  0  0
    6.5560    9.9066   23.6591 O   0  0  0  0  0  0  0  0  0  0  0  0
    4.5347    3.5016   28.7878 C   0  0  1  0  0  0  0  0  0  0  0  0
    4.1302    2.1337   28.8168 O   0  0  0  0  0  0  0  0  0  0  0  0
   -2.7946   -1.1948   23.0721 C   0  0  0  0  0  0  0  0  0  0  0  0
   -3.0875   -0.0034   22.2550 N   0  0  0  0  0  0  0  0  0  0  0  0
  1  2  1  6  0  0  0
  1  7  1  0  0  0  0
  1 30  1  0  0  0  0
  3  4  1  1  0  0  0
  3  9  1  0  0  0  0
  3 39  1  0  0  0  0
  5 10  1  0  0  0  0
  5 26  1  0  0  0  0
  5 32  1  1  0  0  0
  6 12  1  0  0  0  0
  6 36  1  0  0  0  0
  6 19  1  6  0  0  0
  7  8  1  1  0  0  0
  7 14  1  0  0  0  0
  9 16  1  0  0  0  0
 10 11  1  6  0  0  0
 10 18  1  0  0  0  0
 12 13  1  6  0  0  0
 12 20  1  0  0  0  0
 14 15  1  6  0  0  0
 14 22  1  0  0  0  0
 16 17  1  1  0  0  0
 16 24  1  0  0  0  0
 18 19  1  6  0  0  0
 18 25  1  0  0  0  0
 20 21  1  6  0  0  0
 20 27  1  0  0  0  0
 22 23  1  6  0  0  0
 22 29  1  0  0  0  0
 24  2  1  6  0  0  0
 24 31  1  0  0  0  0
 25 26  1  0  0  0  0
 25 33  1  1  0  0  0
 27 28  1  6  0  0  0
 27 35  1  0  0  0  0
 29 30  1  0  0  0  0
 29 37  1  6  0  0  0
 31 32  1  1  0  0  0
 31 39  1  0  0  0  0
 33 34  1  0  0  0  0
 35 36  1  0  0  0  0
 35 41  1  6  0  0  0
 37 38  1  0  0  0  0
 39 40  1  6  0  0  0
 41 42  1  0  0  0  0
M  END
>  <CHROM.1>
-151.29543957,-82.51131450,-161.75321528,-30.73664780,177.12921412,-153.94279845
-54.03944645,55.48622728,173.87669180,-57.70050033,-167.96865205,-169.09257525
64.22066489,-66.55904392,45.99896603,132.80887063,74.84693199,-65.90104067
159.52662942,54.81115349,64.60117056,98.31193813,1.86961602,3.50118111,26.29632081
0.57424546,-0.69254643,-0.88499773

>  <Name>
1fyp_lig

>  <RI>
0

>  <Rbt.Current_Directory>
/home/itssahil/PROJECTS/Mol_Feturizer/New_Systems/rnas/1fyp

>  <Rbt.Executable>
rbdock ($Id: //depot/dev/client3/rdock/2013.1/src/exe/rbdock.cxx#4 $)

>  <Rbt.Library>
libRbt.so (2013.1, Build901 2013/11/27)

>  <Rbt.Parameter_File>
/export/apps/rDock/src/rDock_2013.1_src/data/scripts/dock_solv.prm

>  <Rbt.Receptor>
prm/blind_docking_100.prm

>  <SCORE>
-50.3136

>  <SCORE.INTER>
-42.6115

>  <SCORE.INTER.CONST>
1

>  <SCORE.INTER.POLAR>
-5.62163

>  <SCORE.INTER.ROT>
14

>  <SCORE.INTER.SOLV>
19.3792

>  <SCORE.INTER.VDW>
-29.062

>  <SCORE.INTER.norm>
-1.01456

>  <SCORE.INTRA>
-7.71701

>  <SCORE.INTRA.DIHEDRAL>
-26.5325

>  <SCORE.INTRA.DIHEDRAL.0>
48.7173

>  <SCORE.INTRA.POLAR>
0.460353

>  <SCORE.INTRA.POLAR.0>
-1.54691

>  <SCORE.INTRA.REPUL>
0

>  <SCORE.INTRA.REPUL.0>
0

>  <SCORE.INTRA.SOLV>
-0.375391

>  <SCORE.INTRA.SOLV.lig_0>
-64.052

>  <SCORE.INTRA.VDW>
4.17172

>  <SCORE.INTRA.VDW.0>
-7.0667

>  <SCORE.INTRA.norm>
-0.183738

>  <SCORE.RESTR>
0.0149313

>  <SCORE.RESTR.CAVITY>
0.0149313

>  <SCORE.RESTR.norm>
0.000355507

>  <SCORE.SYSTEM>
0

>  <SCORE.SYSTEM.CONST>
0

>  <SCORE.SYSTEM.DIHEDRAL>
0

>  <SCORE.SYSTEM.SOLV>
0

>  <SCORE.SYSTEM.norm>
0

>  <SCORE.heavy>
42

>  <SCORE.norm>
-1.19794

>  <RMSD>
5.170

$$$$
1fyp_lig
 OpenBabel11021811393D
libRbt.so/2013.1/901 2013/11/27
 42 45  0  0  0  0  0  0  0  0999 V2000
    2.7313    7.0114   25.5892 C   0  0  2  0  0  0  0  0  0  0  0  0
    2.6889    5.5763   25.8363 O   0  0  0  0  0  0  0  0  0  0  0  0
    2.9612    4.5986   29.9849 C   0  0  2  0  0  0  0  0  0  0  0  0
    2.7140    4.2256   31.3899 N   0  0  0  0  0  0  0  0  0  0  0  0
    1.1240    2.7455   26.1629 C   0  0  1  0  0  0  0  0  0  0  0  0
   -2.0419    1.0399   23.9783 C   0  0  1  0  0  0  0  0  0  0  0  0
    3.0051    7.3250   24.0829 C   0  0  2  0  0  0  0  0  0  0  0  0
    2.0812    6.5780   23.2031 N   0  0  0  0  0  0  0  0  0  0  0  0
    2.0655    5.7951   29.6066 C   0  0  0  0  0  0  0  0  0  0  0  0
    0.6726    1.3243   25.8162 C   0  0  2  0  0  0  0  0  0  0  0  0
    0.9206    1.0689   24.4332 O   0  0  0  0  0  0  0  0  0  0  0  0
   -3.5945    1.0880   23.8430 C   0  0  2  0  0  0  0  0  0  0  0  0
   -4.2844    1.0325   25.1550 N   0  0  0  0  0  0  0  0  0  0  0  0
    4.4863    7.0055   23.7087 C   0  0  1  0  0  0  0  0  0  0  0  0
    4.7634    7.4435   22.3809 O   0  0  0  0  0  0  0  0  0  0  0  0
    2.2939    6.2606   28.1425 C   0  0  2  0  0  0  0  0  0  0  0  0
    1.3360    7.3499   27.8605 N   0  0  0  0  0  0  0  0  0  0  0  0
   -0.8289    1.3920   26.1086 C   0  0  2  0  0  0  0  0  0  0  0  0
   -1.5705    1.9626   24.9946 O   0  0  0  0  0  0  0  0  0  0  0  0
   -4.1039   -0.0337   22.8863 C   0  0  1  0  0  0  0  0  0  0  0  0
   -3.7712    0.3267   21.5473 O   0  0  0  0  0  0  0  0  0  0  0  0
    5.4854    7.6929   24.6728 C   0  0  2  0  0  0  0  0  0  0  0  0
    6.8091    7.2886   24.3367 O   0  0  0  0  0  0  0  0  0  0  0  0
    2.1561    5.0915   27.1022 C   0  0  2  0  0  0  0  0  0  0  0  0
   -0.8780    2.3271   27.3251 C   0  0  2  0  0  0  0  0  0  0  0  0
    0.2227    3.2429   27.1650 O   0  0  0  0  0  0  0  0  0  0  0  0
   -3.4999   -1.4410   23.1770 C   0  0  2  0  0  0  0  0  0  0  0  0
   -4.0938   -1.9523   24.3714 O   0  0  0  0  0  0  0  0  0  0  0  0
    5.1570    7.3209   26.1466 C   0  0  2  0  0  0  0  0  0  0  0  0
    3.7607    7.6441   26.4216 O   0  0  0  0  0  0  0  0  0  0  0  0
    2.9345    3.7955   27.5318 C   0  0  2  0  0  0  0  0  0  0  0  0
    2.4759    2.6973   26.7012 O   0  0  0  0  0  0  0  0  0  0  0  0
   -0.7542    1.5803   28.6651 C   0  0  0  0  0  0  0  0  0  0  0  0
   -1.1781    2.3994   29.7408 O   0  0  0  0  0  0  0  0  0  0  0  0
   -1.9504   -1.3560   23.3394 C   0  0  1  0  0  0  0  0  0  0  0  0
   -1.6156   -0.3237   24.3165 O   0  0  0  0  0  0  0  0  0  0  0  0
    6.0001    8.0643   27.2066 C   0  0  0  0  0  0  0  0  0  0  0  0
    7.3649    8.1260   26.8284 O   0  0  0  0  0  0  0  0  0  0  0  0
    2.7003    3.4121   29.0260 C   0  0  1  0  0  0  0  0  0  0  0  0
    3.5724    2.3352   29.3659 O   0  0  0  0  0  0  0  0  0  0  0  0
   -1.3215   -2.6999   23.7881 C   0  0  0  0  0  0  0  0  0  0  0  0
   -0.0072   -2.9422   23.1660 N   0  0  0  0  0  0  0  0  0  0  0  0
  1  2  1  6  0  0  0
  1  7  1  0  0  0  0
  1 30  1  0  0  0  0
  3  4  1  1  0  0  0
  3  9  1  0  0  0  0
  3 39  1  0  0  0  0
  5 10  1  0  0  0  0
  5 26  1  0  0  0  0
  5 32  1  1  0  0  0
  6 12  1  0  0  0  0
  6 36  1  0  0  0  0
  6 19  1  1  0  0  0
  7  8  1  6  0  0  0
  7 14  1  0  0  0  0
  9 16  1  0  0  0  0
 10 11  1  6  0  0  0
 10 18  1  0  0  0  0
 12 13  1  1  0  0  0
 12 20  1  0  0  0  0
 14 15  1  6  0  0  0
 14 22  1  0  0  0  0
 16 17  1  6  0  0  0
 16 24  1  0  0  0  0
 18 19  1  6  0  0  0
 18 25  1  0  0  0  0
 20 21  1  6  0  0  0
 20 27  1  0  0  0  0
 22 23  1  6  0  0  0
 22 29  1  0  0  0  0
 24  2  1  6  0  0  0
 24 31  1  0  0  0  0
 25 26  1  0  0  0  0
 25 33  1  1  0  0  0
 27 28  1  1  0  0  0
 27 35  1  0  0  0  0
 29 30  1  0  0  0  0
 29 37  1  1  0  0  0
 31 32  1  6  0  0  0
 31 39  1  0  0  0  0
 33 34  1  0  0  0  0
 35 36  1  0  0  0  0
 35 41  1  1  0  0  0
 37 38  1  0  0  0  0
 39 40  1  1  0  0  0
 41 42  1  0  0  0  0
M  END
>  <CHROM.1>
-166.45386428,-23.26072168,27.00549727,-140.94629845,-62.46833410,75.58841726
63.10288008,-79.99874079,89.22323761,120.47887255,-175.63534470,-53.84227650
-163.35747171,-43.73058377,-42.93451610,-27.80161571,-157.93453374,70.44967467
143.47318665,-176.21356038,-54.67721807,-156.65654054,1.13053738,3.40881943
25.87663114,-0.17181079,-0.81631934,-1.50471419

>  <Name>
1fyp_lig

>  <RI>
0

>  <Rbt.Current_Directory>
/home/itssahil/PROJECTS/Mol_Feturizer/New_Systems/rnas/1fyp

>  <Rbt.Executable>
rbdock ($Id: //depot/dev/client3/rdock/2013.1/src/exe/rbdock.cxx#4 $)

>  <Rbt.Library>
libRbt.so (2013.1, Build901 2013/11/27)

>  <Rbt.Parameter_File>
/export/apps/rDock/src/rDock_2013.1_src/data/scripts/dock_solv.prm

>  <Rbt.Receptor>
prm/pocket_docking_8.prm

>  <SCORE>
-42.778

>  <SCORE.INTER>
-48.4486

>  <SCORE.INTER.CONST>
1

>  <SCORE.INTER.POLAR>
-6.3979

>  <SCORE.INTER.ROT>
14

>  <SCORE.INTER.SOLV>
19.4583

>  <SCORE.INTER.VDW>
-30.3922

>  <SCORE.INTER.norm>
-1.15354

>  <SCORE.INTRA>
5.67055

>  <SCORE.INTRA.DIHEDRAL>
-12.9801

>  <SCORE.INTRA.DIHEDRAL.0>
48.7173

>  <SCORE.INTRA.POLAR>
0.766938

>  <SCORE.INTRA.POLAR.0>
-1.54691

>  <SCORE.INTRA.REPUL>
0

>  <SCORE.INTRA.REPUL.0>
0

>  <SCORE.INTRA.SOLV>
-2.07326

>  <SCORE.INTRA.SOLV.lig_0>
-64.052

>  <SCORE.INTRA.VDW>
10.5897

>  <SCORE.INTRA.VDW.0>
-7.0667

>  <SCORE.INTRA.norm>
0.135013

>  <SCORE.RESTR>
0

>  <SCORE.RESTR.CAVITY>
0

>  <SCORE.RESTR.norm>
0

>  <SCORE.SYSTEM>
0

>  <SCORE.SYSTEM.CONST>
0

>  <SCORE.SYSTEM.DIHEDRAL>
0

>  <SCORE.SYSTEM.SOLV>
0

>  <SCORE.SYSTEM.norm>
0

>  <SCORE.heavy>
42

>  <SCORE.norm>
-1.01852

>  <RMSD>
5.186

$$$$
1fyp_lig
 OpenBabel11021811393D
libRbt.so/2013.1/901 2013/11/27
 42 45  0  0  0  0  0  0  0  0999 V2000
    2.8194    7.7001   24.9657 C   0  0  2  0  0  0  0  0  0  0  0  0
    4.1009    7.0887   25.2922 O   0  0  0  0  0  0  0  0  0  0  0  0
    6.1484    4.5245   28.0258 C   0  0  2  0  0  0  0  0  0  0  0  0
    6.5414    3.5999   29.1052 N   0  0  0  0  0  0  0  0  0  0  0  0
    2.5539    3.7896   25.5485 C   0  0  1  0  0  0  0  0  0  0  0  0
   -1.1575    1.4567   26.0773 C   0  0  1  0  0  0  0  0  0  0  0  0
    2.3119    7.2488   23.5583 C   0  0  2  0  0  0  0  0  0  0  0  0
    2.3412    5.7767   23.4244 N   0  0  0  0  0  0  0  0  0  0  0  0
    5.3874    5.7223   28.6283 C   0  0  0  0  0  0  0  0  0  0  0  0
    2.0759    2.4472   24.9888 C   0  0  2  0  0  0  0  0  0  0  0  0
    1.2344    2.6743   23.8575 O   0  0  0  0  0  0  0  0  0  0  0  0
   -1.0940    0.3647   27.1885 C   0  0  2  0  0  0  0  0  0  0  0  0
    0.2666   -0.2019   27.3557 N   0  0  0  0  0  0  0  0  0  0  0  0
    3.1542    7.9125   22.4243 C   0  0  1  0  0  0  0  0  0  0  0  0
    2.5828    7.6195   21.1517 O   0  0  0  0  0  0  0  0  0  0  0  0
    4.9651    6.7543   27.5470 C   0  0  2  0  0  0  0  0  0  0  0  0
    4.1787    7.8120   28.2152 N   0  0  0  0  0  0  0  0  0  0  0  0
    1.2808    1.8809   26.1685 C   0  0  2  0  0  0  0  0  0  0  0  0
   -0.0729    2.4119   26.2115 O   0  0  0  0  0  0  0  0  0  0  0  0
   -2.1470   -0.7559   26.9271 C   0  0  1  0  0  0  0  0  0  0  0  0
   -3.4426   -0.2387   27.2231 O   0  0  0  0  0  0  0  0  0  0  0  0
    3.2296    9.4513   22.5879 C   0  0  2  0  0  0  0  0  0  0  0  0
    4.0847    9.9846   21.5813 O   0  0  0  0  0  0  0  0  0  0  0  0
    4.1627    6.1038   26.3634 C   0  0  2  0  0  0  0  0  0  0  0  0
    2.0938    2.3771   27.3723 C   0  0  2  0  0  0  0  0  0  0  0  0
    2.6616    3.6397   26.9732 O   0  0  0  0  0  0  0  0  0  0  0  0
   -2.1579   -1.2898   25.4626 C   0  0  2  0  0  0  0  0  0  0  0  0
   -0.9963   -2.0973   25.2648 O   0  0  0  0  0  0  0  0  0  0  0  0
    3.7558    9.8189   24.0043 C   0  0  2  0  0  0  0  0  0  0  0  0
    2.9244    9.1630   25.0084 O   0  0  0  0  0  0  0  0  0  0  0  0
    4.8305    4.7880   25.8221 C   0  0  2  0  0  0  0  0  0  0  0  0
    3.8617    4.0999   24.9888 O   0  0  0  0  0  0  0  0  0  0  0  0
    3.2102    1.4030   27.7889 C   0  0  0  0  0  0  0  0  0  0  0  0
    2.7200    0.4312   28.6961 O   0  0  0  0  0  0  0  0  0  0  0  0
   -2.1735   -0.1092   24.4426 C   0  0  1  0  0  0  0  0  0  0  0  0
   -1.0934    0.8228   24.7547 O   0  0  0  0  0  0  0  0  0  0  0  0
    3.7366   11.3287   24.3318 C   0  0  0  0  0  0  0  0  0  0  0  0
    3.2798   11.5632   25.6531 O   0  0  0  0  0  0  0  0  0  0  0  0
    5.2754    3.8184   26.9606 C   0  0  1  0  0  0  0  0  0  0  0  0
    6.0171    2.7439   26.3850 O   0  0  0  0  0  0  0  0  0  0  0  0
   -2.0226   -0.5848   22.9749 C   0  0  0  0  0  0  0  0  0  0  0  0
   -0.7442   -1.2790   22.7365 N   0  0  0  0  0  0  0  0  0  0  0  0
  1  2  1  6  0  0  0
  1  7  1  0  0  0  0
  1 30  1  0  0  0  0
  3  4  1  1  0  0  0
  3  9  1  0  0  0  0
  3 39  1  0  0  0  0
  5 10  1  0  0  0  0
  5 26  1  0  0  0  0
  5 32  1  6  0  0  0
  6 12  1  0  0  0  0
  6 36  1  0  0  0  0
  6 19  1  1  0  0  0
  7  8  1  1  0  0  0
  7 14  1  0  0  0  0
  9 16  1  0  0  0  0
 10 11  1  6  0  0  0
 10 18  1  0  0  0  0
 12 13  1  6  0  0  0
 12 20  1  0  0  0  0
 14 15  1  6  0  0  0
 14 22  1  0  0  0  0
 16 17  1  1  0  0  0
 16 24  1  0  0  0  0
 18 19  1  1  0  0  0
 18 25  1  0  0  0  0
 20 21  1  6  0  0  0
 20 27  1  0  0  0  0
 22 23  1  6  0  0  0
 22 29  1  0  0  0  0
 24  2  1  6  0  0  0
 24 31  1  0  0  0  0
 25 26  1  0  0  0  0
 25 33  1  6  0  0  0
 27 28  1  6  0  0  0
 27 35  1  0  0  0  0
 29 30  1  0  0  0  0
 29 37  1  1  0  0  0
 31 32  1  6  0  0  0
 31 39  1  0  0  0  0
 33 34  1  0  0  0  0
 35 36  1  0  0  0  0
 35 41  1  6  0  0  0
 37 38  1  0  0  0  0
 39 40  1  6  0  0  0
 41 42  1  0  0  0  0
M  END
>  <CHROM.1>
-111.86257647,-111.10170856,104.63579903,-157.95379605,162.40381839,166.34025699
8.56737710,-169.90282846,118.27848518,58.21859257,67.03118817,-57.32325648
-87.17056322,75.80154981,137.80722286,-54.43999825,-144.75890622,174.65302136
-61.51628757,75.76172761,55.88945451,54.32441839,2.16034039,4.07158113,25.55912266
0.89977782,-0.69456565,-0.59432155

>  <Name>
1fyp_lig

>  <RI>
0

>  <Rbt.Current_Directory>
/home/itssahil/PROJECTS/Mol_Feturizer/New_Systems/rnas/1fyp

>  <Rbt.Executable>
rbdock ($Id: //depot/dev/client3/rdock/2013.1/src/exe/rbdock.cxx#4 $)

>  <Rbt.Library>
libRbt.so (2013.1, Build901 2013/11/27)

>  <Rbt.Parameter_File>
/export/apps/rDock/src/rDock_2013.1_src/data/scripts/dock_solv.prm

>  <Rbt.Receptor>
prm/pocket_docking_7.prm

>  <SCORE>
-18.8066

>  <SCORE.INTER>
-24.7356

>  <SCORE.INTER.CONST>
1

>  <SCORE.INTER.POLAR>
-7.18875

>  <SCORE.INTER.ROT>
14

>  <SCORE.INTER.SOLV>
23.8322

>  <SCORE.INTER.VDW>
-13.4053

>  <SCORE.INTER.norm>
-0.588942

>  <SCORE.INTRA>
5.52317

>  <SCORE.INTRA.DIHEDRAL>
-2.36751

>  <SCORE.INTRA.DIHEDRAL.0>
48.7173

>  <SCORE.INTRA.POLAR>
0.119846

>  <SCORE.INTRA.POLAR.0>
-1.54691

>  <SCORE.INTRA.REPUL>
0.138246

>  <SCORE.INTRA.REPUL.0>
0

>  <SCORE.INTRA.SOLV>
1.75908

>  <SCORE.INTRA.SOLV.lig_0>
-64.052

>  <SCORE.INTRA.VDW>
4.72867

>  <SCORE.INTRA.VDW.0>
-7.0667

>  <SCORE.INTRA.norm>
0.131504

>  <SCORE.RESTR>
0.405734

>  <SCORE.RESTR.CAVITY>
0.405734

>  <SCORE.RESTR.norm>
0.00966032

>  <SCORE.SYSTEM>
0

>  <SCORE.SYSTEM.CONST>
0

>  <SCORE.SYSTEM.DIHEDRAL>
0

>  <SCORE.SYSTEM.SOLV>
0

>  <SCORE.SYSTEM.norm>
0

>  <SCORE.heavy>
42

>  <SCORE.norm>
-0.447777

>  <RMSD>
5.190

$$$$
1fyp_lig
 OpenBabel11021811393D
libRbt.so/2013.1/901 2013/11/27
 42 45  0  0  0  0  0  0  0  0999 V2000
    3.3231    7.1516   24.9812 C   0  0  2  0  0  0  0  0  0  0  0  0
    3.5800    5.7177   24.9981 O   0  0  0  0  0  0  0  0  0  0  0  0
    5.7461    4.1579   28.3322 C   0  0  2  0  0  0  0  0  0  0  0  0
    6.1792    3.5752   29.6157 N   0  0  0  0  0  0  0  0  0  0  0  0
    2.5988    2.1383   26.1709 C   0  0  1  0  0  0  0  0  0  0  0  0
   -1.4967    1.1735   27.6228 C   0  0  1  0  0  0  0  0  0  0  0  0
    2.6023    7.5884   23.6652 C   0  0  2  0  0  0  0  0  0  0  0  0
    1.4143    6.7492   23.4005 N   0  0  0  0  0  0  0  0  0  0  0  0
    4.8209    5.3614   28.6016 C   0  0  0  0  0  0  0  0  0  0  0  0
    1.3573    3.0220   26.0246 C   0  0  2  0  0  0  0  0  0  0  0  0
    1.2673    3.9072   27.1416 O   0  0  0  0  0  0  0  0  0  0  0  0
   -1.5496   -0.2600   28.2340 C   0  0  2  0  0  0  0  0  0  0  0  0
   -0.6635   -1.2161   27.5261 N   0  0  0  0  0  0  0  0  0  0  0  0
    3.5822    7.5382   22.4514 C   0  0  1  0  0  0  0  0  0  0  0  0
    2.9591    8.0883   21.2934 O   0  0  0  0  0  0  0  0  0  0  0  0
    4.3465    6.0435   27.2893 C   0  0  2  0  0  0  0  0  0  0  0  0
    3.4083    7.1247   27.6560 N   0  0  0  0  0  0  0  0  0  0  0  0
    0.2305    1.9855   26.0444 C   0  0  2  0  0  0  0  0  0  0  0  0
   -0.1285    1.6043   27.4018 O   0  0  0  0  0  0  0  0  0  0  0  0
   -3.0173   -0.7846   28.2942 C   0  0  1  0  0  0  0  0  0  0  0  0
   -3.7036   -0.0933   29.3356 O   0  0  0  0  0  0  0  0  0  0  0  0
    4.8863    8.3265   22.7306 C   0  0  2  0  0  0  0  0  0  0  0  0
    5.7728    8.1647   21.6276 O   0  0  0  0  0  0  0  0  0  0  0  0
    3.6920    5.0338   26.2792 C   0  0  2  0  0  0  0  0  0  0  0  0
    0.8681    0.8026   25.3024 C   0  0  2  0  0  0  0  0  0  0  0  0
    2.2757    0.8579   25.6051 O   0  0  0  0  0  0  0  0  0  0  0  0
   -3.8172   -0.5906   26.9704 C   0  0  2  0  0  0  0  0  0  0  0  0
   -3.3385   -1.5318   26.0083 O   0  0  0  0  0  0  0  0  0  0  0  0
    5.5501    7.8249   24.0444 C   0  0  2  0  0  0  0  0  0  0  0  0
    4.5774    7.8983   25.1299 O   0  0  0  0  0  0  0  0  0  0  0  0
    4.5346    3.7199   26.0953 C   0  0  2  0  0  0  0  0  0  0  0  0
    3.6993    2.7374   25.4294 O   0  0  0  0  0  0  0  0  0  0  0  0
    0.6519    0.8587   23.7796 C   0  0  0  0  0  0  0  0  0  0  0  0
   -0.5430    0.1905   23.4143 O   0  0  0  0  0  0  0  0  0  0  0  0
   -3.6506    0.8638   26.4305 C   0  0  1  0  0  0  0  0  0  0  0  0
   -2.2312    1.1981   26.3519 O   0  0  0  0  0  0  0  0  0  0  0  0
    6.7828    8.6375   24.4997 C   0  0  0  0  0  0  0  0  0  0  0  0
    7.5968    8.9996   23.3970 O   0  0  0  0  0  0  0  0  0  0  0  0
    5.0210    3.1144   27.4486 C   0  0  1  0  0  0  0  0  0  0  0  0
    5.9115    2.0338   27.1745 O   0  0  0  0  0  0  0  0  0  0  0  0
   -4.2946    1.0609   25.0342 C   0  0  0  0  0  0  0  0  0  0  0  0
   -3.8948    2.3321   24.4040 N   0  0  0  0  0  0  0  0  0  0  0  0
  1  2  1  6  0  0  0
  1  7  1  0  0  0  0
  1 30  1  0  0  0  0
  3  4  1  1  0  0  0
  3  9  1  0  0  0  0
  3 39  1  0  0  0  0
  5 10  1  0  0  0  0
  5 26  1  0  0  0  0
  5 32  1  6  0  0  0
  6 12  1  0  0  0  0
  6 36  1  0  0  0  0
  6 19  1  6  0  0  0
  7  8  1  6  0  0  0
  7 14  1  0  0  0  0
  9 16  1  0  0  0  0
 10 11  1  1  0  0  0
 10 18  1  0  0  0  0
 12 13  1  6  0  0  0
 12 20  1  0  0  0  0
 14 15  1  6  0  0  0
 14 22  1  0  0  0  0
 16 17  1  1  0  0  0
 16 24  1  0  0  0  0
 18 19  1  1  0  0  0
 18 25  1  0  0  0  0
 20 21  1  1  0  0  0
 20 27  1  0  0  0  0
 22 23  1  6  0  0  0
 22 29  1  0  0  0  0
 24  2  1  6  0  0  0
 24 31  1  0  0  0  0
 25 26  1  0  0  0  0
 25 33  1  6  0  0  0
 27 28  1  6  0  0  0
 27 35  1  0  0  0  0
 29 30  1  0  0  0  0
 29 37  1  1  0  0  0
 31 32  1  1  0  0  0
 31 39  1  0  0  0  0
 33 34  1  0  0  0  0
 35 36  1  0  0  0  0
 35 41  1  6  0  0  0
 37 38  1  0  0  0  0
 39 40  1  6  0  0  0
 41 42  1  0  0  0  0
M  END
>  <CHROM.1>
-153.75398034,-33.60268673,102.83964007,-176.97557384,-65.32173005,-81.17102616
60.46989061,25.75842475,151.64884298,122.81516127,-64.38098509,32.44829434
-89.87159292,-178.25926380,-40.07908040,-71.09921918,87.44263280,179.12746106
-167.79661713,-65.50835391,-59.32306066,172.56174471,1.83387234,3.64302040
25.75599390,0.66207272,-0.46760267,-0.83409667

>  <Name>
1fyp_lig

>  <RI>
0

>  <Rbt.Current_Directory>
/home/itssahil/PROJECTS/Mol_Feturizer/New_Systems/rnas/1fyp

>  <Rbt.Executable>
rbdock ($Id: //depot/dev/client3/rdock/2013.1/src/exe/rbdock.cxx#4 $)

>  <Rbt.Library>
libRbt.so (2013.1, Build901 2013/11/27)

>  <Rbt.Parameter_File>
/export/apps/rDock/src/rDock_2013.1_src/data/scripts/dock_solv.prm

>  <Rbt.Receptor>
prm/pocket_docking_3.prm

>  <SCORE>
-37.0533

>  <SCORE.INTER>
-40.2898

>  <SCORE.INTER.CONST>
1

>  <SCORE.INTER.POLAR>
-4.96187

>  <SCORE.INTER.ROT>
14

>  <SCORE.INTER.SOLV>
23.2743

>  <SCORE.INTER.VDW>
-31.0117

>  <SCORE.INTER.norm>
-0.959281

>  <SCORE.INTRA>
3.23652

>  <SCORE.INTRA.DIHEDRAL>
-16.0746

>  <SCORE.INTRA.DIHEDRAL.0>
48.7173

>  <SCORE.INTRA.POLAR>
0.514287

>  <SCORE.INTRA.POLAR.0>
-1.54691

>  <SCORE.INTRA.REPUL>
0.226141

>  <SCORE.INTRA.REPUL.0>
0

>  <SCORE.INTRA.SOLV>
-0.358975

>  <SCORE.INTRA.SOLV.lig_0>
-64.052

>  <SCORE.INTRA.VDW>
8.57403

>  <SCORE.INTRA.VDW.0>
-7.0667

>  <SCORE.INTRA.norm>
0.0770599

>  <SCORE.RESTR>
0

>  <SCORE.RESTR.CAVITY>
0

>  <SCORE.RESTR.norm>
0

>  <SCORE.SYSTEM>
0

>  <SCORE.SYSTEM.CONST>
0

>  <SCORE.SYSTEM.DIHEDRAL>
0

>  <SCORE.SYSTEM.SOLV>
0

>  <SCORE.SYSTEM.norm>
0

>  <SCORE.heavy>
42

>  <SCORE.norm>
-0.882221

>  <RMSD>
5.217

$$$$
1fyp_lig
 OpenBabel11021811393D
libRbt.so/2013.1/901 2013/11/27
 42 45  0  0  0  0  0  0  0  0999 V2000
    2.3081    7.2961   25.6392 C   0  0  2  0  0  0  0  0  0  0  0  0
    3.3125    6.5896   26.4230 O   0  0  0  0  0  0  0  0  0  0  0  0
    3.8337    4.4057   30.0562 C   0  0  2  0  0  0  0  0  0  0  0  0
    3.6771    3.5894   31.2741 N   0  0  0  0  0  0  0  0  0  0  0  0
    2.0349    3.1879   26.1923 C   0  0  1  0  0  0  0  0  0  0  0  0
   -1.5272    0.8566   24.8511 C   0  0  1  0  0  0  0  0  0  0  0  0
    2.4654    7.0055   24.1118 C   0  0  2  0  0  0  0  0  0  0  0  0
    2.5398    5.5528   23.8472 N   0  0  0  0  0  0  0  0  0  0  0  0
    2.8061    5.5549   30.0733 C   0  0  0  0  0  0  0  0  0  0  0  0
    1.9405    2.0605   25.1609 C   0  0  2  0  0  0  0  0  0  0  0  0
    1.6400    2.6114   23.8780 O   0  0  0  0  0  0  0  0  0  0  0  0
   -2.9600    1.4535   24.9994 C   0  0  2  0  0  0  0  0  0  0  0  0
   -3.1824    2.0837   26.3236 N   0  0  0  0  0  0  0  0  0  0  0  0
    3.7241    7.7260   23.5353 C   0  0  1  0  0  0  0  0  0  0  0  0
    3.7661    7.5836   22.1177 O   0  0  0  0  0  0  0  0  0  0  0  0
    2.9324    6.4749   28.8283 C   0  0  2  0  0  0  0  0  0  0  0  0
    1.8576    7.4863   28.9035 N   0  0  0  0  0  0  0  0  0  0  0  0
    0.7674    1.2384   25.7016 C   0  0  2  0  0  0  0  0  0  0  0  0
   -0.5142    1.7956   25.2970 O   0  0  0  0  0  0  0  0  0  0  0  0
   -4.0453    0.3753   24.6949 C   0  0  1  0  0  0  0  0  0  0  0  0
   -4.0673    0.1386   23.2888 O   0  0  0  0  0  0  0  0  0  0  0  0
    3.7313    9.2367   23.8791 C   0  0  2  0  0  0  0  0  0  0  0  0
    4.9448    9.8150   23.4082 O   0  0  0  0  0  0  0  0  0  0  0  0
    2.8786    5.6798   27.4744 C   0  0  2  0  0  0  0  0  0  0  0  0
    0.9568    1.3670   27.2195 C   0  0  2  0  0  0  0  0  0  0  0  0
    1.5428    2.6652   27.4366 O   0  0  0  0  0  0  0  0  0  0  0  0
   -3.8088   -0.9868   25.4151 C   0  0  2  0  0  0  0  0  0  0  0  0
   -4.1120   -0.8260   26.8018 O   0  0  0  0  0  0  0  0  0  0  0  0
    3.5863    9.4422   25.4137 C   0  0  2  0  0  0  0  0  0  0  0  0
    2.3942    8.7411   25.8796 O   0  0  0  0  0  0  0  0  0  0  0  0
    3.8016    4.4078   27.4751 C   0  0  2  0  0  0  0  0  0  0  0  0
    3.4292    3.5792   26.3431 O   0  0  0  0  0  0  0  0  0  0  0  0
    1.8634    0.2719   27.8089 C   0  0  0  0  0  0  0  0  0  0  0  0
    3.2294    0.5671   27.5750 O   0  0  0  0  0  0  0  0  0  0  0  0
   -2.3322   -1.4584   25.2375 C   0  0  1  0  0  0  0  0  0  0  0  0
   -1.4238   -0.3841   25.6291 O   0  0  0  0  0  0  0  0  0  0  0  0
    3.4364   10.9139   25.8597 C   0  0  0  0  0  0  0  0  0  0  0  0
    2.7696   11.6851   24.8748 O   0  0  0  0  0  0  0  0  0  0  0  0
    3.6622    3.5553   28.7744 C   0  0  1  0  0  0  0  0  0  0  0  0
    4.6526    2.5283   28.7583 O   0  0  0  0  0  0  0  0  0  0  0  0
   -2.0049   -2.7253   26.0687 C   0  0  0  0  0  0  0  0  0  0  0  0
   -1.7795   -2.4215   27.4935 N   0  0  0  0  0  0  0  0  0  0  0  0
  1  2  1  1  0  0  0
  1  7  1  0  0  0  0
  1 30  1  0  0  0  0
  3  4  1  1  0  0  0
  3  9  1  0  0  0  0
  3 39  1  0  0  0  0
  5 10  1  0  0  0  0
  5 26  1  0  0  0  0
  5 32  1  1  0  0  0
  6 12  1  0  0  0  0
  6 36  1  0  0  0  0
  6 19  1  1  0  0  0
  7  8  1  1  0  0  0
  7 14  1  0  0  0  0
  9 16  1  0  0  0  0
 10 11  1  6  0  0  0
 10 18  1  0  0  0  0
 12 13  1  1  0  0  0
 12 20  1  0  0  0  0
 14 15  1  6  0  0  0
 14 22  1  0  0  0  0
 16 17  1  6  0  0  0
 16 24  1  0  0  0  0
 18 19  1  1  0  0  0
 18 25  1  0  0  0  0
 20 21  1  6  0  0  0
 20 27  1  0  0  0  0
 22 23  1  1  0  0  0
 22 29  1  0  0  0  0
 24  2  1  6  0  0  0
 24 31  1  0  0  0  0
 25 26  1  0  0  0  0
 25 33  1  6  0  0  0
 27 28  1  1  0  0  0
 27 35  1  0  0  0  0
 29 30  1  0  0  0  0
 29 37  1  6  0  0  0
 31 32  1  6  0  0  0
 31 39  1  0  0  0  0
 33 34  1  0  0  0  0
 35 36  1  0  0  0  0
 35 41  1  1  0  0  0
 37 38  1  0  0  0  0
 39 40  1  6  0  0  0
 41 42  1  0  0  0  0
M  END
>  <CHROM.1>
-122.86684041,-96.74905579,67.74766885,-37.80026207,45.60221663,-90.74662727
179.20838341,74.60888492,137.01244598,157.05329235,52.94748497,-101.74592549
78.82638384,-142.70758453,31.31640994,-53.64801173,-166.09247141,179.04181278
-78.15876064,-163.52523806,56.88182528,-38.57494497,1.31649564,3.83209079
26.18195722,0.73987752,-0.76456996,-0.68561847

>  <Name>
1fyp_lig

>  <RI>
0

>  <Rbt.Current_Directory>
/home/itssahil/PROJECTS/Mol_Feturizer/New_Systems/rnas/1fyp

>  <Rbt.Executable>
rbdock ($Id: //depot/dev/client3/rdock/2013.1/src/exe/rbdock.cxx#4 $)

>  <Rbt.Library>
libRbt.so (2013.1, Build901 2013/11/27)

>  <Rbt.Parameter_File>
/export/apps/rDock/src/rDock_2013.1_src/data/scripts/dock_solv.prm

>  <Rbt.Receptor>
prm/blind_docking_60.prm

>  <SCORE>
-36.9526

>  <SCORE.INTER>
-35.1087

>  <SCORE.INTER.CONST>
1

>  <SCORE.INTER.POLAR>
-5.93655

>  <SCORE.INTER.ROT>
14

>  <SCORE.INTER.SOLV>
22.4294

>  <SCORE.INTER.VDW>
-24.0271

>  <SCORE.INTER.norm>
-0.835922

>  <SCORE.INTRA>
-1.84386

>  <SCORE.INTRA.DIHEDRAL>
-6.22723

>  <SCORE.INTRA.DIHEDRAL.0>
48.7173

>  <SCORE.INTRA.POLAR>
-1.47069

>  <SCORE.INTRA.POLAR.0>
-1.54691

>  <SCORE.INTRA.REPUL>
0

>  <SCORE.INTRA.REPUL.0>
0

>  <SCORE.INTRA.SOLV>
1.97972

>  <SCORE.INTRA.SOLV.lig_0>
-64.052

>  <SCORE.INTRA.VDW>
5.28023

>  <SCORE.INTRA.VDW.0>
-7.0667

>  <SCORE.INTRA.norm>
-0.0439014

>  <SCORE.RESTR>
0

>  <SCORE.RESTR.CAVITY>
0

>  <SCORE.RESTR.norm>
0

>  <SCORE.SYSTEM>
0

>  <SCORE.SYSTEM.CONST>
0

>  <SCORE.SYSTEM.DIHEDRAL>
0

>  <SCORE.SYSTEM.SOLV>
0

>  <SCORE.SYSTEM.norm>
0

>  <SCORE.heavy>
42

>  <SCORE.norm>
-0.879824

>  <RMSD>
5.223

$$$$
1fyp_lig
 OpenBabel11021811393D
libRbt.so/2013.1/901 2013/11/27
 42 45  0  0  0  0  0  0  0  0999 V2000
    3.0120    7.1393   26.4055 C   0  0  2  0  0  0  0  0  0  0  0  0
    2.8146    5.6963   26.3708 O   0  0  0  0  0  0  0  0  0  0  0  0
    3.9385    4.2597   30.2327 C   0  0  2  0  0  0  0  0  0  0  0  0
    3.9929    3.6817   31.5882 N   0  0  0  0  0  0  0  0  0  0  0  0
    1.8493    2.0762   27.1013 C   0  0  1  0  0  0  0  0  0  0  0  0
   -2.4327    0.9232   27.0282 C   0  0  1  0  0  0  0  0  0  0  0  0
    3.1102    7.7383   24.9655 C   0  0  2  0  0  0  0  0  0  0  0  0
    1.9807    7.2938   24.1216 N   0  0  0  0  0  0  0  0  0  0  0  0
    2.8478    5.3482   30.1826 C   0  0  0  0  0  0  0  0  0  0  0  0
    0.7050    2.9951   26.6655 C   0  0  2  0  0  0  0  0  0  0  0  0
    0.2474    3.7519   27.7868 O   0  0  0  0  0  0  0  0  0  0  0  0
   -2.8937   -0.0899   28.1201 C   0  0  2  0  0  0  0  0  0  0  0  0
   -1.8402   -1.0749   28.4670 N   0  0  0  0  0  0  0  0  0  0  0  0
    4.4682    7.3585   24.2965 C   0  0  1  0  0  0  0  0  0  0  0  0
    4.6113    8.0399   23.0528 O   0  0  0  0  0  0  0  0  0  0  0  0
    2.7531    6.0215   28.7861 C   0  0  2  0  0  0  0  0  0  0  0  0
    1.6322    6.9837   28.8240 N   0  0  0  0  0  0  0  0  0  0  0  0
   -0.3511    1.9853   26.2080 C   0  0  2  0  0  0  0  0  0  0  0  0
   -1.1189    1.4624   27.3277 O   0  0  0  0  0  0  0  0  0  0  0  0
   -4.2165   -0.7997   27.6965 C   0  0  1  0  0  0  0  0  0  0  0  0
   -5.2895    0.1319   27.8166 O   0  0  0  0  0  0  0  0  0  0  0  0
    5.6755    7.7196   25.1979 C   0  0  2  0  0  0  0  0  0  0  0  0
    6.8731    7.2651   24.5752 O   0  0  0  0  0  0  0  0  0  0  0  0
    2.5795    4.9839   27.6193 C   0  0  2  0  0  0  0  0  0  0  0  0
    0.5104    0.8801   25.5814 C   0  0  2  0  0  0  0  0  0  0  0  0
    1.7460    0.8735   26.3224 O   0  0  0  0  0  0  0  0  0  0  0  0
   -4.2062   -1.3462   26.2367 C   0  0  2  0  0  0  0  0  0  0  0  0
   -3.3693   -2.5029   26.1907 O   0  0  0  0  0  0  0  0  0  0  0  0
    5.5114    7.0763   26.6041 C   0  0  2  0  0  0  0  0  0  0  0  0
    4.2232    7.4724   27.1639 O   0  0  0  0  0  0  0  0  0  0  0  0
    3.5771    3.7739   27.7234 C   0  0  2  0  0  0  0  0  0  0  0  0
    3.1189    2.7322   26.8226 O   0  0  0  0  0  0  0  0  0  0  0  0
    0.7917    1.1097   24.0858 C   0  0  0  0  0  0  0  0  0  0  0  0
   -0.4127    1.3342   23.3740 O   0  0  0  0  0  0  0  0  0  0  0  0
   -3.6832   -0.2628   25.2432 C   0  0  1  0  0  0  0  0  0  0  0  0
   -2.4057    0.2619   25.7178 O   0  0  0  0  0  0  0  0  0  0  0  0
    6.5866    7.4870   27.6348 C   0  0  0  0  0  0  0  0  0  0  0  0
    6.3442    6.8900   28.8974 O   0  0  0  0  0  0  0  0  0  0  0  0
    3.6614    3.1766   29.1624 C   0  0  1  0  0  0  0  0  0  0  0  0
    4.7072    2.2066   29.1964 O   0  0  0  0  0  0  0  0  0  0  0  0
   -3.5021   -0.8090   23.8037 C   0  0  0  0  0  0  0  0  0  0  0  0
   -4.7791   -1.2191   23.1922 N   0  0  0  0  0  0  0  0  0  0  0  0
  1  2  1  6  0  0  0
  1  7  1  0  0  0  0
  1 30  1  0  0  0  0
  3  4  1  1  0  0  0
  3  9  1  0  0  0  0
  3 39  1  0  0  0  0
  5 10  1  0  0  0  0
  5 26  1  0  0  0  0
  5 32  1  6  0  0  0
  6 12  1  0  0  0  0
  6 36  1  0  0  0  0
  6 19  1  1  0  0  0
  7  8  1  6  0  0  0
  7 14  1  0  0  0  0
  9 16  1  0  0  0  0
 10 11  1  1  0  0  0
 10 18  1  0  0  0  0
 12 13  1  6  0  0  0
 12 20  1  0  0  0  0
 14 15  1  6  0  0  0
 14 22  1  0  0  0  0
 16 17  1  1  0  0  0
 16 24  1  0  0  0  0
 18 19  1  1  0  0  0
 18 25  1  0  0  0  0
 20 21  1  6  0  0  0
 20 27  1  0  0  0  0
 22 23  1  6  0  0  0
 22 29  1  0  0  0  0
 24  2  1  6  0  0  0
 24 31  1  0  0  0  0
 25 26  1  0  0  0  0
 25 33  1  6  0  0  0
 27 28  1  1  0  0  0
 27 35  1  0  0  0  0
 29 30  1  0  0  0  0
 29 37  1  1  0  0  0
 31 32  1  6  0  0  0
 31 39  1  0  0  0  0
 33 34  1  0  0  0  0
 35 36  1  0  0  0  0
 35 41  1  6  0  0  0
 37 38  1  0  0  0  0
 39 40  1  6  0  0  0
 41 42  1  0  0  0  0
M  END
>  <CHROM.1>
-174.48380932,-5.86653123,174.31080653,-27.97957860,-51.20268634,-50.67597117
-56.19340779,-148.10914862,157.15512027,156.85115423,-59.70752136,73.98572043
-52.29572684,70.40430219,178.29813757,-65.69942915,77.81918225,-51.28657667
64.51647736,-61.50065382,-53.71210826,54.98957755,1.26876229,3.32241129,26.73725613
0.17984011,-0.72871696,-1.20286261

>  <Name>
1fyp_lig

>  <RI>
0

>  <Rbt.Current_Directory>
/home/itssahil/PROJECTS/Mol_Feturizer/New_Systems/rnas/1fyp

>  <Rbt.Executable>
rbdock ($Id: //depot/dev/client3/rdock/2013.1/src/exe/rbdock.cxx#4 $)

>  <Rbt.Library>
libRbt.so (2013.1, Build901 2013/11/27)

>  <Rbt.Parameter_File>
/export/apps/rDock/src/rDock_2013.1_src/data/scripts/dock_solv.prm

>  <Rbt.Receptor>
prm/blind_docking_80.prm

>  <SCORE>
-47.8683

>  <SCORE.INTER>
-45.5006

>  <SCORE.INTER.CONST>
1

>  <SCORE.INTER.POLAR>
-6.38398

>  <SCORE.INTER.ROT>
14

>  <SCORE.INTER.SOLV>
17.3816

>  <SCORE.INTER.VDW>
-27.781

>  <SCORE.INTER.norm>
-1.08335

>  <SCORE.INTRA>
-2.39367

>  <SCORE.INTRA.DIHEDRAL>
-29.4634

>  <SCORE.INTRA.DIHEDRAL.0>
48.7173

>  <SCORE.INTRA.POLAR>
1.40756

>  <SCORE.INTRA.POLAR.0>
-1.54691

>  <SCORE.INTRA.REPUL>
0

>  <SCORE.INTRA.REPUL.0>
0

>  <SCORE.INTRA.SOLV>
-0.577587

>  <SCORE.INTRA.SOLV.lig_0>
-64.052

>  <SCORE.INTRA.VDW>
7.84112

>  <SCORE.INTRA.VDW.0>
-7.0667

>  <SCORE.INTRA.norm>
-0.0569922

>  <SCORE.RESTR>
0.0260254

>  <SCORE.RESTR.CAVITY>
0.0260254

>  <SCORE.RESTR.norm>
0.000619652

>  <SCORE.SYSTEM>
0

>  <SCORE.SYSTEM.CONST>
0

>  <SCORE.SYSTEM.DIHEDRAL>
0

>  <SCORE.SYSTEM.SOLV>
0

>  <SCORE.SYSTEM.norm>
0

>  <SCORE.heavy>
42

>  <SCORE.norm>
-1.13972

>  <RMSD>
5.239

$$$$
1fyp_lig
 OpenBabel11021811393D
libRbt.so/2013.1/901 2013/11/27
 42 45  0  0  0  0  0  0  0  0999 V2000
    2.5794    6.6437   25.4516 C   0  0  2  0  0  0  0  0  0  0  0  0
    2.7910    5.2039   25.3836 O   0  0  0  0  0  0  0  0  0  0  0  0
    3.0331    3.0603   29.0697 C   0  0  2  0  0  0  0  0  0  0  0  0
    2.7768    2.2873   30.2990 N   0  0  0  0  0  0  0  0  0  0  0  0
    1.2159    2.0293   25.1132 C   0  0  1  0  0  0  0  0  0  0  0  0
   -1.9126   -0.3296   23.9635 C   0  0  1  0  0  0  0  0  0  0  0  0
    2.5028    7.2790   24.0259 C   0  0  2  0  0  0  0  0  0  0  0  0
    1.5390    6.5571   23.1683 N   0  0  0  0  0  0  0  0  0  0  0  0
    2.1120    4.2963   29.0397 C   0  0  0  0  0  0  0  0  0  0  0  0
    0.8504    0.5495   25.2563 C   0  0  2  0  0  0  0  0  0  0  0  0
    0.8705   -0.0734   23.9713 O   0  0  0  0  0  0  0  0  0  0  0  0
   -2.8466    0.0589   22.7770 C   0  0  2  0  0  0  0  0  0  0  0  0
   -3.9632    0.9417   23.1941 N   0  0  0  0  0  0  0  0  0  0  0  0
    3.9110    7.3070   23.3532 C   0  0  1  0  0  0  0  0  0  0  0  0
    3.8551    8.0295   22.1257 O   0  0  0  0  0  0  0  0  0  0  0  0
    2.3479    5.1747   27.7807 C   0  0  2  0  0  0  0  0  0  0  0  0
    1.3662    6.2788   27.8101 N   0  0  0  0  0  0  0  0  0  0  0  0
   -0.5737    0.6306   25.8127 C   0  0  2  0  0  0  0  0  0  0  0  0
   -1.5549    0.8316   24.7574 O   0  0  0  0  0  0  0  0  0  0  0  0
   -3.3729   -1.2137   22.0444 C   0  0  1  0  0  0  0  0  0  0  0  0
   -2.3034   -1.7755   21.2867 O   0  0  0  0  0  0  0  0  0  0  0  0
    4.9729    7.9690   24.2666 C   0  0  2  0  0  0  0  0  0  0  0  0
    6.2478    7.8797   23.6379 O   0  0  0  0  0  0  0  0  0  0  0  0
    2.2540    4.3588   26.4414 C   0  0  2  0  0  0  0  0  0  0  0  0
   -0.4952    1.8669   26.7192 C   0  0  2  0  0  0  0  0  0  0  0  0
    0.4644    2.7483   26.1043 O   0  0  0  0  0  0  0  0  0  0  0  0
   -3.9252   -2.3150   22.9993 C   0  0  2  0  0  0  0  0  0  0  0  0
   -5.1852   -1.8803   23.5133 O   0  0  0  0  0  0  0  0  0  0  0  0
    4.9984    7.2736   25.6573 C   0  0  2  0  0  0  0  0  0  0  0  0
    3.6525    7.2831   26.2215 O   0  0  0  0  0  0  0  0  0  0  0  0
    3.0596    3.0102   26.4890 C   0  0  2  0  0  0  0  0  0  0  0  0
    2.6405    2.1940   25.3645 O   0  0  0  0  0  0  0  0  0  0  0  0
   -0.0613    1.5333   28.1577 C   0  0  0  0  0  0  0  0  0  0  0  0
   -1.1554    1.0467   28.9152 O   0  0  0  0  0  0  0  0  0  0  0  0
   -2.9294   -2.5835   24.1700 C   0  0  1  0  0  0  0  0  0  0  0  0
   -2.5799   -1.3213   24.8159 O   0  0  0  0  0  0  0  0  0  0  0  0
    5.9200    7.9436   26.7008 C   0  0  0  0  0  0  0  0  0  0  0  0
    6.0636    7.1346   27.8559 O   0  0  0  0  0  0  0  0  0  0  0  0
    2.8154    2.2014   27.8008 C   0  0  1  0  0  0  0  0  0  0  0  0
    3.7103    1.0904   27.8286 O   0  0  0  0  0  0  0  0  0  0  0  0
   -3.5044   -3.5536   25.2338 C   0  0  0  0  0  0  0  0  0  0  0  0
   -3.5412   -4.9495   24.7616 N   0  0  0  0  0  0  0  0  0  0  0  0
  1  2  1  6  0  0  0
  1  7  1  0  0  0  0
  1 30  1  0  0  0  0
  3  4  1  1  0  0  0
  3  9  1  0  0  0  0
  3 39  1  0  0  0  0
  5 10  1  0  0  0  0
  5 26  1  0  0  0  0
  5 32  1  1  0  0  0
  6 12  1  0  0  0  0
  6 36  1  0  0  0  0
  6 19  1  1  0  0  0
  7  8  1  6  0  0  0
  7 14  1  0  0  0  0
  9 16  1  0  0  0  0
 10 11  1  6  0  0  0
 10 18  1  0  0  0  0
 12 13  1  1  0  0  0
 12 20  1  0  0  0  0
 14 15  1  6  0  0  0
 14 22  1  0  0  0  0
 16 17  1  6  0  0  0
 16 24  1  0  0  0  0
 18 19  1  6  0  0  0
 18 25  1  0  0  0  0
 20 21  1  1  0  0  0
 20 27  1  0  0  0  0
 22 23  1  6  0  0  0
 22 29  1  0  0  0  0
 24  2  1  6  0  0  0
 24 31  1  0  0  0  0
 25 26  1  0  0  0  0
 25 33  1  1  0  0  0
 27 28  1  1  0  0  0
 27 35  1  0  0  0  0
 29 30  1  0  0  0  0
 29 37  1  1  0  0  0
 31 32  1  6  0  0  0
 31 39  1  0  0  0  0
 33 34  1  0  0  0  0
 35 36  1  0  0  0  0
 35 41  1  1  0  0  0
 37 38  1  0  0  0  0
 39 40  1  1  0  0  0
 41 42  1  0  0  0  0
M  END
>  <CHROM.1>
-149.73172245,-34.49114105,78.85384986,-116.56173922,155.07155963,-85.92651763
-92.69434426,-52.81396296,77.46475892,-173.71243550,-176.93308544,64.03267758
-80.62683916,171.93530173,-170.13794585,-47.89982111,-117.53191782,66.50067137
73.60140717,-173.24188125,-170.53091812,74.35898666,0.91816761,2.66547705
25.44999038,0.22373648,-0.85599438,-1.07705128

>  <Name>
1fyp_lig

>  <RI>
0

>  <Rbt.Current_Directory>
/home/itssahil/PROJECTS/Mol_Feturizer/New_Systems/rnas/1fyp

>  <Rbt.Executable>
rbdock ($Id: //depot/dev/client3/rdock/2013.1/src/exe/rbdock.cxx#4 $)

>  <Rbt.Library>
libRbt.so (2013.1, Build901 2013/11/27)

>  <Rbt.Parameter_File>
/export/apps/rDock/src/rDock_2013.1_src/data/scripts/dock_solv.prm

>  <Rbt.Receptor>
prm/blind_docking_100.prm

>  <SCORE>
-50.4472

>  <SCORE.INTER>
-53.0001

>  <SCORE.INTER.CONST>
1

>  <SCORE.INTER.POLAR>
-7.01028

>  <SCORE.INTER.ROT>
14

>  <SCORE.INTER.SOLV>
15.9302

>  <SCORE.INTER.VDW>
-30.2092

>  <SCORE.INTER.norm>
-1.26191

>  <SCORE.INTRA>
2.55281

>  <SCORE.INTRA.DIHEDRAL>
-17.7406

>  <SCORE.INTRA.DIHEDRAL.0>
48.7173

>  <SCORE.INTRA.POLAR>
1.05566

>  <SCORE.INTRA.POLAR.0>
-1.54691

>  <SCORE.INTRA.REPUL>
0

>  <SCORE.INTRA.REPUL.0>
0

>  <SCORE.INTRA.SOLV>
-1.82739

>  <SCORE.INTRA.SOLV.lig_0>
-64.052

>  <SCORE.INTRA.VDW>
8.74757

>  <SCORE.INTRA.VDW.0>
-7.0667

>  <SCORE.INTRA.norm>
0.0607811

>  <SCORE.RESTR>
0

>  <SCORE.RESTR.CAVITY>
0

>  <SCORE.RESTR.norm>
0

>  <SCORE.SYSTEM>
0

>  <SCORE.SYSTEM.CONST>
0

>  <SCORE.SYSTEM.DIHEDRAL>
0

>  <SCORE.SYSTEM.SOLV>
0

>  <SCORE.SYSTEM.norm>
0

>  <SCORE.heavy>
42

>  <SCORE.norm>
-1.20112

>  <RMSD>
5.274

$$$$
1fyp_lig
 OpenBabel11021811393D
libRbt.so/2013.1/901 2013/11/27
 42 45  0  0  0  0  0  0  0  0999 V2000
    4.8557    4.5367   26.0492 C   0  0  2  0  0  0  0  0  0  0  0  0
    4.4911    4.6974   27.4505 O   0  0  0  0  0  0  0  0  0  0  0  0
    2.6131    2.1415   30.3108 C   0  0  2  0  0  0  0  0  0  0  0  0
    1.6800    1.3371   31.1213 N   0  0  0  0  0  0  0  0  0  0  0  0
    2.4362    2.0045   25.9197 C   0  0  1  0  0  0  0  0  0  0  0  0
   -1.8283    1.2641   24.8311 C   0  0  1  0  0  0  0  0  0  0  0  0
    6.3942    4.3220   25.8791 C   0  0  2  0  0  0  0  0  0  0  0  0
    6.8876    3.2490   26.7683 N   0  0  0  0  0  0  0  0  0  0  0  0
    2.1011    3.5934   30.2291 C   0  0  0  0  0  0  0  0  0  0  0  0
    1.4529    0.9698   26.4729 C   0  0  2  0  0  0  0  0  0  0  0  0
    1.5057   -0.2133   25.6748 O   0  0  0  0  0  0  0  0  0  0  0  0
   -2.3311    0.3636   26.0004 C   0  0  2  0  0  0  0  0  0  0  0  0
   -1.4398   -0.7948   26.2535 N   0  0  0  0  0  0  0  0  0  0  0  0
    7.1736    5.6477   26.1462 C   0  0  1  0  0  0  0  0  0  0  0  0
    8.5539    5.4781   25.8336 O   0  0  0  0  0  0  0  0  0  0  0  0
    3.0530    4.5072   29.4098 C   0  0  2  0  0  0  0  0  0  0  0  0
    2.4325    5.8457   29.3259 N   0  0  0  0  0  0  0  0  0  0  0  0
    0.1126    1.6918   26.3088 C   0  0  2  0  0  0  0  0  0  0  0  0
   -0.4122    1.5555   24.9588 O   0  0  0  0  0  0  0  0  0  0  0  0
   -3.8018   -0.0950   25.7559 C   0  0  1  0  0  0  0  0  0  0  0  0
   -4.6657    1.0191   25.9703 O   0  0  0  0  0  0  0  0  0  0  0  0
    6.6182    6.8226   25.3027 C   0  0  2  0  0  0  0  0  0  0  0  0
    7.3066    8.0174   25.6595 O   0  0  0  0  0  0  0  0  0  0  0  0
    3.3721    3.9321   27.9830 C   0  0  2  0  0  0  0  0  0  0  0  0
    0.4959    3.1506   26.5942 C   0  0  2  0  0  0  0  0  0  0  0  0
    1.8539    3.2997   26.1367 O   0  0  0  0  0  0  0  0  0  0  0  0
   -4.0659   -0.6482   24.3227 C   0  0  2  0  0  0  0  0  0  0  0  0
   -3.4643   -1.9395   24.2163 O   0  0  0  0  0  0  0  0  0  0  0  0
    5.0891    6.9809   25.5375 C   0  0  2  0  0  0  0  0  0  0  0  0
    4.4300    5.7062   25.2720 O   0  0  0  0  0  0  0  0  0  0  0  0
    3.7506    2.4069   28.0089 C   0  0  2  0  0  0  0  0  0  0  0  0
    3.6925    1.9043   26.6486 O   0  0  0  0  0  0  0  0  0  0  0  0
    0.3963    3.5197   28.0850 C   0  0  0  0  0  0  0  0  0  0  0  0
   -0.9327    3.3730   28.5539 O   0  0  0  0  0  0  0  0  0  0  0  0
   -3.4780    0.3109   23.2416 C   0  0  1  0  0  0  0  0  0  0  0  0
   -2.0790    0.5964   23.5478 O   0  0  0  0  0  0  0  0  0  0  0  0
    4.3999    8.0309   24.6378 C   0  0  0  0  0  0  0  0  0  0  0  0
    3.0132    8.1190   24.9186 O   0  0  0  0  0  0  0  0  0  0  0  0
    2.7841    1.5548   28.8889 C   0  0  1  0  0  0  0  0  0  0  0  0
    3.3023    0.2293   28.9887 O   0  0  0  0  0  0  0  0  0  0  0  0
   -3.5729   -0.2732   21.8087 C   0  0  0  0  0  0  0  0  0  0  0  0
   -4.9541   -0.2803   21.2938 N   0  0  0  0  0  0  0  0  0  0  0  0
  1  2  1  1  0  0  0
  1  7  1  0  0  0  0
  1 30  1  0  0  0  0
  3  4  1  1  0  0  0
  3  9  1  0  0  0  0
  3 39  1  0  0  0  0
  5 10  1  0  0  0  0
  5 26  1  0  0  0  0
  5 32  1  1  0  0  0
  6 12  1  0  0  0  0
  6 36  1  0  0  0  0
  6 19  1  1  0  0  0
  7  8  1  1  0  0  0
  7 14  1  0  0  0  0
  9 16  1  0  0  0  0
 10 11  1  6  0  0  0
 10 18  1  0  0  0  0
 12 13  1  6  0  0  0
 12 20  1  0  0  0  0
 14 15  1  6  0  0  0
 14 22  1  0  0  0  0
 16 17  1  6  0  0  0
 16 24  1  0  0  0  0
 18 19  1  6  0  0  0
 18 25  1  0  0  0  0
 20 21  1  6  0  0  0
 20 27  1  0  0  0  0
 22 23  1  1  0  0  0
 22 29  1  0  0  0  0
 24  2  1  1  0  0  0
 24 31  1  0  0  0  0
 25 26  1  0  0  0  0
 25 33  1  1  0  0  0
 27 28  1  1  0  0  0
 27 35  1  0  0  0  0
 29 30  1  0  0  0  0
 29 37  1  6  0  0  0
 31 32  1  6  0  0  0
 31 39  1  0  0  0  0
 33 34  1  0  0  0  0
 35 36  1  0  0  0  0
 35 41  1  6  0  0  0
 37 38  1  0  0  0  0
 39 40  1  1  0  0  0
 41 42  1  0  0  0  0
M  END
>  <CHROM.1>
-132.17939333,-169.54782468,-55.99900773,137.07330117,-164.03475668,-179.85130751
-56.64223247,24.82642395,136.52322055,-33.75372983,167.08734776,67.37916297
-61.46069587,64.88180409,-179.67930871,-58.78476923,-73.47776200,-178.49153390
72.14665960,178.28286183,52.42518709,-63.73648187,1.64026953,2.80140490,26.33413494
0.04454505,-0.60661154,-1.14479047

>  <Name>
1fyp_lig

>  <RI>
0

>  <Rbt.Current_Directory>
/home/itssahil/PROJECTS/Mol_Feturizer/New_Systems/rnas/1fyp

>  <Rbt.Executable>
rbdock ($Id: //depot/dev/client3/rdock/2013.1/src/exe/rbdock.cxx#4 $)

>  <Rbt.Library>
libRbt.so (2013.1, Build901 2013/11/27)

>  <Rbt.Parameter_File>
/export/apps/rDock/src/rDock_2013.1_src/data/scripts/dock_solv.prm

>  <Rbt.Receptor>
prm/pocket_docking_5.prm

>  <SCORE>
-43.5701

>  <SCORE.INTER>
-43.2474

>  <SCORE.INTER.CONST>
1

>  <SCORE.INTER.POLAR>
-4.47557

>  <SCORE.INTER.ROT>
14

>  <SCORE.INTER.SOLV>
20.9944

>  <SCORE.INTER.VDW>
-33.8445

>  <SCORE.INTER.norm>
-1.0297

>  <SCORE.INTRA>
-0.344008

>  <SCORE.INTRA.DIHEDRAL>
-24.8116

>  <SCORE.INTRA.DIHEDRAL.0>
48.7173

>  <SCORE.INTRA.POLAR>
0.425296

>  <SCORE.INTRA.POLAR.0>
-1.54691

>  <SCORE.INTRA.REPUL>
0.102226

>  <SCORE.INTRA.REPUL.0>
0

>  <SCORE.INTRA.SOLV>
-0.147729

>  <SCORE.INTRA.SOLV.lig_0>
-64.052

>  <SCORE.INTRA.VDW>
10.1785

>  <SCORE.INTRA.VDW.0>
-7.0667

>  <SCORE.INTRA.norm>
-0.00819068

>  <SCORE.RESTR>
0.0212749

>  <SCORE.RESTR.CAVITY>
0.0212749

>  <SCORE.RESTR.norm>
0.000506546

>  <SCORE.SYSTEM>
0

>  <SCORE.SYSTEM.CONST>
0

>  <SCORE.SYSTEM.DIHEDRAL>
0

>  <SCORE.SYSTEM.SOLV>
0

>  <SCORE.SYSTEM.norm>
0

>  <SCORE.heavy>
42

>  <SCORE.norm>
-1.03738

>  <RMSD>
5.280

$$$$
1fyp_lig
 OpenBabel11021811393D
libRbt.so/2013.1/901 2013/11/27
 42 45  0  0  0  0  0  0  0  0999 V2000
    3.5725    7.3849   26.1275 C   0  0  2  0  0  0  0  0  0  0  0  0
    3.6250    5.9370   26.2792 O   0  0  0  0  0  0  0  0  0  0  0  0
    4.1533    4.5612   30.2878 C   0  0  2  0  0  0  0  0  0  0  0  0
    3.9927    4.0576   31.6644 N   0  0  0  0  0  0  0  0  0  0  0  0
    2.0954    2.4421   27.1483 C   0  0  1  0  0  0  0  0  0  0  0  0
   -1.8616    0.9825   27.0657 C   0  0  1  0  0  0  0  0  0  0  0  0
    2.5632    7.8073   25.0116 C   0  0  2  0  0  0  0  0  0  0  0  0
    1.2471    7.1627   25.2070 N   0  0  0  0  0  0  0  0  0  0  0  0
    3.2567    5.7991   30.0867 C   0  0  0  0  0  0  0  0  0  0  0  0
    1.0339    3.4179   26.6339 C   0  0  2  0  0  0  0  0  0  0  0  0
    0.6021    4.2605   27.7031 O   0  0  0  0  0  0  0  0  0  0  0  0
   -2.6949    0.6567   28.3427 C   0  0  2  0  0  0  0  0  0  0  0  0
   -1.8528    0.5277   29.5571 N   0  0  0  0  0  0  0  0  0  0  0  0
    3.1264    7.4699   23.5956 C   0  0  1  0  0  0  0  0  0  0  0  0
    2.2715    8.0020   22.5868 O   0  0  0  0  0  0  0  0  0  0  0  0
    3.3963    6.4008   28.6616 C   0  0  2  0  0  0  0  0  0  0  0  0
    2.4420    7.5235   28.5501 N   0  0  0  0  0  0  0  0  0  0  0  0
   -0.0803    2.4650   26.1923 C   0  0  2  0  0  0  0  0  0  0  0  0
   -0.9148    2.0549   27.3111 O   0  0  0  0  0  0  0  0  0  0  0  0
   -3.5732   -0.6137   28.1239 C   0  0  1  0  0  0  0  0  0  0  0  0
   -4.6531   -0.2744   27.2566 O   0  0  0  0  0  0  0  0  0  0  0  0
    4.5498    8.0460   23.3894 C   0  0  2  0  0  0  0  0  0  0  0  0
    5.0419    7.6262   22.1204 O   0  0  0  0  0  0  0  0  0  0  0  0
    3.1684    5.3390   27.5263 C   0  0  2  0  0  0  0  0  0  0  0  0
    0.7151    1.2711   25.6461 C   0  0  2  0  0  0  0  0  0  0  0  0
    1.9259    1.2127   26.4247 O   0  0  0  0  0  0  0  0  0  0  0  0
   -2.8057   -1.8181   27.4991 C   0  0  2  0  0  0  0  0  0  0  0  0
   -1.9456   -2.3743   28.4948 O   0  0  0  0  0  0  0  0  0  0  0  0
    5.4956    7.5698   24.5281 C   0  0  2  0  0  0  0  0  0  0  0  0
    4.9046    7.9159   25.8168 O   0  0  0  0  0  0  0  0  0  0  0  0
    3.9495    3.9984   27.7769 C   0  0  2  0  0  0  0  0  0  0  0  0
    3.4167    2.9908   26.8783 O   0  0  0  0  0  0  0  0  0  0  0  0
    1.0535    1.4053   24.1507 C   0  0  0  0  0  0  0  0  0  0  0  0
   -0.1177    1.3185   23.3580 O   0  0  0  0  0  0  0  0  0  0  0  0
   -1.9727   -1.3620   26.2611 C   0  0  1  0  0  0  0  0  0  0  0  0
   -1.1410   -0.2179   26.6241 O   0  0  0  0  0  0  0  0  0  0  0  0
    6.9064    8.1992   24.5053 C   0  0  0  0  0  0  0  0  0  0  0  0
    7.7289    7.6566   25.5244 O   0  0  0  0  0  0  0  0  0  0  0  0
    3.8076    3.4757   29.2402 C   0  0  1  0  0  0  0  0  0  0  0  0
    4.6803    2.3607   29.4161 O   0  0  0  0  0  0  0  0  0  0  0  0
   -1.0666   -2.4888   25.7021 C   0  0  0  0  0  0  0  0  0  0  0  0
   -1.7428   -3.2954   24.6701 N   0  0  0  0  0  0  0  0  0  0  0  0
  1  2  1  6  0  0  0
  1  7  1  0  0  0  0
  1 30  1  0  0  0  0
  3  4  1  1  0  0  0
  3  9  1  0  0  0  0
  3 39  1  0  0  0  0
  5 10  1  0  0  0  0
  5 26  1  0  0  0  0
  5 32  1  6  0  0  0
  6 12  1  0  0  0  0
  6 36  1  0  0  0  0
  6 19  1  1  0  0  0
  7  8  1  1  0  0  0
  7 14  1  0  0  0  0
  9 16  1  0  0  0  0
 10 11  1  1  0  0  0
 10 18  1  0  0  0  0
 12 13  1  1  0  0  0
 12 20  1  0  0  0  0
 14 15  1  6  0  0  0
 14 22  1  0  0  0  0
 16 17  1  6  0  0  0
 16 24  1  0  0  0  0
 18 19  1  1  0  0  0
 18 25  1  0  0  0  0
 20 21  1  6  0  0  0
 20 27  1  0  0  0  0
 22 23  1  6  0  0  0
 22 29  1  0  0  0  0
 24  2  1  6  0  0  0
 24 31  1  0  0  0  0
 25 26  1  0  0  0  0
 25 33  1  6  0  0  0
 27 28  1  1  0  0  0
 27 35  1  0  0  0  0
 29 30  1  0  0  0  0
 29 37  1  6  0  0  0
 31 32  1  6  0  0  0
 31 39  1  0  0  0  0
 33 34  1  0  0  0  0
 35 36  1  0  0  0  0
 35 41  1  1  0  0  0
 37 38  1  0  0  0  0
 39 40  1  6  0  0  0
 41 42  1  0  0  0  0
M  END
>  <CHROM.1>
-114.85542026,-28.32311773,-53.15513509,74.86548990,-179.90065279,-152.55306343
-75.78356349,12.31044935,-169.92853947,-179.47974493,-61.45224342,175.48708545
-68.05591096,-61.37222676,-176.56102718,-72.60109624,80.50465729,-57.91200050
90.21519148,172.70122113,179.93675032,16.13148602,1.62176171,3.48830105,26.62613313
0.38998305,-0.82893457,-1.25031402

>  <Name>
1fyp_lig

>  <RI>
0

>  <Rbt.Current_Directory>
/home/itssahil/PROJECTS/Mol_Feturizer/New_Systems/rnas/1fyp

>  <Rbt.Executable>
rbdock ($Id: //depot/dev/client3/rdock/2013.1/src/exe/rbdock.cxx#4 $)

>  <Rbt.Library>
libRbt.so (2013.1, Build901 2013/11/27)

>  <Rbt.Parameter_File>
/export/apps/rDock/src/rDock_2013.1_src/data/scripts/dock_solv.prm

>  <Rbt.Receptor>
prm/blind_docking_60.prm

>  <SCORE>
-35.1411

>  <SCORE.INTER>
-35.6749

>  <SCORE.INTER.CONST>
1

>  <SCORE.INTER.POLAR>
-4.96529

>  <SCORE.INTER.ROT>
14

>  <SCORE.INTER.SOLV>
21.5228

>  <SCORE.INTER.VDW>
-27.3399

>  <SCORE.INTER.norm>
-0.849403

>  <SCORE.INTRA>
0.468762

>  <SCORE.INTRA.DIHEDRAL>
-24.2322

>  <SCORE.INTRA.DIHEDRAL.0>
48.7173

>  <SCORE.INTRA.POLAR>
1.54691

>  <SCORE.INTRA.POLAR.0>
-1.54691

>  <SCORE.INTRA.REPUL>
0

>  <SCORE.INTRA.REPUL.0>
0

>  <SCORE.INTRA.SOLV>
-1.7594

>  <SCORE.INTRA.SOLV.lig_0>
-64.052

>  <SCORE.INTRA.VDW>
8.20504

>  <SCORE.INTRA.VDW.0>
-7.0667

>  <SCORE.INTRA.norm>
0.011161

>  <SCORE.RESTR>
0.0650877

>  <SCORE.RESTR.CAVITY>
0.0650877

>  <SCORE.RESTR.norm>
0.00154971

>  <SCORE.SYSTEM>
0

>  <SCORE.SYSTEM.CONST>
0

>  <SCORE.SYSTEM.DIHEDRAL>
0

>  <SCORE.SYSTEM.SOLV>
0

>  <SCORE.SYSTEM.norm>
0

>  <SCORE.heavy>
42

>  <SCORE.norm>
-0.836692

>  <RMSD>
5.283

$$$$
1fyp_lig
 OpenBabel11021811393D
libRbt.so/2013.1/901 2013/11/27
 42 45  0  0  0  0  0  0  0  0999 V2000
    3.7980    7.6239   26.1849 C   0  0  2  0  0  0  0  0  0  0  0  0
    4.4378    6.3802   26.5927 O   0  0  0  0  0  0  0  0  0  0  0  0
    6.0286    4.2291   29.9218 C   0  0  2  0  0  0  0  0  0  0  0  0
    6.4277    3.7370   31.2533 N   0  0  0  0  0  0  0  0  0  0  0  0
    1.8876    3.4185   28.0809 C   0  0  1  0  0  0  0  0  0  0  0  0
   -1.6048    1.0937   27.0588 C   0  0  1  0  0  0  0  0  0  0  0  0
    2.3987    7.3632   25.5400 C   0  0  2  0  0  0  0  0  0  0  0  0
    1.5645    6.4977   26.4006 N   0  0  0  0  0  0  0  0  0  0  0  0
    6.4686    5.6983   29.7648 C   0  0  0  0  0  0  0  0  0  0  0  0
    0.5808    3.6998   27.3347 C   0  0  2  0  0  0  0  0  0  0  0  0
   -0.4825    3.8533   28.2756 O   0  0  0  0  0  0  0  0  0  0  0  0
   -2.0703   -0.1996   27.7948 C   0  0  2  0  0  0  0  0  0  0  0  0
   -1.1481   -1.3417   27.5818 N   0  0  0  0  0  0  0  0  0  0  0  0
    2.5494    6.7315   24.1207 C   0  0  1  0  0  0  0  0  0  0  0  0
    1.2776    6.6468   23.4826 O   0  0  0  0  0  0  0  0  0  0  0  0
    6.1032    6.2755   28.3699 C   0  0  2  0  0  0  0  0  0  0  0  0
    6.4930    7.7008   28.3550 N   0  0  0  0  0  0  0  0  0  0  0  0
    0.4110    2.4228   26.5072 C   0  0  2  0  0  0  0  0  0  0  0  0
   -0.1945    1.3524   27.2845 O   0  0  0  0  0  0  0  0  0  0  0  0
   -3.5326   -0.5693   27.3973 C   0  0  1  0  0  0  0  0  0  0  0  0
   -4.4203    0.3534   28.0250 O   0  0  0  0  0  0  0  0  0  0  0  0
    3.4987    7.5599   23.2191 C   0  0  2  0  0  0  0  0  0  0  0  0
    3.6670    6.8844   21.9765 O   0  0  0  0  0  0  0  0  0  0  0  0
    4.5842    6.0922   28.0129 C   0  0  2  0  0  0  0  0  0  0  0  0
    1.8629    2.0755   26.1498 C   0  0  2  0  0  0  0  0  0  0  0  0
    2.6634    2.5341   27.2564 O   0  0  0  0  0  0  0  0  0  0  0  0
   -3.8020   -0.5381   25.8622 C   0  0  2  0  0  0  0  0  0  0  0  0
   -3.1708   -1.6730   25.2671 O   0  0  0  0  0  0  0  0  0  0  0  0
    4.8709    7.7629   23.9221 C   0  0  2  0  0  0  0  0  0  0  0  0
    4.6511    8.3523   25.2389 O   0  0  0  0  0  0  0  0  0  0  0  0
    4.0579    4.6406   28.3062 C   0  0  2  0  0  0  0  0  0  0  0  0
    2.6073    4.6702   28.2683 O   0  0  0  0  0  0  0  0  0  0  0  0
    2.3372    2.7371   24.8437 C   0  0  0  0  0  0  0  0  0  0  0  0
    3.7416    2.9246   24.8535 O   0  0  0  0  0  0  0  0  0  0  0  0
   -3.2516    0.7778   25.2299 C   0  0  1  0  0  0  0  0  0  0  0  0
   -1.8560    0.9623   25.6183 O   0  0  0  0  0  0  0  0  0  0  0  0
    5.8495    8.6979   23.1769 C   0  0  0  0  0  0  0  0  0  0  0  0
    5.2428    9.9429   22.8746 O   0  0  0  0  0  0  0  0  0  0  0  0
    4.5018    4.1026   29.7019 C   0  0  1  0  0  0  0  0  0  0  0  0
    4.1261    2.7301   29.8056 O   0  0  0  0  0  0  0  0  0  0  0  0
   -3.3511    0.7852   23.6829 C   0  0  0  0  0  0  0  0  0  0  0  0
   -2.3046   -0.0358   23.0474 N   0  0  0  0  0  0  0  0  0  0  0  0
  1  2  1  6  0  0  0
  1  7  1  0  0  0  0
  1 30  1  0  0  0  0
  3  4  1  1  0  0  0
  3  9  1  0  0  0  0
  3 39  1  0  0  0  0
  5 10  1  0  0  0  0
  5 26  1  0  0  0  0
  5 32  1  6  0  0  0
  6 12  1  0  0  0  0
  6 36  1  0  0  0  0
  6 19  1  6  0  0  0
  7  8  1  1  0  0  0
  7 14  1  0  0  0  0
  9 16  1  0  0  0  0
 10 11  1  1  0  0  0
 10 18  1  0  0  0  0
 12 13  1  6  0  0  0
 12 20  1  0  0  0  0
 14 15  1  6  0  0  0
 14 22  1  0  0  0  0
 16 17  1  1  0  0  0
 16 24  1  0  0  0  0
 18 19  1  1  0  0  0
 18 25  1  0  0  0  0
 20 21  1  1  0  0  0
 20 27  1  0  0  0  0
 22 23  1  6  0  0  0
 22 29  1  0  0  0  0
 24  2  1  6  0  0  0
 24 31  1  0  0  0  0
 25 26  1  0  0  0  0
 25 33  1  6  0  0  0
 27 28  1  6  0  0  0
 27 35  1  0  0  0  0
 29 30  1  0  0  0  0
 29 37  1  6  0  0  0
 31 32  1  1  0  0  0
 31 39  1  0  0  0  0
 33 34  1  0  0  0  0
 35 36  1  0  0  0  0
 35 41  1  6  0  0  0
 37 38  1  0  0  0  0
 39 40  1  6  0  0  0
 41 42  1  0  0  0  0
M  END
>  <CHROM.1>
-110.24806637,-107.05197497,166.05183642,-8.42878632,-58.05021668,-11.26494922
61.54443806,175.64177854,102.02936654,171.74295937,-61.82271797,32.77518406
153.05244232,-43.53355807,52.74386446,160.55810630,-149.27573515,-49.88008670
-76.99348323,169.57946170,-58.47962085,-23.72892299,1.84073364,3.92168083
26.44600246,0.41242756,-0.65120796,-0.96340420

>  <Name>
1fyp_lig

>  <RI>
0

>  <Rbt.Current_Directory>
/home/itssahil/PROJECTS/Mol_Feturizer/New_Systems/rnas/1fyp

>  <Rbt.Executable>
rbdock ($Id: //depot/dev/client3/rdock/2013.1/src/exe/rbdock.cxx#4 $)

>  <Rbt.Library>
libRbt.so (2013.1, Build901 2013/11/27)

>  <Rbt.Parameter_File>
/export/apps/rDock/src/rDock_2013.1_src/data/scripts/dock_solv.prm

>  <Rbt.Receptor>
prm/pocket_docking_4.prm

>  <SCORE>
-56.0478

>  <SCORE.INTER>
-52.22

>  <SCORE.INTER.CONST>
1

>  <SCORE.INTER.POLAR>
-6.73363

>  <SCORE.INTER.ROT>
14

>  <SCORE.INTER.SOLV>
17.4352

>  <SCORE.INTER.VDW>
-31.113

>  <SCORE.INTER.norm>
-1.24333

>  <SCORE.INTRA>
-3.82774

>  <SCORE.INTRA.DIHEDRAL>
-8.52829

>  <SCORE.INTRA.DIHEDRAL.0>
48.7173

>  <SCORE.INTRA.POLAR>
-0.444048

>  <SCORE.INTRA.POLAR.0>
-1.54691

>  <SCORE.INTRA.REPUL>
0

>  <SCORE.INTRA.REPUL.0>
0

>  <SCORE.INTRA.SOLV>
-0.326292

>  <SCORE.INTRA.SOLV.lig_0>
-64.052

>  <SCORE.INTRA.VDW>
2.10932

>  <SCORE.INTRA.VDW.0>
-7.0667

>  <SCORE.INTRA.norm>
-0.0911366

>  <SCORE.RESTR>
0

>  <SCORE.RESTR.CAVITY>
0

>  <SCORE.RESTR.norm>
0

>  <SCORE.SYSTEM>
0

>  <SCORE.SYSTEM.CONST>
0

>  <SCORE.SYSTEM.DIHEDRAL>
0

>  <SCORE.SYSTEM.SOLV>
0

>  <SCORE.SYSTEM.norm>
0

>  <SCORE.heavy>
42

>  <SCORE.norm>
-1.33447

>  <RMSD>
5.287

$$$$
1fyp_lig
 OpenBabel11021811393D
libRbt.so/2013.1/901 2013/11/27
 42 45  0  0  0  0  0  0  0  0999 V2000
    6.8863    7.1169   25.5400 C   0  0  2  0  0  0  0  0  0  0  0  0
    6.3735    7.8507   26.6894 O   0  0  0  0  0  0  0  0  0  0  0  0
    6.8841    4.8457   29.6810 C   0  0  2  0  0  0  0  0  0  0  0  0
    6.7946    3.9684   30.8629 N   0  0  0  0  0  0  0  0  0  0  0  0
    3.2969    5.0243   27.5148 C   0  0  1  0  0  0  0  0  0  0  0  0
   -0.6245    3.5521   28.6713 C   0  0  1  0  0  0  0  0  0  0  0  0
    7.7096    8.0446   24.5894 C   0  0  2  0  0  0  0  0  0  0  0  0
    8.7325    8.8063   25.3371 N   0  0  0  0  0  0  0  0  0  0  0  0
    6.9964    6.3135   30.1391 C   0  0  0  0  0  0  0  0  0  0  0  0
    2.0341    5.6386   26.9051 C   0  0  2  0  0  0  0  0  0  0  0  0
    1.6576    6.7958   27.6525 O   0  0  0  0  0  0  0  0  0  0  0  0
   -0.1582    2.4179   29.6343 C   0  0  2  0  0  0  0  0  0  0  0  0
    1.1566    1.8479   29.2515 N   0  0  0  0  0  0  0  0  0  0  0  0
    6.7699    9.0187   23.8121 C   0  0  1  0  0  0  0  0  0  0  0  0
    7.5133    9.7455   22.8370 O   0  0  0  0  0  0  0  0  0  0  0  0
    7.1222    7.2949   28.9418 C   0  0  2  0  0  0  0  0  0  0  0  0
    7.1414    8.6691   29.4847 N   0  0  0  0  0  0  0  0  0  0  0  0
    1.0179    4.5071   27.0825 C   0  0  2  0  0  0  0  0  0  0  0  0
    0.4421    4.5034   28.4186 O   0  0  0  0  0  0  0  0  0  0  0  0
   -1.2461    1.3062   29.7514 C   0  0  1  0  0  0  0  0  0  0  0  0
   -2.3256    1.8089   30.5359 O   0  0  0  0  0  0  0  0  0  0  0  0
    5.6231    8.2633   23.0948 C   0  0  2  0  0  0  0  0  0  0  0  0
    4.7521    9.2110   22.4849 O   0  0  0  0  0  0  0  0  0  0  0  0
    5.9777    7.1128   27.8811 C   0  0  2  0  0  0  0  0  0  0  0  0
    1.8846    3.2590   26.8649 C   0  0  2  0  0  0  0  0  0  0  0  0
    3.1990    3.6011   27.3459 O   0  0  0  0  0  0  0  0  0  0  0  0
   -1.8188    0.8295   28.3822 C   0  0  2  0  0  0  0  0  0  0  0  0
   -0.8295    0.0326   27.7288 O   0  0  0  0  0  0  0  0  0  0  0  0
    4.8442    7.3763   24.1072 C   0  0  2  0  0  0  0  0  0  0  0  0
    5.7845    6.4973   24.7950 O   0  0  0  0  0  0  0  0  0  0  0  0
    5.7288    5.6079   27.5022 C   0  0  2  0  0  0  0  0  0  0  0  0
    4.4622    5.5232   26.7985 O   0  0  0  0  0  0  0  0  0  0  0  0
    1.9573    2.8250   25.3901 C   0  0  0  0  0  0  0  0  0  0  0  0
    0.6600    2.6115   24.8619 O   0  0  0  0  0  0  0  0  0  0  0  0
   -2.2049    2.0488   27.4885 C   0  0  1  0  0  0  0  0  0  0  0  0
   -1.0753    2.9701   27.4011 O   0  0  0  0  0  0  0  0  0  0  0  0
    3.7673    6.4653   23.4769 C   0  0  0  0  0  0  0  0  0  0  0  0
    3.0013    7.1656   22.5113 O   0  0  0  0  0  0  0  0  0  0  0  0
    5.6625    4.6698   28.7472 C   0  0  1  0  0  0  0  0  0  0  0  0
    5.6066    3.3161   28.2996 O   0  0  0  0  0  0  0  0  0  0  0  0
   -2.6284    1.6307   26.0571 C   0  0  0  0  0  0  0  0  0  0  0  0
   -4.0827    1.4211   25.9386 N   0  0  0  0  0  0  0  0  0  0  0  0
  1  2  1  1  0  0  0
  1  7  1  0  0  0  0
  1 30  1  0  0  0  0
  3  4  1  1  0  0  0
  3  9  1  0  0  0  0
  3 39  1  0  0  0  0
  5 10  1  0  0  0  0
  5 26  1  0  0  0  0
  5 32  1  6  0  0  0
  6 12  1  0  0  0  0
  6 36  1  0  0  0  0
  6 19  1  6  0  0  0
  7  8  1  1  0  0  0
  7 14  1  0  0  0  0
  9 16  1  0  0  0  0
 10 11  1  1  0  0  0
 10 18  1  0  0  0  0
 12 13  1  6  0  0  0
 12 20  1  0  0  0  0
 14 15  1  6  0  0  0
 14 22  1  0  0  0  0
 16 17  1  1  0  0  0
 16 24  1  0  0  0  0
 18 19  1  1  0  0  0
 18 25  1  0  0  0  0
 20 21  1  1  0  0  0
 20 27  1  0  0  0  0
 22 23  1  1  0  0  0
 22 29  1  0  0  0  0
 24  2  1  6  0  0  0
 24 31  1  0  0  0  0
 25 26  1  0  0  0  0
 25 33  1  6  0  0  0
 27 28  1  6  0  0  0
 27 35  1  0  0  0  0
 29 30  1  0  0  0  0
 29 37  1  6  0  0  0
 31 32  1  1  0  0  0
 31 39  1  0  0  0  0
 33 34  1  0  0  0  0
 35 36  1  0  0  0  0
 35 41  1  6  0  0  0
 37 38  1  0  0  0  0
 39 40  1  6  0  0  0
 41 42  1  0  0  0  0
M  END
>  <CHROM.1>
-159.88895522,103.21983158,-62.16169960,-163.75130978,68.55682711,145.99719849
64.23276552,148.90464957,174.56582449,110.12764099,73.64055940,-168.78501923
-55.95440808,177.59140125,-44.11400487,-102.95662586,152.08353774,-25.68751460
92.12832019,172.65981344,-177.96562674,166.66073837,3.17335254,5.03697169
26.88448636,0.49321464,-0.49603542,-1.11349819

>  <Name>
1fyp_lig

>  <RI>
0

>  <Rbt.Current_Directory>
/home/itssahil/PROJECTS/Mol_Feturizer/New_Systems/rnas/1fyp

>  <Rbt.Executable>
rbdock ($Id: //depot/dev/client3/rdock/2013.1/src/exe/rbdock.cxx#4 $)

>  <Rbt.Library>
libRbt.so (2013.1, Build901 2013/11/27)

>  <Rbt.Parameter_File>
/export/apps/rDock/src/rDock_2013.1_src/data/scripts/dock_solv.prm

>  <Rbt.Receptor>
prm/blind_docking_100.prm

>  <SCORE>
-46.4489

>  <SCORE.INTER>
-43.4015

>  <SCORE.INTER.CONST>
1

>  <SCORE.INTER.POLAR>
-5.32286

>  <SCORE.INTER.ROT>
14

>  <SCORE.INTER.SOLV>
18.7007

>  <SCORE.INTER.VDW>
-30.3584

>  <SCORE.INTER.norm>
-1.03337

>  <SCORE.INTRA>
-3.17071

>  <SCORE.INTRA.DIHEDRAL>
-10.6087

>  <SCORE.INTRA.DIHEDRAL.0>
48.7173

>  <SCORE.INTRA.POLAR>
-1.51533

>  <SCORE.INTRA.POLAR.0>
-1.54691

>  <SCORE.INTRA.REPUL>
0

>  <SCORE.INTRA.REPUL.0>
0

>  <SCORE.INTRA.SOLV>
-1.00658

>  <SCORE.INTRA.SOLV.lig_0>
-64.052

>  <SCORE.INTRA.VDW>
7.78902

>  <SCORE.INTRA.VDW.0>
-7.0667

>  <SCORE.INTRA.norm>
-0.0754932

>  <SCORE.RESTR>
0.123257

>  <SCORE.RESTR.CAVITY>
0.123257

>  <SCORE.RESTR.norm>
0.00293469

>  <SCORE.SYSTEM>
0

>  <SCORE.SYSTEM.CONST>
0

>  <SCORE.SYSTEM.DIHEDRAL>
0

>  <SCORE.SYSTEM.SOLV>
0

>  <SCORE.SYSTEM.norm>
0

>  <SCORE.heavy>
42

>  <SCORE.norm>
-1.10593

>  <RMSD>
5.304

$$$$
1fyp_lig
 OpenBabel11021811393D
libRbt.so/2013.1/901 2013/11/27
 42 45  0  0  0  0  0  0  0  0999 V2000
    4.8112    5.7073   27.4956 C   0  0  2  0  0  0  0  0  0  0  0  0
    4.7916    4.3297   27.9691 O   0  0  0  0  0  0  0  0  0  0  0  0
    3.3160    2.3553   31.4571 C   0  0  2  0  0  0  0  0  0  0  0  0
    2.5146    1.8375   32.5813 N   0  0  0  0  0  0  0  0  0  0  0  0
    1.5520    1.8328   27.6395 C   0  0  1  0  0  0  0  0  0  0  0  0
   -2.6422    1.7421   26.4885 C   0  0  1  0  0  0  0  0  0  0  0  0
    5.4516    5.8149   26.0742 C   0  0  2  0  0  0  0  0  0  0  0  0
    4.8376    4.8521   25.1352 N   0  0  0  0  0  0  0  0  0  0  0  0
    3.2464    3.8954   31.4441 C   0  0  0  0  0  0  0  0  0  0  0  0
    1.0113    2.8258   26.6074 C   0  0  2  0  0  0  0  0  0  0  0  0
    0.6508    4.0437   27.2602 O   0  0  0  0  0  0  0  0  0  0  0  0
   -3.1582    0.6096   27.4279 C   0  0  2  0  0  0  0  0  0  0  0  0
   -2.1057   -0.3816   27.7596 N   0  0  0  0  0  0  0  0  0  0  0  0
    6.9955    5.5959   26.1418 C   0  0  1  0  0  0  0  0  0  0  0  0
    7.5847    5.8533   24.8696 O   0  0  0  0  0  0  0  0  0  0  0  0
    4.0933    4.5125   30.2977 C   0  0  2  0  0  0  0  0  0  0  0  0
    3.8930    5.9763   30.3260 N   0  0  0  0  0  0  0  0  0  0  0  0
   -0.2241    2.0899   26.0815 C   0  0  2  0  0  0  0  0  0  0  0  0
   -1.3750    2.2772   26.9515 O   0  0  0  0  0  0  0  0  0  0  0  0
   -4.4189   -0.0822   26.8236 C   0  0  1  0  0  0  0  0  0  0  0  0
   -5.5271    0.8065   26.9476 O   0  0  0  0  0  0  0  0  0  0  0  0
    7.6633    6.5207   27.1901 C   0  0  2  0  0  0  0  0  0  0  0  0
    9.0506    6.2080   27.2694 O   0  0  0  0  0  0  0  0  0  0  0  0
    3.7422    3.9123   28.8889 C   0  0  2  0  0  0  0  0  0  0  0  0
    0.2384    0.6264   26.1058 C   0  0  2  0  0  0  0  0  0  0  0  0
    1.1568    0.5199   27.2108 O   0  0  0  0  0  0  0  0  0  0  0  0
   -4.2722   -0.4723   25.3215 C   0  0  2  0  0  0  0  0  0  0  0  0
   -3.3979   -1.5981   25.2279 O   0  0  0  0  0  0  0  0  0  0  0  0
    6.9824    6.3451   28.5771 C   0  0  2  0  0  0  0  0  0  0  0  0
    5.5461    6.5614   28.4356 O   0  0  0  0  0  0  0  0  0  0  0  0
    3.6522    2.3432   28.8978 C   0  0  2  0  0  0  0  0  0  0  0  0
    3.0050    1.9212   27.6692 O   0  0  0  0  0  0  0  0  0  0  0  0
    0.9279    0.1901   24.8009 C   0  0  0  0  0  0  0  0  0  0  0  0
    0.0170    0.2141   23.7158 O   0  0  0  0  0  0  0  0  0  0  0  0
   -3.7046    0.7211   24.4921 C   0  0  1  0  0  0  0  0  0  0  0  0
   -2.4874    1.2227   25.1241 O   0  0  0  0  0  0  0  0  0  0  0  0
    7.4715    7.3235   29.6683 C   0  0  0  0  0  0  0  0  0  0  0  0
    8.8606    7.1747   29.9082 O   0  0  0  0  0  0  0  0  0  0  0  0
    2.8300    1.7875   30.1018 C   0  0  1  0  0  0  0  0  0  0  0  0
    2.9476    0.3657   30.1209 O   0  0  0  0  0  0  0  0  0  0  0  0
   -3.3894    0.3333   23.0247 C   0  0  0  0  0  0  0  0  0  0  0  0
   -4.5902   -0.0961   22.2853 N   0  0  0  0  0  0  0  0  0  0  0  0
  1  2  1  1  0  0  0
  1  7  1  0  0  0  0
  1 30  1  0  0  0  0
  3  4  1  1  0  0  0
  3  9  1  0  0  0  0
  3 39  1  0  0  0  0
  5 10  1  0  0  0  0
  5 26  1  0  0  0  0
  5 32  1  6  0  0  0
  6 12  1  0  0  0  0
  6 36  1  0  0  0  0
  6 19  1  1  0  0  0
  7  8  1  6  0  0  0
  7 14  1  0  0  0  0
  9 16  1  0  0  0  0
 10 11  1  1  0  0  0
 10 18  1  0  0  0  0
 12 13  1  6  0  0  0
 12 20  1  0  0  0  0
 14 15  1  6  0  0  0
 14 22  1  0  0  0  0
 16 17  1  6  0  0  0
 16 24  1  0  0  0  0
 18 19  1  1  0  0  0
 18 25  1  0  0  0  0
 20 21  1  6  0  0  0
 20 27  1  0  0  0  0
 22 23  1  1  0  0  0
 22 29  1  0  0  0  0
 24  2  1  6  0  0  0
 24 31  1  0  0  0  0
 25 26  1  0  0  0  0
 25 33  1  6  0  0  0
 27 28  1  1  0  0  0
 27 35  1  0  0  0  0
 29 30  1  0  0  0  0
 29 37  1  1  0  0  0
 31 32  1  6  0  0  0
 31 39  1  0  0  0  0
 33 34  1  0  0  0  0
 35 36  1  0  0  0  0
 35 41  1  6  0  0  0
 37 38  1  0  0  0  0
 39 40  1  1  0  0  0
 41 42  1  0  0  0  0
M  END
>  <CHROM.1>
-151.01242737,-74.96704956,-151.36132419,60.36050078,162.56021743,-43.09125535
158.12686452,47.36944215,173.85321397,115.97166613,55.26608433,-26.92051860
-65.12427358,169.43879329,-60.31301390,-87.82614825,117.49661349,141.94245898
62.02600793,-66.58631817,177.14614551,87.68096277,1.86140093,2.81975326,27.30639169
-0.19820403,-0.54417235,-1.44770203

>  <Name>
1fyp_lig

>  <RI>
0

>  <Rbt.Current_Directory>
/home/itssahil/PROJECTS/Mol_Feturizer/New_Systems/rnas/1fyp

>  <Rbt.Executable>
rbdock ($Id: //depot/dev/client3/rdock/2013.1/src/exe/rbdock.cxx#4 $)

>  <Rbt.Library>
libRbt.so (2013.1, Build901 2013/11/27)

>  <Rbt.Parameter_File>
/export/apps/rDock/src/rDock_2013.1_src/data/scripts/dock_solv.prm

>  <Rbt.Receptor>
prm/blind_docking_40.prm

>  <SCORE>
-36.0274

>  <SCORE.INTER>
-40.0868

>  <SCORE.INTER.CONST>
1

>  <SCORE.INTER.POLAR>
-4.81201

>  <SCORE.INTER.ROT>
14

>  <SCORE.INTER.SOLV>
19.22

>  <SCORE.INTER.VDW>
-30.0245

>  <SCORE.INTER.norm>
-0.954449

>  <SCORE.INTRA>
4.0534

>  <SCORE.INTRA.DIHEDRAL>
-9.50526

>  <SCORE.INTRA.DIHEDRAL.0>
48.7173

>  <SCORE.INTRA.POLAR>
0.590195

>  <SCORE.INTRA.POLAR.0>
-1.54691

>  <SCORE.INTRA.REPUL>
0.278365

>  <SCORE.INTRA.REPUL.0>
0

>  <SCORE.INTRA.SOLV>
-0.278711

>  <SCORE.INTRA.SOLV.lig_0>
-64.052

>  <SCORE.INTRA.VDW>
5.54691

>  <SCORE.INTRA.VDW.0>
-7.0667

>  <SCORE.INTRA.norm>
0.0965096

>  <SCORE.RESTR>
0.00608928

>  <SCORE.RESTR.CAVITY>
0.00608928

>  <SCORE.RESTR.norm>
0.000144983

>  <SCORE.SYSTEM>
0

>  <SCORE.SYSTEM.CONST>
0

>  <SCORE.SYSTEM.DIHEDRAL>
0

>  <SCORE.SYSTEM.SOLV>
0

>  <SCORE.SYSTEM.norm>
0

>  <SCORE.heavy>
42

>  <SCORE.norm>
-0.857794

>  <RMSD>
5.329

$$$$
1fyp_lig
 OpenBabel11021811393D
libRbt.so/2013.1/901 2013/11/27
 42 45  0  0  0  0  0  0  0  0999 V2000
    4.2287    7.7562   25.0699 C   0  0  2  0  0  0  0  0  0  0  0  0
    5.6381    7.4463   24.8700 O   0  0  0  0  0  0  0  0  0  0  0  0
    9.3852    7.3959   26.9188 C   0  0  2  0  0  0  0  0  0  0  0  0
   10.5792    7.6904   27.7325 N   0  0  0  0  0  0  0  0  0  0  0  0
    4.6350    5.9680   27.6340 C   0  0  1  0  0  0  0  0  0  0  0  0
    2.0467    2.4116   27.8339 C   0  0  1  0  0  0  0  0  0  0  0  0
    3.3365    7.1010   23.9668 C   0  0  2  0  0  0  0  0  0  0  0  0
    3.6334    5.6598   23.8230 N   0  0  0  0  0  0  0  0  0  0  0  0
    9.1540    8.5421   25.9139 C   0  0  0  0  0  0  0  0  0  0  0  0
    5.1756    4.5638   27.9162 C   0  0  2  0  0  0  0  0  0  0  0  0
    5.5916    3.9577   26.6918 O   0  0  0  0  0  0  0  0  0  0  0  0
    1.2980    1.8401   26.5913 C   0  0  2  0  0  0  0  0  0  0  0  0
    0.8699    2.8992   25.6451 N   0  0  0  0  0  0  0  0  0  0  0  0
    3.5181    7.8303   22.5989 C   0  0  1  0  0  0  0  0  0  0  0  0
    2.5851    7.3272   21.6459 O   0  0  0  0  0  0  0  0  0  0  0  0
    7.9235    8.2848   25.0018 C   0  0  2  0  0  0  0  0  0  0  0  0
    7.7450    9.4712   24.1390 N   0  0  0  0  0  0  0  0  0  0  0  0
    3.9424    3.8629   28.4926 C   0  0  2  0  0  0  0  0  0  0  0  0
    3.0589    3.3761   27.4443 O   0  0  0  0  0  0  0  0  0  0  0  0
    0.0941    0.9499   27.0289 C   0  0  1  0  0  0  0  0  0  0  0  0
    0.6024   -0.2789   27.5439 O   0  0  0  0  0  0  0  0  0  0  0  0
    3.3120    9.3602   22.7298 C   0  0  2  0  0  0  0  0  0  0  0  0
    3.5820    9.9750   21.4736 O   0  0  0  0  0  0  0  0  0  0  0  0
    6.6178    7.9649   25.8148 C   0  0  2  0  0  0  0  0  0  0  0  0
    3.2698    4.9937   29.2834 C   0  0  2  0  0  0  0  0  0  0  0  0
    3.5743    6.2093   28.5724 O   0  0  0  0  0  0  0  0  0  0  0  0
   -0.8131    1.5974   28.1187 C   0  0  2  0  0  0  0  0  0  0  0  0
   -1.5813    2.6373   27.5111 O   0  0  0  0  0  0  0  0  0  0  0  0
    4.2428    9.9383   23.8334 C   0  0  2  0  0  0  0  0  0  0  0  0
    4.0199    9.2086   25.0774 O   0  0  0  0  0  0  0  0  0  0  0  0
    6.8507    6.9084   26.9549 C   0  0  2  0  0  0  0  0  0  0  0  0
    5.7007    6.9384   27.8399 O   0  0  0  0  0  0  0  0  0  0  0  0
    3.7672    5.0920   30.7365 C   0  0  0  0  0  0  0  0  0  0  0  0
    3.0017    6.0322   31.4698 O   0  0  0  0  0  0  0  0  0  0  0  0
    0.0479    2.1746   29.2849 C   0  0  1  0  0  0  0  0  0  0  0  0
    1.0854    3.0479   28.7429 O   0  0  0  0  0  0  0  0  0  0  0  0
    4.0202   11.4336   24.1519 C   0  0  0  0  0  0  0  0  0  0  0  0
    2.7519   11.6502   24.7466 O   0  0  0  0  0  0  0  0  0  0  0  0
    8.1292    7.1979   27.8011 C   0  0  1  0  0  0  0  0  0  0  0  0
    8.3493    6.1034   28.6896 O   0  0  0  0  0  0  0  0  0  0  0  0
   -0.7955    2.9699   30.3141 C   0  0  0  0  0  0  0  0  0  0  0  0
   -1.8578    2.1506   30.9249 N   0  0  0  0  0  0  0  0  0  0  0  0
  1  2  1  6  0  0  0
  1  7  1  0  0  0  0
  1 30  1  0  0  0  0
  3  4  1  1  0  0  0
  3  9  1  0  0  0  0
  3 39  1  0  0  0  0
  5 10  1  0  0  0  0
  5 26  1  0  0  0  0
  5 32  1  1  0  0  0
  6 12  1  0  0  0  0
  6 36  1  0  0  0  0
  6 19  1  6  0  0  0
  7  8  1  6  0  0  0
  7 14  1  0  0  0  0
  9 16  1  0  0  0  0
 10 11  1  6  0  0  0
 10 18  1  0  0  0  0
 12 13  1  6  0  0  0
 12 20  1  0  0  0  0
 14 15  1  6  0  0  0
 14 22  1  0  0  0  0
 16 17  1  1  0  0  0
 16 24  1  0  0  0  0
 18 19  1  6  0  0  0
 18 25  1  0  0  0  0
 20 21  1  1  0  0  0
 20 27  1  0  0  0  0
 22 23  1  6  0  0  0
 22 29  1  0  0  0  0
 24  2  1  6  0  0  0
 24 31  1  0  0  0  0
 25 26  1  0  0  0  0
 25 33  1  1  0  0  0
 27 28  1  6  0  0  0
 27 35  1  0  0  0  0
 29 30  1  0  0  0  0
 29 37  1  1  0  0  0
 31 32  1  1  0  0  0
 31 39  1  0  0  0  0
 33 34  1  0  0  0  0
 35 36  1  0  0  0  0
 35 41  1  1  0  0  0
 37 38  1  0  0  0  0
 39 40  1  1  0  0  0
 41 42  1  0  0  0  0
M  END
>  <CHROM.1>
-179.39299418,-145.49141965,-54.25540463,-60.47279290,72.36838272,163.24990609
-43.20475228,156.60202650,164.77508704,-172.63141283,-59.59770476,-57.00280762
-172.60269115,169.14250013,66.77211460,96.03954218,65.54763719,63.72919409
58.85232685,161.57795500,57.76176619,39.82193119,3.83486671,5.90069830,26.62725747
0.83562996,-0.41249044,-0.86617615

>  <Name>
1fyp_lig

>  <RI>
0

>  <Rbt.Current_Directory>
/home/itssahil/PROJECTS/Mol_Feturizer/New_Systems/rnas/1fyp

>  <Rbt.Executable>
rbdock ($Id: //depot/dev/client3/rdock/2013.1/src/exe/rbdock.cxx#4 $)

>  <Rbt.Library>
libRbt.so (2013.1, Build901 2013/11/27)

>  <Rbt.Parameter_File>
/export/apps/rDock/src/rDock_2013.1_src/data/scripts/dock_solv.prm

>  <Rbt.Receptor>
prm/pocket_docking_6.prm

>  <SCORE>
-57.0492

>  <SCORE.INTER>
-45.0324

>  <SCORE.INTER.CONST>
1

>  <SCORE.INTER.POLAR>
-6.25528

>  <SCORE.INTER.ROT>
14

>  <SCORE.INTER.SOLV>
20.2748

>  <SCORE.INTER.VDW>
-28.8623

>  <SCORE.INTER.norm>
-1.0722

>  <SCORE.INTRA>
-12.0168

>  <SCORE.INTRA.DIHEDRAL>
-30.9105

>  <SCORE.INTRA.DIHEDRAL.0>
48.7173

>  <SCORE.INTRA.POLAR>
1.09412

>  <SCORE.INTRA.POLAR.0>
-1.54691

>  <SCORE.INTRA.REPUL>
0

>  <SCORE.INTRA.REPUL.0>
0

>  <SCORE.INTRA.SOLV>
-2.26289

>  <SCORE.INTRA.SOLV.lig_0>
-64.052

>  <SCORE.INTRA.VDW>
0.849889

>  <SCORE.INTRA.VDW.0>
-7.0667

>  <SCORE.INTRA.norm>
-0.286114

>  <SCORE.RESTR>
0

>  <SCORE.RESTR.CAVITY>
0

>  <SCORE.RESTR.norm>
0

>  <SCORE.SYSTEM>
0

>  <SCORE.SYSTEM.CONST>
0

>  <SCORE.SYSTEM.DIHEDRAL>
0

>  <SCORE.SYSTEM.SOLV>
0

>  <SCORE.SYSTEM.norm>
0

>  <SCORE.heavy>
42

>  <SCORE.norm>
-1.35831

>  <RMSD>
5.330

$$$$
1fyp_lig
 OpenBabel11021811393D
libRbt.so/2013.1/901 2013/11/27
 42 45  0  0  0  0  0  0  0  0999 V2000
    3.4740    7.6203   26.1802 C   0  0  2  0  0  0  0  0  0  0  0  0
    3.0562    6.2517   25.9073 O   0  0  0  0  0  0  0  0  0  0  0  0
    5.9720    3.1325   25.8112 C   0  0  2  0  0  0  0  0  0  0  0  0
    6.9196    2.0448   26.1169 N   0  0  0  0  0  0  0  0  0  0  0  0
    1.5054    2.3549   25.3111 C   0  0  1  0  0  0  0  0  0  0  0  0
   -0.8935   -0.9729   23.8829 C   0  0  1  0  0  0  0  0  0  0  0  0
    2.5248    8.6559   25.4957 C   0  0  2  0  0  0  0  0  0  0  0  0
    1.1078    8.3731   25.8086 N   0  0  0  0  0  0  0  0  0  0  0  0
    6.2779    4.3470   26.7102 C   0  0  0  0  0  0  0  0  0  0  0  0
    1.4198    1.0635   26.1289 C   0  0  2  0  0  0  0  0  0  0  0  0
    2.5234    0.2180   25.8024 O   0  0  0  0  0  0  0  0  0  0  0  0
   -1.3932   -2.0448   24.8990 C   0  0  2  0  0  0  0  0  0  0  0  0
   -0.2917   -2.8807   25.4358 N   0  0  0  0  0  0  0  0  0  0  0  0
    2.7446    8.6754   23.9506 C   0  0  1  0  0  0  0  0  0  0  0  0
    1.9906    9.7310   23.3600 O   0  0  0  0  0  0  0  0  0  0  0  0
    5.3317    5.5446   26.4222 C   0  0  2  0  0  0  0  0  0  0  0  0
    5.6550    6.6172   27.3858 N   0  0  0  0  0  0  0  0  0  0  0  0
    0.0981    0.4676   25.6366 C   0  0  2  0  0  0  0  0  0  0  0  0
    0.2666   -0.2633   24.3900 O   0  0  0  0  0  0  0  0  0  0  0  0
   -2.5183   -2.9239   24.2710 C   0  0  1  0  0  0  0  0  0  0  0  0
   -3.7108   -2.1459   24.1921 O   0  0  0  0  0  0  0  0  0  0  0  0
    4.2371    8.8707   23.5834 C   0  0  2  0  0  0  0  0  0  0  0  0
    4.3829    8.7860   22.1691 O   0  0  0  0  0  0  0  0  0  0  0  0
    3.8122    5.1513   26.4896 C   0  0  2  0  0  0  0  0  0  0  0  0
   -0.7579    1.7224   25.4150 C   0  0  2  0  0  0  0  0  0  0  0  0
    0.1585    2.7623   25.0217 O   0  0  0  0  0  0  0  0  0  0  0  0
   -2.1879   -3.4562   22.8436 C   0  0  2  0  0  0  0  0  0  0  0  0
   -1.2083   -4.4894   22.9597 O   0  0  0  0  0  0  0  0  0  0  0  0
    5.1122    7.7964   24.2893 C   0  0  2  0  0  0  0  0  0  0  0  0
    4.8522    7.8355   25.7248 O   0  0  0  0  0  0  0  0  0  0  0  0
    3.4880    3.8267   25.7083 C   0  0  2  0  0  0  0  0  0  0  0  0
    2.1662    3.3793   26.1072 O   0  0  0  0  0  0  0  0  0  0  0  0
   -1.5366    2.1508   26.6715 C   0  0  0  0  0  0  0  0  0  0  0  0
   -2.6854    1.3417   26.8541 O   0  0  0  0  0  0  0  0  0  0  0  0
   -1.6536   -2.3069   21.9337 C   0  0  1  0  0  0  0  0  0  0  0  0
   -0.5567   -1.6175   22.6076 O   0  0  0  0  0  0  0  0  0  0  0  0
    6.6357    7.9812   24.1107 C   0  0  0  0  0  0  0  0  0  0  0  0
    7.2693    8.2585   25.3480 O   0  0  0  0  0  0  0  0  0  0  0  0
    4.5045    2.6807   26.0051 C   0  0  1  0  0  0  0  0  0  0  0  0
    4.2319    1.5872   25.1300 O   0  0  0  0  0  0  0  0  0  0  0  0
   -1.1599   -2.8160   20.5552 C   0  0  0  0  0  0  0  0  0  0  0  0
   -2.1280   -2.5483   19.4763 N   0  0  0  0  0  0  0  0  0  0  0  0
  1  2  1  6  0  0  0
  1  7  1  0  0  0  0
  1 30  1  0  0  0  0
  3  4  1  1  0  0  0
  3  9  1  0  0  0  0
  3 39  1  0  0  0  0
  5 10  1  0  0  0  0
  5 26  1  0  0  0  0
  5 32  1  1  0  0  0
  6 12  1  0  0  0  0
  6 36  1  0  0  0  0
  6 19  1  1  0  0  0
  7  8  1  6  0  0  0
  7 14  1  0  0  0  0
  9 16  1  0  0  0  0
 10 11  1  6  0  0  0
 10 18  1  0  0  0  0
 12 13  1  6  0  0  0
 12 20  1  0  0  0  0
 14 15  1  6  0  0  0
 14 22  1  0  0  0  0
 16 17  1  1  0  0  0
 16 24  1  0  0  0  0
 18 19  1  6  0  0  0
 18 25  1  0  0  0  0
 20 21  1  6  0  0  0
 20 27  1  0  0  0  0
 22 23  1  6  0  0  0
 22 29  1  0  0  0  0
 24  2  1  6  0  0  0
 24 31  1  0  0  0  0
 25 26  1  0  0  0  0
 25 33  1  1  0  0  0
 27 28  1  1  0  0  0
 27 35  1  0  0  0  0
 29 30  1  0  0  0  0
 29 37  1  1  0  0  0
 31 32  1  1  0  0  0
 31 39  1  0  0  0  0
 33 34  1  0  0  0  0
 35 36  1  0  0  0  0
 35 41  1  6  0  0  0
 37 38  1  0  0  0  0
 39 40  1  6  0  0  0
 41 42  1  0  0  0  0
M  END
>  <CHROM.1>
-178.78821039,-39.06080673,-57.33195680,-79.14894468,85.62216833,20.18214212
86.81178947,-26.82652846,174.79916509,-60.01160844,-56.26436986,-179.42274227
-78.39119389,31.05138130,115.20404018,166.03596096,111.27870945,-176.68061923
102.75793975,-62.33747898,-56.80987384,-68.69587329,1.87929140,2.87121409
24.80455222,0.95047547,-0.40385029,-0.10188165

>  <Name>
1fyp_lig

>  <RI>
0

>  <Rbt.Current_Directory>
/home/itssahil/PROJECTS/Mol_Feturizer/New_Systems/rnas/1fyp

>  <Rbt.Executable>
rbdock ($Id: //depot/dev/client3/rdock/2013.1/src/exe/rbdock.cxx#4 $)

>  <Rbt.Library>
libRbt.so (2013.1, Build901 2013/11/27)

>  <Rbt.Parameter_File>
/export/apps/rDock/src/rDock_2013.1_src/data/scripts/dock_solv.prm

>  <Rbt.Receptor>
prm/blind_docking_80.prm

>  <SCORE>
-13.2748

>  <SCORE.INTER>
-23.2918

>  <SCORE.INTER.CONST>
1

>  <SCORE.INTER.POLAR>
-4.69117

>  <SCORE.INTER.ROT>
14

>  <SCORE.INTER.SOLV>
22.9333

>  <SCORE.INTER.VDW>
-20.4684

>  <SCORE.INTER.norm>
-0.554567

>  <SCORE.INTRA>
9.94568

>  <SCORE.INTRA.DIHEDRAL>
-14.6469

>  <SCORE.INTRA.DIHEDRAL.0>
48.7173

>  <SCORE.INTRA.POLAR>
0.711664

>  <SCORE.INTRA.POLAR.0>
-1.54691

>  <SCORE.INTRA.REPUL>
0

>  <SCORE.INTRA.REPUL.0>
0

>  <SCORE.INTRA.SOLV>
-0.699332

>  <SCORE.INTRA.SOLV.lig_0>
-64.052

>  <SCORE.INTRA.VDW>
15.1991

>  <SCORE.INTRA.VDW.0>
-7.0667

>  <SCORE.INTRA.norm>
0.236802

>  <SCORE.RESTR>
0.0713868

>  <SCORE.RESTR.CAVITY>
0.0713868

>  <SCORE.RESTR.norm>
0.00169968

>  <SCORE.SYSTEM>
0

>  <SCORE.SYSTEM.CONST>
0

>  <SCORE.SYSTEM.DIHEDRAL>
0

>  <SCORE.SYSTEM.SOLV>
0

>  <SCORE.SYSTEM.norm>
0

>  <SCORE.heavy>
42

>  <SCORE.norm>
-0.316066

>  <RMSD>
5.333

$$$$
1fyp_lig
 OpenBabel11021811393D
libRbt.so/2013.1/901 2013/11/27
 42 45  0  0  0  0  0  0  0  0999 V2000
    3.6076    7.3843   26.5851 C   0  0  2  0  0  0  0  0  0  0  0  0
    3.9449    6.0671   27.1080 O   0  0  0  0  0  0  0  0  0  0  0  0
    5.8441    4.1579   30.4230 C   0  0  2  0  0  0  0  0  0  0  0  0
    6.4029    3.7834   31.7352 N   0  0  0  0  0  0  0  0  0  0  0  0
    1.3709    3.6584   28.9213 C   0  0  1  0  0  0  0  0  0  0  0  0
   -1.9436    1.4338   26.9354 C   0  0  1  0  0  0  0  0  0  0  0  0
    2.3106    7.3396   25.7145 C   0  0  2  0  0  0  0  0  0  0  0  0
    1.2078    6.6625   26.4294 N   0  0  0  0  0  0  0  0  0  0  0  0
    6.3817    5.5435   30.0132 C   0  0  0  0  0  0  0  0  0  0  0  0
    0.2962    4.1420   27.9440 C   0  0  2  0  0  0  0  0  0  0  0  0
   -0.8766    4.5126   28.6697 O   0  0  0  0  0  0  0  0  0  0  0  0
   -3.0124    0.7113   27.8112 C   0  0  2  0  0  0  0  0  0  0  0  0
   -2.4093   -0.2158   28.7996 N   0  0  0  0  0  0  0  0  0  0  0  0
    2.5823    6.6364   24.3478 C   0  0  1  0  0  0  0  0  0  0  0  0
    1.4387    6.7437   23.5038 O   0  0  0  0  0  0  0  0  0  0  0  0
    5.8535    5.9912   28.6228 C   0  0  2  0  0  0  0  0  0  0  0  0
    6.3601    7.3553   28.3653 N   0  0  0  0  0  0  0  0  0  0  0  0
    0.0541    2.8885   27.0987 C   0  0  2  0  0  0  0  0  0  0  0  0
   -0.8671    1.9689   27.7486 O   0  0  0  0  0  0  0  0  0  0  0  0
   -4.0629   -0.0172   26.9175 C   0  0  1  0  0  0  0  0  0  0  0  0
   -4.9128    0.9632   26.3259 O   0  0  0  0  0  0  0  0  0  0  0  0
    3.7971    7.2559   23.6124 C   0  0  2  0  0  0  0  0  0  0  0  0
    4.0489    6.5134   22.4233 O   0  0  0  0  0  0  0  0  0  0  0  0
    4.2871    5.9314   28.5173 C   0  0  2  0  0  0  0  0  0  0  0  0
    1.4601    2.2776   27.0189 C   0  0  2  0  0  0  0  0  0  0  0  0
    2.1127    2.6236   28.2560 O   0  0  0  0  0  0  0  0  0  0  0  0
   -3.4404   -0.8763   25.7753 C   0  0  2  0  0  0  0  0  0  0  0  0
   -2.8637   -2.0491   26.3518 O   0  0  0  0  0  0  0  0  0  0  0  0
    5.0480    7.2506   24.5363 C   0  0  2  0  0  0  0  0  0  0  0  0
    4.7189    7.9199   25.7907 O   0  0  0  0  0  0  0  0  0  0  0  0
    3.6877    4.5882   29.0710 C   0  0  2  0  0  0  0  0  0  0  0  0
    2.2576    4.7682   29.2407 O   0  0  0  0  0  0  0  0  0  0  0  0
    2.2781    2.8009   25.8249 C   0  0  0  0  0  0  0  0  0  0  0  0
    2.2958    4.2176   25.8069 O   0  0  0  0  0  0  0  0  0  0  0  0
   -2.3543   -0.0660   25.0018 C   0  0  1  0  0  0  0  0  0  0  0  0
   -1.3947    0.4957   25.9485 O   0  0  0  0  0  0  0  0  0  0  0  0
    6.2839    7.9761   23.9590 C   0  0  0  0  0  0  0  0  0  0  0  0
    6.0423    9.3649   23.8090 O   0  0  0  0  0  0  0  0  0  0  0  0
    4.2966    4.1709   30.4457 C   0  0  1  0  0  0  0  0  0  0  0  0
    3.8225    2.8678   30.7813 O   0  0  0  0  0  0  0  0  0  0  0  0
   -1.5933   -0.9275   23.9617 C   0  0  0  0  0  0  0  0  0  0  0  0
   -0.6903   -1.9064   24.5936 N   0  0  0  0  0  0  0  0  0  0  0  0
  1  2  1  6  0  0  0
  1  7  1  0  0  0  0
  1 30  1  0  0  0  0
  3  4  1  1  0  0  0
  3  9  1  0  0  0  0
  3 39  1  0  0  0  0
  5 10  1  0  0  0  0
  5 26  1  0  0  0  0
  5 32  1  6  0  0  0
  6 12  1  0  0  0  0
  6 36  1  0  0  0  0
  6 19  1  1  0  0  0
  7  8  1  1  0  0  0
  7 14  1  0  0  0  0
  9 16  1  0  0  0  0
 10 11  1  1  0  0  0
 10 18  1  0  0  0  0
 12 13  1  1  0  0  0
 12 20  1  0  0  0  0
 14 15  1  6  0  0  0
 14 22  1  0  0  0  0
 16 17  1  1  0  0  0
 16 24  1  0  0  0  0
 18 19  1  1  0  0  0
 18 25  1  0  0  0  0
 20 21  1  6  0  0  0
 20 27  1  0  0  0  0
 22 23  1  6  0  0  0
 22 29  1  0  0  0  0
 24  2  1  6  0  0  0
 24 31  1  0  0  0  0
 25 26  1  0  0  0  0
 25 33  1  6  0  0  0
 27 28  1  1  0  0  0
 27 35  1  0  0  0  0
 29 30  1  0  0  0  0
 29 37  1  6  0  0  0
 31 32  1  1  0  0  0
 31 39  1  0  0  0  0
 33 34  1  0  0  0  0
 35 36  1  0  0  0  0
 35 41  1  6  0  0  0
 37 38  1  0  0  0  0
 39 40  1  6  0  0  0
 41 42  1  0  0  0  0
M  END
>  <CHROM.1>
-132.88222734,-95.27777375,-33.70420356,-11.95880663,-177.98833809,-84.61498626
-82.98209253,76.75529683,132.60125021,-168.18897132,177.65334331,43.39204446
52.32158137,68.76155211,65.11740510,142.01006453,-127.03402047,67.43713768
-70.94894892,67.14927837,-37.72782611,175.71286910,1.74187461,3.87353488
26.90586717,0.31568194,-0.68410835,-1.06172646

>  <Name>
1fyp_lig

>  <RI>
0

>  <Rbt.Current_Directory>
/home/itssahil/PROJECTS/Mol_Feturizer/New_Systems/rnas/1fyp

>  <Rbt.Executable>
rbdock ($Id: //depot/dev/client3/rdock/2013.1/src/exe/rbdock.cxx#4 $)

>  <Rbt.Library>
libRbt.so (2013.1, Build901 2013/11/27)

>  <Rbt.Parameter_File>
/export/apps/rDock/src/rDock_2013.1_src/data/scripts/dock_solv.prm

>  <Rbt.Receptor>
prm/blind_docking_60.prm

>  <SCORE>
-45.2543

>  <SCORE.INTER>
-41.2458

>  <SCORE.INTER.CONST>
1

>  <SCORE.INTER.POLAR>
-5.57946

>  <SCORE.INTER.ROT>
14

>  <SCORE.INTER.SOLV>
16.7585

>  <SCORE.INTER.VDW>
-27.4185

>  <SCORE.INTER.norm>
-0.982043

>  <SCORE.INTRA>
-4.83761

>  <SCORE.INTRA.DIHEDRAL>
-6.68742

>  <SCORE.INTRA.DIHEDRAL.0>
48.7173

>  <SCORE.INTRA.POLAR>
-1.03468

>  <SCORE.INTRA.POLAR.0>
-1.54691

>  <SCORE.INTRA.REPUL>
0

>  <SCORE.INTRA.REPUL.0>
0

>  <SCORE.INTRA.SOLV>
2.30385

>  <SCORE.INTRA.SOLV.lig_0>
-64.052

>  <SCORE.INTRA.VDW>
0.872078

>  <SCORE.INTRA.VDW.0>
-7.0667

>  <SCORE.INTRA.norm>
-0.115181

>  <SCORE.RESTR>
0.829138

>  <SCORE.RESTR.CAVITY>
0.829138

>  <SCORE.RESTR.norm>
0.0197414

>  <SCORE.SYSTEM>
0

>  <SCORE.SYSTEM.CONST>
0

>  <SCORE.SYSTEM.DIHEDRAL>
0

>  <SCORE.SYSTEM.SOLV>
0

>  <SCORE.SYSTEM.norm>
0

>  <SCORE.heavy>
42

>  <SCORE.norm>
-1.07748

>  <RMSD>
5.339

$$$$
1fyp_lig
 OpenBabel11021811393D
libRbt.so/2013.1/901 2013/11/27
 42 45  0  0  0  0  0  0  0  0999 V2000
    3.8219    4.9147   25.6121 C   0  0  2  0  0  0  0  0  0  0  0  0
    3.4869    5.1811   27.0046 O   0  0  0  0  0  0  0  0  0  0  0  0
    2.9393    2.0908   29.9013 C   0  0  2  0  0  0  0  0  0  0  0  0
    2.4165    1.0763   30.8351 N   0  0  0  0  0  0  0  0  0  0  0  0
    1.3627    2.5210   25.7707 C   0  0  1  0  0  0  0  0  0  0  0  0
   -2.0213    0.9034   24.2297 C   0  0  1  0  0  0  0  0  0  0  0  0
    5.3671    4.8073   25.4055 C   0  0  2  0  0  0  0  0  0  0  0  0
    5.9734    3.8679   26.3728 N   0  0  0  0  0  0  0  0  0  0  0  0
    2.2745    3.4502   30.1961 C   0  0  0  0  0  0  0  0  0  0  0  0
    0.7326    1.1261   25.7436 C   0  0  2  0  0  0  0  0  0  0  0  0
    0.7140    0.6369   24.4020 O   0  0  0  0  0  0  0  0  0  0  0  0
   -3.5302    1.1093   23.8949 C   0  0  2  0  0  0  0  0  0  0  0  0
   -4.3636    1.3003   25.1071 N   0  0  0  0  0  0  0  0  0  0  0  0
    6.0420    6.2102   25.5172 C   0  0  1  0  0  0  0  0  0  0  0  0
    7.4218    6.1210   25.1706 O   0  0  0  0  0  0  0  0  0  0  0  0
    2.8002    4.5760   29.2641 C   0  0  2  0  0  0  0  0  0  0  0  0
    2.0453    5.8079   29.5741 N   0  0  0  0  0  0  0  0  0  0  0  0
   -0.6835    1.4116   26.2510 C   0  0  2  0  0  0  0  0  0  0  0  0
   -1.5523    1.8891   25.1863 O   0  0  0  0  0  0  0  0  0  0  0  0
   -4.0687   -0.0605   23.0148 C   0  0  1  0  0  0  0  0  0  0  0  0
   -3.5454    0.0860   21.6964 O   0  0  0  0  0  0  0  0  0  0  0  0
    5.3669    7.2500   24.5881 C   0  0  2  0  0  0  0  0  0  0  0  0
    5.9647    8.5246   24.8049 O   0  0  0  0  0  0  0  0  0  0  0  0
    2.6943    4.2059   27.7410 C   0  0  2  0  0  0  0  0  0  0  0  0
   -0.4376    2.5195   27.2847 C   0  0  2  0  0  0  0  0  0  0  0  0
    0.6964    3.2661   26.8026 O   0  0  0  0  0  0  0  0  0  0  0  0
   -3.6855   -1.4784   23.5370 C   0  0  2  0  0  0  0  0  0  0  0  0
   -4.4693   -1.7623   24.6970 O   0  0  0  0  0  0  0  0  0  0  0  0
    3.8376    7.3086   24.8640 C   0  0  2  0  0  0  0  0  0  0  0  0
    3.2783    5.9660   24.7446 O   0  0  0  0  0  0  0  0  0  0  0  0
    3.2234    2.7602   27.4246 C   0  0  2  0  0  0  0  0  0  0  0  0
    2.7775    2.3980   26.0918 O   0  0  0  0  0  0  0  0  0  0  0  0
   -0.1516    1.9752   28.6956 C   0  0  0  0  0  0  0  0  0  0  0  0
   -1.3395    1.4988   29.3036 O   0  0  0  0  0  0  0  0  0  0  0  0
   -2.1657   -1.5492   23.8830 C   0  0  1  0  0  0  0  0  0  0  0  0
   -1.8130   -0.4451   24.7712 O   0  0  0  0  0  0  0  0  0  0  0  0
    3.0378    8.2086   23.8958 C   0  0  0  0  0  0  0  0  0  0  0  0
    2.9439    9.5356   24.3852 O   0  0  0  0  0  0  0  0  0  0  0  0
    2.6972    1.6866   28.4271 C   0  0  1  0  0  0  0  0  0  0  0  0
    3.3601    0.4504   28.1658 O   0  0  0  0  0  0  0  0  0  0  0  0
   -1.7676   -2.8873   24.5568 C   0  0  0  0  0  0  0  0  0  0  0  0
   -0.4733   -2.8019   25.2572 N   0  0  0  0  0  0  0  0  0  0  0  0
  1  2  1  1  0  0  0
  1  7  1  0  0  0  0
  1 30  1  0  0  0  0
  3  4  1  1  0  0  0
  3  9  1  0  0  0  0
  3 39  1  0  0  0  0
  5 10  1  0  0  0  0
  5 26  1  0  0  0  0
  5 32  1  1  0  0  0
  6 12  1  0  0  0  0
  6 36  1  0  0  0  0
  6 19  1  1  0  0  0
  7  8  1  1  0  0  0
  7 14  1  0  0  0  0
  9 16  1  0  0  0  0
 10 11  1  6  0  0  0
 10 18  1  0  0  0  0
 12 13  1  1  0  0  0
 12 20  1  0  0  0  0
 14 15  1  6  0  0  0
 14 22  1  0  0  0  0
 16 17  1  6  0  0  0
 16 24  1  0  0  0  0
 18 19  1  6  0  0  0
 18 25  1  0  0  0  0
 20 21  1  6  0  0  0
 20 27  1  0  0  0  0
 22 23  1  1  0  0  0
 22 29  1  0  0  0  0
 24  2  1  6  0  0  0
 24 31  1  0  0  0  0
 25 26  1  0  0  0  0
 25 33  1  1  0  0  0
 27 28  1  1  0  0  0
 27 35  1  0  0  0  0
 29 30  1  0  0  0  0
 29 37  1  6  0  0  0
 31 32  1  6  0  0  0
 31 39  1  0  0  0  0
 33 34  1  0  0  0  0
 35 36  1  0  0  0  0
 35 41  1  1  0  0  0
 37 38  1  0  0  0  0
 39 40  1  6  0  0  0
 41 42  1  0  0  0  0
M  END
>  <CHROM.1>
-117.93125660,166.14619843,177.39527343,176.56884304,75.41657394,84.55780451
56.39523381,-139.55573557,75.01990012,137.62109813,54.51073750,65.04556629
-74.64290979,175.38389739,-90.62197941,-52.31093943,-104.90635761,-51.80967159
-161.93130395,163.09601679,-56.70476416,59.77761733,1.22599277,2.76187461
26.04190022,0.27827549,-0.71871167,-0.95948472

>  <Name>
1fyp_lig

>  <RI>
0

>  <Rbt.Current_Directory>
/home/itssahil/PROJECTS/Mol_Feturizer/New_Systems/rnas/1fyp

>  <Rbt.Executable>
rbdock ($Id: //depot/dev/client3/rdock/2013.1/src/exe/rbdock.cxx#4 $)

>  <Rbt.Library>
libRbt.so (2013.1, Build901 2013/11/27)

>  <Rbt.Parameter_File>
/export/apps/rDock/src/rDock_2013.1_src/data/scripts/dock_solv.prm

>  <Rbt.Receptor>
prm/blind_docking_60.prm

>  <SCORE>
-43.2304

>  <SCORE.INTER>
-49.8952

>  <SCORE.INTER.CONST>
1

>  <SCORE.INTER.POLAR>
-6.41659

>  <SCORE.INTER.ROT>
14

>  <SCORE.INTER.SOLV>
17.7412

>  <SCORE.INTER.VDW>
-30.7219

>  <SCORE.INTER.norm>
-1.18798

>  <SCORE.INTRA>
6.66487

>  <SCORE.INTRA.DIHEDRAL>
-16.59

>  <SCORE.INTRA.DIHEDRAL.0>
48.7173

>  <SCORE.INTRA.POLAR>
1.54662

>  <SCORE.INTRA.POLAR.0>
-1.54691

>  <SCORE.INTRA.REPUL>
0

>  <SCORE.INTRA.REPUL.0>
0

>  <SCORE.INTRA.SOLV>
-0.496731

>  <SCORE.INTRA.SOLV.lig_0>
-64.052

>  <SCORE.INTRA.VDW>
9.94975

>  <SCORE.INTRA.VDW.0>
-7.0667

>  <SCORE.INTRA.norm>
0.158687

>  <SCORE.RESTR>
0

>  <SCORE.RESTR.CAVITY>
0

>  <SCORE.RESTR.norm>
0

>  <SCORE.SYSTEM>
0

>  <SCORE.SYSTEM.CONST>
0

>  <SCORE.SYSTEM.DIHEDRAL>
0

>  <SCORE.SYSTEM.SOLV>
0

>  <SCORE.SYSTEM.norm>
0

>  <SCORE.heavy>
42

>  <SCORE.norm>
-1.02929

>  <RMSD>
5.349

$$$$
1fyp_lig
 OpenBabel11021811393D
libRbt.so/2013.1/901 2013/11/27
 42 45  0  0  0  0  0  0  0  0999 V2000
    2.7792    6.7717   25.4663 C   0  0  2  0  0  0  0  0  0  0  0  0
    2.9597    5.3283   25.5465 O   0  0  0  0  0  0  0  0  0  0  0  0
    4.2001    3.7783   29.3280 C   0  0  2  0  0  0  0  0  0  0  0  0
    4.2900    3.2042   30.6832 N   0  0  0  0  0  0  0  0  0  0  0  0
    1.6481    1.7990   26.4466 C   0  0  1  0  0  0  0  0  0  0  0  0
   -2.6798    0.8800   26.7726 C   0  0  1  0  0  0  0  0  0  0  0  0
    2.8599    7.2775   23.9899 C   0  0  2  0  0  0  0  0  0  0  0  0
    1.9673    6.4976   23.1063 N   0  0  0  0  0  0  0  0  0  0  0  0
    3.2544    4.9958   29.3483 C   0  0  0  0  0  0  0  0  0  0  0  0
    0.5198    2.7218   25.9786 C   0  0  2  0  0  0  0  0  0  0  0  0
    0.1735    3.6235   27.0305 O   0  0  0  0  0  0  0  0  0  0  0  0
   -3.0213   -0.1906   27.8535 C   0  0  2  0  0  0  0  0  0  0  0  0
   -1.9600   -1.2170   27.9965 N   0  0  0  0  0  0  0  0  0  0  0  0
    4.3278    7.2217   23.4624 C   0  0  1  0  0  0  0  0  0  0  0  0
    4.4118    7.8318   22.1769 O   0  0  0  0  0  0  0  0  0  0  0  0
    3.1333    5.6694   27.9541 C   0  0  2  0  0  0  0  0  0  0  0  0
    2.1489    6.7657   28.0664 N   0  0  0  0  0  0  0  0  0  0  0  0
   -0.6094    1.7239   25.7073 C   0  0  2  0  0  0  0  0  0  0  0  0
   -1.3229    1.3720   26.9253 O   0  0  0  0  0  0  0  0  0  0  0  0
   -4.4085   -0.8446   27.5690 C   0  0  1  0  0  0  0  0  0  0  0  0
   -5.4288    0.0994   27.8874 O   0  0  0  0  0  0  0  0  0  0  0  0
    5.3108    7.9454   24.4164 C   0  0  2  0  0  0  0  0  0  0  0  0
    6.6389    7.7789   23.9294 O   0  0  0  0  0  0  0  0  0  0  0  0
    2.7378    4.6569   26.8198 C   0  0  2  0  0  0  0  0  0  0  0  0
    0.1571    0.5112   25.1612 C   0  0  2  0  0  0  0  0  0  0  0  0
    1.4382    0.5232   25.8204 O   0  0  0  0  0  0  0  0  0  0  0  0
   -4.6073   -1.2977   26.0908 C   0  0  2  0  0  0  0  0  0  0  0  0
   -3.8175   -2.4662   25.8638 O   0  0  0  0  0  0  0  0  0  0  0  0
    5.1812    7.3775   25.8582 C   0  0  2  0  0  0  0  0  0  0  0  0
    3.7869    7.4598   26.2811 O   0  0  0  0  0  0  0  0  0  0  0  0
    3.5806    3.3310   26.8624 C   0  0  2  0  0  0  0  0  0  0  0  0
    2.9244    2.3516   26.0159 O   0  0  0  0  0  0  0  0  0  0  0  0
    0.3472    0.5554   23.6346 C   0  0  0  0  0  0  0  0  0  0  0  0
   -0.6981   -0.1375   22.9752 O   0  0  0  0  0  0  0  0  0  0  0  0
   -4.1892   -0.1645   25.1031 C   0  0  1  0  0  0  0  0  0  0  0  0
   -2.8456    0.3026   25.4330 O   0  0  0  0  0  0  0  0  0  0  0  0
    6.0121    8.1232   26.9263 C   0  0  0  0  0  0  0  0  0  0  0  0
    7.3961    8.0826   26.6228 O   0  0  0  0  0  0  0  0  0  0  0  0
    3.7042    2.7342   28.2987 C   0  0  1  0  0  0  0  0  0  0  0  0
    4.6193    1.6400   28.2642 O   0  0  0  0  0  0  0  0  0  0  0  0
   -4.2160   -0.6220   23.6222 C   0  0  0  0  0  0  0  0  0  0  0  0
   -4.1683    0.5119   22.6815 N   0  0  0  0  0  0  0  0  0  0  0  0
  1  2  1  6  0  0  0
  1  7  1  0  0  0  0
  1 30  1  0  0  0  0
  3  4  1  1  0  0  0
  3  9  1  0  0  0  0
  3 39  1  0  0  0  0
  5 10  1  0  0  0  0
  5 26  1  0  0  0  0
  5 32  1  6  0  0  0
  6 12  1  0  0  0  0
  6 36  1  0  0  0  0
  6 19  1  1  0  0  0
  7  8  1  6  0  0  0
  7 14  1  0  0  0  0
  9 16  1  0  0  0  0
 10 11  1  1  0  0  0
 10 18  1  0  0  0  0
 12 13  1  6  0  0  0
 12 20  1  0  0  0  0
 14 15  1  6  0  0  0
 14 22  1  0  0  0  0
 16 17  1  1  0  0  0
 16 24  1  0  0  0  0
 18 19  1  1  0  0  0
 18 25  1  0  0  0  0
 20 21  1  6  0  0  0
 20 27  1  0  0  0  0
 22 23  1  6  0  0  0
 22 29  1  0  0  0  0
 24  2  1  6  0  0  0
 24 31  1  0  0  0  0
 25 26  1  0  0  0  0
 25 33  1  6  0  0  0
 27 28  1  6  0  0  0
 27 35  1  0  0  0  0
 29 30  1  0  0  0  0
 29 37  1  1  0  0  0
 31 32  1  6  0  0  0
 31 39  1  0  0  0  0
 33 34  1  0  0  0  0
 35 36  1  0  0  0  0
 35 41  1  6  0  0  0
 37 38  1  0  0  0  0
 39 40  1  6  0  0  0
 41 42  1  0  0  0  0
M  END
>  <CHROM.1>
-171.84493787,-31.57093747,-55.13447414,25.18689190,-58.98063477,-43.06431080
-72.22564263,-44.55000181,156.79434998,146.06591110,-59.11340361,66.36438508
-92.92421600,66.45880409,-60.06951057,-69.56600669,86.40046112,168.64370896
165.10180452,164.93693098,-171.02887992,-88.98509676,1.16219320,3.19866986
26.07473302,0.31057743,-0.67897304,-1.10554409

>  <Name>
1fyp_lig

>  <RI>
0

>  <Rbt.Current_Directory>
/home/itssahil/PROJECTS/Mol_Feturizer/New_Systems/rnas/1fyp

>  <Rbt.Executable>
rbdock ($Id: //depot/dev/client3/rdock/2013.1/src/exe/rbdock.cxx#4 $)

>  <Rbt.Library>
libRbt.so (2013.1, Build901 2013/11/27)

>  <Rbt.Parameter_File>
/export/apps/rDock/src/rDock_2013.1_src/data/scripts/dock_solv.prm

>  <Rbt.Receptor>
prm/blind_docking_60.prm

>  <SCORE>
-55.0496

>  <SCORE.INTER>
-54.7517

>  <SCORE.INTER.CONST>
1

>  <SCORE.INTER.POLAR>
-7.99967

>  <SCORE.INTER.ROT>
14

>  <SCORE.INTER.SOLV>
19.6438

>  <SCORE.INTER.VDW>
-29.3168

>  <SCORE.INTER.norm>
-1.30361

>  <SCORE.INTRA>
-0.297885

>  <SCORE.INTRA.DIHEDRAL>
-24.242

>  <SCORE.INTRA.DIHEDRAL.0>
48.7173

>  <SCORE.INTRA.POLAR>
1.45047

>  <SCORE.INTRA.POLAR.0>
-1.54691

>  <SCORE.INTRA.REPUL>
0.117175

>  <SCORE.INTRA.REPUL.0>
0

>  <SCORE.INTRA.SOLV>
-0.841522

>  <SCORE.INTRA.SOLV.lig_0>
-64.052

>  <SCORE.INTRA.VDW>
6.7264

>  <SCORE.INTRA.VDW.0>
-7.0667

>  <SCORE.INTRA.norm>
-0.0070925

>  <SCORE.RESTR>
0

>  <SCORE.RESTR.CAVITY>
0

>  <SCORE.RESTR.norm>
0

>  <SCORE.SYSTEM>
0

>  <SCORE.SYSTEM.CONST>
0

>  <SCORE.SYSTEM.DIHEDRAL>
0

>  <SCORE.SYSTEM.SOLV>
0

>  <SCORE.SYSTEM.norm>
0

>  <SCORE.heavy>
42

>  <SCORE.norm>
-1.3107

>  <RMSD>
5.353

$$$$
1fyp_lig
 OpenBabel11021811393D
libRbt.so/2013.1/901 2013/11/27
 42 45  0  0  0  0  0  0  0  0999 V2000
    4.4791    4.0817   26.5615 C   0  0  2  0  0  0  0  0  0  0  0  0
    4.3788    4.3811   27.9837 O   0  0  0  0  0  0  0  0  0  0  0  0
    2.6975    2.6235   31.4943 C   0  0  2  0  0  0  0  0  0  0  0  0
    1.8211    2.0545   32.5348 N   0  0  0  0  0  0  0  0  0  0  0  0
    2.1914    1.0541   27.5518 C   0  0  1  0  0  0  0  0  0  0  0  0
   -1.5760    0.4094   25.8942 C   0  0  1  0  0  0  0  0  0  0  0  0
    5.9544    3.7823   26.1422 C   0  0  2  0  0  0  0  0  0  0  0  0
    6.5685    2.7696   27.0271 N   0  0  0  0  0  0  0  0  0  0  0  0
    2.1819    4.0212   31.0975 C   0  0  0  0  0  0  0  0  0  0  0  0
    1.2129    2.2175   27.7326 C   0  0  2  0  0  0  0  0  0  0  0  0
    0.5816    2.1159   29.0096 O   0  0  0  0  0  0  0  0  0  0  0  0
   -2.8860    1.2188   25.6494 C   0  0  2  0  0  0  0  0  0  0  0  0
   -3.6132    1.5227   26.9061 N   0  0  0  0  0  0  0  0  0  0  0  0
    6.8081    5.0890   26.1405 C   0  0  1  0  0  0  0  0  0  0  0  0
    8.1035    4.8293   25.6056 O   0  0  0  0  0  0  0  0  0  0  0  0
    3.0766    4.6939   30.0207 C   0  0  2  0  0  0  0  0  0  0  0  0
    2.4527    5.9829   29.6564 N   0  0  0  0  0  0  0  0  0  0  0  0
    0.2157    1.9678   26.5979 C   0  0  2  0  0  0  0  0  0  0  0  0
   -0.7911    0.9859   26.9704 O   0  0  0  0  0  0  0  0  0  0  0  0
   -3.8067    0.4888   24.6236 C   0  0  1  0  0  0  0  0  0  0  0  0
   -3.2361    0.6265   23.3240 O   0  0  0  0  0  0  0  0  0  0  0  0
    6.1444    6.2098   25.3018 C   0  0  2  0  0  0  0  0  0  0  0  0
    6.9211    7.3983   25.4164 O   0  0  0  0  0  0  0  0  0  0  0  0
    3.2980    3.7861   28.7578 C   0  0  2  0  0  0  0  0  0  0  0  0
    1.1222    1.4171   25.4882 C   0  0  2  0  0  0  0  0  0  0  0  0
    2.1799    0.7044   26.1585 O   0  0  0  0  0  0  0  0  0  0  0  0
   -4.0018   -1.0306   24.9122 C   0  0  2  0  0  0  0  0  0  0  0  0
   -4.8618   -1.1711   26.0441 O   0  0  0  0  0  0  0  0  0  0  0  0
    4.6884    6.4583   25.7881 C   0  0  2  0  0  0  0  0  0  0  0  0
    3.9547    5.1970   25.7651 O   0  0  0  0  0  0  0  0  0  0  0  0
    3.6765    2.3061   29.1271 C   0  0  2  0  0  0  0  0  0  0  0  0
    3.5262    1.4909   27.9357 O   0  0  0  0  0  0  0  0  0  0  0  0
    1.7128    2.5183   24.5899 C   0  0  0  0  0  0  0  0  0  0  0  0
    2.9307    2.0930   24.0039 O   0  0  0  0  0  0  0  0  0  0  0  0
   -2.6308   -1.7225   25.1880 C   0  0  1  0  0  0  0  0  0  0  0  0
   -1.9070   -0.9835   26.2188 O   0  0  0  0  0  0  0  0  0  0  0  0
    3.8793    7.4562   24.9298 C   0  0  0  0  0  0  0  0  0  0  0  0
    4.6961    8.5189   24.4682 O   0  0  0  0  0  0  0  0  0  0  0  0
    2.7714    1.7081   30.2486 C   0  0  1  0  0  0  0  0  0  0  0  0
    3.2945    0.4372   30.6320 O   0  0  0  0  0  0  0  0  0  0  0  0
   -2.7853   -3.1979   25.6379 C   0  0  0  0  0  0  0  0  0  0  0  0
   -3.9838   -3.8384   25.0665 N   0  0  0  0  0  0  0  0  0  0  0  0
  1  2  1  1  0  0  0
  1  7  1  0  0  0  0
  1 30  1  0  0  0  0
  3  4  1  1  0  0  0
  3  9  1  0  0  0  0
  3 39  1  0  0  0  0
  5 10  1  0  0  0  0
  5 26  1  0  0  0  0
  5 32  1  6  0  0  0
  6 12  1  0  0  0  0
  6 36  1  0  0  0  0
  6 19  1  1  0  0  0
  7  8  1  1  0  0  0
  7 14  1  0  0  0  0
  9 16  1  0  0  0  0
 10 11  1  1  0  0  0
 10 18  1  0  0  0  0
 12 13  1  1  0  0  0
 12 20  1  0  0  0  0
 14 15  1  6  0  0  0
 14 22  1  0  0  0  0
 16 17  1  6  0  0  0
 16 24  1  0  0  0  0
 18 19  1  1  0  0  0
 18 25  1  0  0  0  0
 20 21  1  6  0  0  0
 20 27  1  0  0  0  0
 22 23  1  1  0  0  0
 22 29  1  0  0  0  0
 24  2  1  6  0  0  0
 24 31  1  0  0  0  0
 25 26  1  0  0  0  0
 25 33  1  1  0  0  0
 27 28  1  1  0  0  0
 27 35  1  0  0  0  0
 29 30  1  0  0  0  0
 29 37  1  6  0  0  0
 31 32  1  6  0  0  0
 31 39  1  0  0  0  0
 33 34  1  0  0  0  0
 35 36  1  0  0  0  0
 35 41  1  1  0  0  0
 37 38  1  0  0  0  0
 39 40  1  1  0  0  0
 41 42  1  0  0  0  0
M  END
>  <CHROM.1>
-136.19416815,-157.17896513,112.36544491,148.38064669,-46.00717826,165.67626434
-66.94500768,-26.72060536,-164.65531054,-91.79174751,-171.99874806,66.44174957
154.30240615,-173.67094921,-37.14297253,-79.67293223,42.18349575,69.89930815
30.10219188,-63.67671480,46.74739774,-117.43200808,1.70727435,2.43972316
26.89811057,0.06424242,-0.64581139,-1.29501195

>  <Name>
1fyp_lig

>  <RI>
0

>  <Rbt.Current_Directory>
/home/itssahil/PROJECTS/Mol_Feturizer/New_Systems/rnas/1fyp

>  <Rbt.Executable>
rbdock ($Id: //depot/dev/client3/rdock/2013.1/src/exe/rbdock.cxx#4 $)

>  <Rbt.Library>
libRbt.so (2013.1, Build901 2013/11/27)

>  <Rbt.Parameter_File>
/export/apps/rDock/src/rDock_2013.1_src/data/scripts/dock_solv.prm

>  <Rbt.Receptor>
prm/blind_docking_100.prm

>  <SCORE>
-40.4036

>  <SCORE.INTER>
-47.9772

>  <SCORE.INTER.CONST>
1

>  <SCORE.INTER.POLAR>
-6.37177

>  <SCORE.INTER.ROT>
14

>  <SCORE.INTER.SOLV>
19.6421

>  <SCORE.INTER.VDW>
-30.2263

>  <SCORE.INTER.norm>
-1.14231

>  <SCORE.INTRA>
7.11093

>  <SCORE.INTRA.DIHEDRAL>
-14.4425

>  <SCORE.INTRA.DIHEDRAL.0>
48.7173

>  <SCORE.INTRA.POLAR>
1.00228

>  <SCORE.INTRA.POLAR.0>
-1.54691

>  <SCORE.INTRA.REPUL>
0.545569

>  <SCORE.INTRA.REPUL.0>
0

>  <SCORE.INTRA.SOLV>
0.651382

>  <SCORE.INTRA.SOLV.lig_0>
-64.052

>  <SCORE.INTRA.VDW>
7.87089

>  <SCORE.INTRA.VDW.0>
-7.0667

>  <SCORE.INTRA.norm>
0.169308

>  <SCORE.RESTR>
0.462718

>  <SCORE.RESTR.CAVITY>
0.462718

>  <SCORE.RESTR.norm>
0.0110171

>  <SCORE.SYSTEM>
0

>  <SCORE.SYSTEM.CONST>
0

>  <SCORE.SYSTEM.DIHEDRAL>
0

>  <SCORE.SYSTEM.SOLV>
0

>  <SCORE.SYSTEM.norm>
0

>  <SCORE.heavy>
42

>  <SCORE.norm>
-0.96199

>  <RMSD>
5.384

$$$$
1fyp_lig
 OpenBabel11021811393D
libRbt.so/2013.1/901 2013/11/27
 42 45  0  0  0  0  0  0  0  0999 V2000
    3.3131    6.4260   26.6464 C   0  0  2  0  0  0  0  0  0  0  0  0
    2.7678    5.2315   26.0152 O   0  0  0  0  0  0  0  0  0  0  0  0
    2.7565    2.4445   29.2515 C   0  0  2  0  0  0  0  0  0  0  0  0
    2.4182    1.4557   30.2917 N   0  0  0  0  0  0  0  0  0  0  0  0
    1.2893    2.0795   25.0680 C   0  0  1  0  0  0  0  0  0  0  0  0
   -2.7916    0.3841   24.6812 C   0  0  1  0  0  0  0  0  0  0  0  0
    2.7142    7.7274   26.0221 C   0  0  2  0  0  0  0  0  0  0  0  0
    1.2373    7.6735   25.9842 N   0  0  0  0  0  0  0  0  0  0  0  0
    1.8139    3.6586   29.3720 C   0  0  0  0  0  0  0  0  0  0  0  0
    0.9442    0.5934   25.1944 C   0  0  2  0  0  0  0  0  0  0  0  0
    1.0796   -0.0379   23.9205 O   0  0  0  0  0  0  0  0  0  0  0  0
   -2.9921   -0.3117   26.0622 C   0  0  2  0  0  0  0  0  0  0  0  0
   -1.9382   -1.3134   26.3558 N   0  0  0  0  0  0  0  0  0  0  0  0
    3.2842    7.9703   24.5896 C   0  0  1  0  0  0  0  0  0  0  0  0
    2.8544    9.2372   24.0977 O   0  0  0  0  0  0  0  0  0  0  0  0
    2.1320    4.7564   28.3202 C   0  0  2  0  0  0  0  0  0  0  0  0
    1.1271    5.8294   28.4696 N   0  0  0  0  0  0  0  0  0  0  0  0
   -0.5211    0.6481   25.6349 C   0  0  2  0  0  0  0  0  0  0  0  0
   -1.4189    0.8208   24.5032 O   0  0  0  0  0  0  0  0  0  0  0  0
   -4.4162   -0.9394   26.1665 C   0  0  1  0  0  0  0  0  0  0  0  0
   -5.3648    0.1130   26.3286 O   0  0  0  0  0  0  0  0  0  0  0  0
    4.8330    7.9345   24.5719 C   0  0  2  0  0  0  0  0  0  0  0  0
    5.2859    8.0686   23.2282 O   0  0  0  0  0  0  0  0  0  0  0  0
    2.1653    4.2018   26.8507 C   0  0  2  0  0  0  0  0  0  0  0  0
   -0.5407    1.8920   26.5340 C   0  0  2  0  0  0  0  0  0  0  0  0
    0.4465    2.7893   25.9898 O   0  0  0  0  0  0  0  0  0  0  0  0
   -4.8321   -1.7838   24.9240 C   0  0  2  0  0  0  0  0  0  0  0  0
   -4.1021   -3.0116   24.9443 O   0  0  0  0  0  0  0  0  0  0  0  0
    5.3498    6.6063   25.1939 C   0  0  2  0  0  0  0  0  0  0  0  0
    4.7753    6.4466   26.5259 O   0  0  0  0  0  0  0  0  0  0  0  0
    2.9939    2.8730   26.7171 C   0  0  2  0  0  0  0  0  0  0  0  0
    2.6857    2.2762   25.4305 O   0  0  0  0  0  0  0  0  0  0  0  0
   -0.2162    1.5778   28.0053 C   0  0  0  0  0  0  0  0  0  0  0  0
   -1.2034    0.7335   28.5711 O   0  0  0  0  0  0  0  0  0  0  0  0
   -4.5414   -1.0059   23.6031 C   0  0  1  0  0  0  0  0  0  0  0  0
   -3.1569   -0.5416   23.6019 O   0  0  0  0  0  0  0  0  0  0  0  0
    6.8835    6.5218   25.3608 C   0  0  0  0  0  0  0  0  0  0  0  0
    7.3465    7.4393   26.3372 O   0  0  0  0  0  0  0  0  0  0  0  0
    2.6617    1.8338   27.8325 C   0  0  1  0  0  0  0  0  0  0  0  0
    3.5756    0.7429   27.7306 O   0  0  0  0  0  0  0  0  0  0  0  0
   -4.7876   -1.8652   22.3365 C   0  0  0  0  0  0  0  0  0  0  0  0
   -6.2219   -2.0726   22.0667 N   0  0  0  0  0  0  0  0  0  0  0  0
  1  2  1  6  0  0  0
  1  7  1  0  0  0  0
  1 30  1  0  0  0  0
  3  4  1  1  0  0  0
  3  9  1  0  0  0  0
  3 39  1  0  0  0  0
  5 10  1  0  0  0  0
  5 26  1  0  0  0  0
  5 32  1  1  0  0  0
  6 12  1  0  0  0  0
  6 36  1  0  0  0  0
  6 19  1  6  0  0  0
  7  8  1  6  0  0  0
  7 14  1  0  0  0  0
  9 16  1  0  0  0  0
 10 11  1  6  0  0  0
 10 18  1  0  0  0  0
 12 13  1  6  0  0  0
 12 20  1  0  0  0  0
 14 15  1  1  0  0  0
 14 22  1  0  0  0  0
 16 17  1  6  0  0  0
 16 24  1  0  0  0  0
 18 19  1  6  0  0  0
 18 25  1  0  0  0  0
 20 21  1  6  0  0  0
 20 27  1  0  0  0  0
 22 23  1  6  0  0  0
 22 29  1  0  0  0  0
 24  2  1  6  0  0  0
 24 31  1  0  0  0  0
 25 26  1  0  0  0  0
 25 33  1  1  0  0  0
 27 28  1  6  0  0  0
 27 35  1  0  0  0  0
 29 30  1  0  0  0  0
 29 37  1  1  0  0  0
 31 32  1  6  0  0  0
 31 39  1  0  0  0  0
 33 34  1  0  0  0  0
 35 36  1  0  0  0  0
 35 41  1  6  0  0  0
 37 38  1  0  0  0  0
 39 40  1  1  0  0  0
 41 42  1  0  0  0  0
M  END
>  <CHROM.1>
-126.29628666,5.89979557,-129.26908583,108.41860833,-20.86767851,-173.53000553
-170.38318760,57.27664733,156.91311975,-4.83216996,-170.77578820,177.36908168
-63.77775708,171.87922983,67.67210751,-51.46033840,-105.17428465,60.75388368
73.38239690,-179.99212882,65.32043944,-85.61005409,0.70773378,2.75823405
25.92188539,0.36704042,-0.70174011,-0.89209550

>  <Name>
1fyp_lig

>  <RI>
0

>  <Rbt.Current_Directory>
/home/itssahil/PROJECTS/Mol_Feturizer/New_Systems/rnas/1fyp

>  <Rbt.Executable>
rbdock ($Id: //depot/dev/client3/rdock/2013.1/src/exe/rbdock.cxx#4 $)

>  <Rbt.Library>
libRbt.so (2013.1, Build901 2013/11/27)

>  <Rbt.Parameter_File>
/export/apps/rDock/src/rDock_2013.1_src/data/scripts/dock_solv.prm

>  <Rbt.Receptor>
prm/blind_docking_60.prm

>  <SCORE>
-21.8679

>  <SCORE.INTER>
-34.11

>  <SCORE.INTER.CONST>
1

>  <SCORE.INTER.POLAR>
-4.26462

>  <SCORE.INTER.ROT>
14

>  <SCORE.INTER.SOLV>
14.6467

>  <SCORE.INTER.VDW>
-26.3402

>  <SCORE.INTER.norm>
-0.812142

>  <SCORE.INTRA>
12.2421

>  <SCORE.INTRA.DIHEDRAL>
-5.98212

>  <SCORE.INTRA.DIHEDRAL.0>
48.7173

>  <SCORE.INTRA.POLAR>
-0.334031

>  <SCORE.INTRA.POLAR.0>
-1.54691

>  <SCORE.INTRA.REPUL>
0

>  <SCORE.INTRA.REPUL.0>
0

>  <SCORE.INTRA.SOLV>
0.559039

>  <SCORE.INTRA.SOLV.lig_0>
-64.052

>  <SCORE.INTRA.VDW>
16.0894

>  <SCORE.INTRA.VDW.0>
-7.0667

>  <SCORE.INTRA.norm>
0.291479

>  <SCORE.RESTR>
0

>  <SCORE.RESTR.CAVITY>
0

>  <SCORE.RESTR.norm>
0

>  <SCORE.SYSTEM>
0

>  <SCORE.SYSTEM.CONST>
0

>  <SCORE.SYSTEM.DIHEDRAL>
0

>  <SCORE.SYSTEM.SOLV>
0

>  <SCORE.SYSTEM.norm>
0

>  <SCORE.heavy>
42

>  <SCORE.norm>
-0.520664

>  <RMSD>
5.397

$$$$
1fyp_lig
 OpenBabel11021811393D
libRbt.so/2013.1/901 2013/11/27
 42 45  0  0  0  0  0  0  0  0999 V2000
    4.2122    6.2931   27.7420 C   0  0  2  0  0  0  0  0  0  0  0  0
    3.8793    4.8933   27.9706 O   0  0  0  0  0  0  0  0  0  0  0  0
    2.8337    2.5433   31.3801 C   0  0  2  0  0  0  0  0  0  0  0  0
    2.2405    1.9812   32.6076 N   0  0  0  0  0  0  0  0  0  0  0  0
    0.6528    1.9908   27.5474 C   0  0  1  0  0  0  0  0  0  0  0  0
   -2.2993   -0.6996   25.5538 C   0  0  1  0  0  0  0  0  0  0  0  0
    4.6617    6.5409   26.2660 C   0  0  2  0  0  0  0  0  0  0  0  0
    3.6877    5.9774   25.3070 N   0  0  0  0  0  0  0  0  0  0  0  0
    3.2732    3.9976   31.6424 C   0  0  0  0  0  0  0  0  0  0  0  0
   -0.5616    2.3762   26.6987 C   0  0  2  0  0  0  0  0  0  0  0  0
   -1.7095    2.5043   27.5387 O   0  0  0  0  0  0  0  0  0  0  0  0
   -3.5754   -1.1399   26.3341 C   0  0  2  0  0  0  0  0  0  0  0  0
   -3.2613   -1.7175   27.6637 N   0  0  0  0  0  0  0  0  0  0  0  0
    6.0811    5.9447   26.0093 C   0  0  1  0  0  0  0  0  0  0  0  0
    6.5428    6.3151   24.7126 O   0  0  0  0  0  0  0  0  0  0  0  0
    3.9340    4.6459   30.3952 C   0  0  2  0  0  0  0  0  0  0  0  0
    4.2412    6.0528   30.7271 N   0  0  0  0  0  0  0  0  0  0  0  0
   -0.6877    1.1691   25.7652 C   0  0  2  0  0  0  0  0  0  0  0  0
   -1.4034    0.0710   26.3965 O   0  0  0  0  0  0  0  0  0  0  0  0
   -4.4388   -2.1188   25.4800 C   0  0  1  0  0  0  0  0  0  0  0  0
   -5.0788   -1.3744   24.4457 O   0  0  0  0  0  0  0  0  0  0  0  0
    7.1106    6.4360   27.0577 C   0  0  2  0  0  0  0  0  0  0  0  0
    8.3568    5.7866   26.8254 O   0  0  0  0  0  0  0  0  0  0  0  0
    3.0398    4.5421   29.1077 C   0  0  2  0  0  0  0  0  0  0  0  0
    0.7810    0.7907   25.5283 C   0  0  2  0  0  0  0  0  0  0  0  0
    1.4794    1.1372   26.7400 O   0  0  0  0  0  0  0  0  0  0  0  0
   -3.6260   -3.2729   24.8188 C   0  0  2  0  0  0  0  0  0  0  0  0
   -3.2592   -4.2092   25.8334 O   0  0  0  0  0  0  0  0  0  0  0  0
    6.5993    6.1410   28.4964 C   0  0  2  0  0  0  0  0  0  0  0  0
    5.2717    6.7242   28.6611 O   0  0  0  0  0  0  0  0  0  0  0  0
    2.4452    3.1035   28.8905 C   0  0  2  0  0  0  0  0  0  0  0  0
    1.3899    3.1963   27.8984 O   0  0  0  0  0  0  0  0  0  0  0  0
    1.4068    1.5243   24.3287 C   0  0  0  0  0  0  0  0  0  0  0  0
    1.3231    2.9288   24.4960 O   0  0  0  0  0  0  0  0  0  0  0  0
   -2.3509   -2.7179   24.1114 C   0  0  1  0  0  0  0  0  0  0  0  0
   -1.5971   -1.8834   25.0431 O   0  0  0  0  0  0  0  0  0  0  0  0
    7.4790    6.7173   29.6283 C   0  0  0  0  0  0  0  0  0  0  0  0
    7.0529    6.2536   30.8983 O   0  0  0  0  0  0  0  0  0  0  0  0
    1.8423    2.4910   30.1927 C   0  0  1  0  0  0  0  0  0  0  0  0
    1.4867    1.1327   29.9394 O   0  0  0  0  0  0  0  0  0  0  0  0
   -1.4262   -3.8417   23.5774 C   0  0  0  0  0  0  0  0  0  0  0  0
   -0.1747   -3.3158   23.0028 N   0  0  0  0  0  0  0  0  0  0  0  0
  1  2  1  6  0  0  0
  1  7  1  0  0  0  0
  1 30  1  0  0  0  0
  3  4  1  1  0  0  0
  3  9  1  0  0  0  0
  3 39  1  0  0  0  0
  5 10  1  0  0  0  0
  5 26  1  0  0  0  0
  5 32  1  6  0  0  0
  6 12  1  0  0  0  0
  6 36  1  0  0  0  0
  6 19  1  1  0  0  0
  7  8  1  6  0  0  0
  7 14  1  0  0  0  0
  9 16  1  0  0  0  0
 10 11  1  1  0  0  0
 10 18  1  0  0  0  0
 12 13  1  1  0  0  0
 12 20  1  0  0  0  0
 14 15  1  6  0  0  0
 14 22  1  0  0  0  0
 16 17  1  1  0  0  0
 16 24  1  0  0  0  0
 18 19  1  1  0  0  0
 18 25  1  0  0  0  0
 20 21  1  6  0  0  0
 20 27  1  0  0  0  0
 22 23  1  6  0  0  0
 22 29  1  0  0  0  0
 24  2  1  6  0  0  0
 24 31  1  0  0  0  0
 25 26  1  0  0  0  0
 25 33  1  6  0  0  0
 27 28  1  1  0  0  0
 27 35  1  0  0  0  0
 29 30  1  0  0  0  0
 29 37  1  1  0  0  0
 31 32  1  6  0  0  0
 31 39  1  0  0  0  0
 33 34  1  0  0  0  0
 35 36  1  0  0  0  0
 35 41  1  1  0  0  0
 37 38  1  0  0  0  0
 39 40  1  6  0  0  0
 41 42  1  0  0  0  0
M  END
>  <CHROM.1>
-159.84834303,-75.52180207,62.95463511,-52.52664536,-171.29778256,-86.54250913
-73.49920572,-27.66772826,142.32796905,-143.55020610,-174.43139334,-85.67478481
57.75060356,-175.44916155,-171.93471164,-178.34497105,169.40218308,56.53656673
-175.59089755,67.61723927,85.63911157,-174.81370392,1.62238520,2.27138691
27.21691452,-0.36878967,-0.72465100,-1.70017341

>  <Name>
1fyp_lig

>  <RI>
0

>  <Rbt.Current_Directory>
/home/itssahil/PROJECTS/Mol_Feturizer/New_Systems/rnas/1fyp

>  <Rbt.Executable>
rbdock ($Id: //depot/dev/client3/rdock/2013.1/src/exe/rbdock.cxx#4 $)

>  <Rbt.Library>
libRbt.so (2013.1, Build901 2013/11/27)

>  <Rbt.Parameter_File>
/export/apps/rDock/src/rDock_2013.1_src/data/scripts/dock_solv.prm

>  <Rbt.Receptor>
prm/blind_docking_100.prm

>  <SCORE>
-32.0926

>  <SCORE.INTER>
-24.9779

>  <SCORE.INTER.CONST>
1

>  <SCORE.INTER.POLAR>
-5.15664

>  <SCORE.INTER.ROT>
14

>  <SCORE.INTER.SOLV>
17.5481

>  <SCORE.INTER.VDW>
-18.2459

>  <SCORE.INTER.norm>
-0.594713

>  <SCORE.INTRA>
-8.06205

>  <SCORE.INTRA.DIHEDRAL>
-24.8714

>  <SCORE.INTRA.DIHEDRAL.0>
48.7173

>  <SCORE.INTRA.POLAR>
0.117121

>  <SCORE.INTRA.POLAR.0>
-1.54691

>  <SCORE.INTRA.REPUL>
0.0142689

>  <SCORE.INTRA.REPUL.0>
0

>  <SCORE.INTRA.SOLV>
-0.829911

>  <SCORE.INTRA.SOLV.lig_0>
-64.052

>  <SCORE.INTRA.VDW>
4.31904

>  <SCORE.INTRA.VDW.0>
-7.0667

>  <SCORE.INTRA.norm>
-0.191954

>  <SCORE.RESTR>
0.94739

>  <SCORE.RESTR.CAVITY>
0.94739

>  <SCORE.RESTR.norm>
0.0225569

>  <SCORE.SYSTEM>
0

>  <SCORE.SYSTEM.CONST>
0

>  <SCORE.SYSTEM.DIHEDRAL>
0

>  <SCORE.SYSTEM.SOLV>
0

>  <SCORE.SYSTEM.norm>
0

>  <SCORE.heavy>
42

>  <SCORE.norm>
-0.76411

>  <RMSD>
5.439

$$$$
1fyp_lig
 OpenBabel11021811393D
libRbt.so/2013.1/901 2013/11/27
 42 45  0  0  0  0  0  0  0  0999 V2000
    2.3027    6.8732   25.8942 C   0  0  2  0  0  0  0  0  0  0  0  0
    3.2957    6.4130   26.8558 O   0  0  0  0  0  0  0  0  0  0  0  0
    3.8422    4.3486   30.5545 C   0  0  2  0  0  0  0  0  0  0  0  0
    3.6987    3.5558   31.7895 N   0  0  0  0  0  0  0  0  0  0  0  0
    2.6871    2.2706   27.0800 C   0  0  1  0  0  0  0  0  0  0  0  0
   -0.9469   -0.2998   27.2534 C   0  0  1  0  0  0  0  0  0  0  0  0
    2.4031    6.0872   24.5472 C   0  0  2  0  0  0  0  0  0  0  0  0
    2.4036    4.6268   24.7773 N   0  0  0  0  0  0  0  0  0  0  0  0
    2.7586    5.4448   30.5199 C   0  0  0  0  0  0  0  0  0  0  0  0
    1.2323    2.7468   27.0633 C   0  0  2  0  0  0  0  0  0  0  0  0
    0.7964    2.9961   28.4002 O   0  0  0  0  0  0  0  0  0  0  0  0
   -0.6017   -1.5951   26.4570 C   0  0  2  0  0  0  0  0  0  0  0  0
    0.2359   -1.3256   25.2628 N   0  0  0  0  0  0  0  0  0  0  0  0
    3.6765    6.5103   23.7501 C   0  0  1  0  0  0  0  0  0  0  0  0
    3.6716    5.9063   22.4590 O   0  0  0  0  0  0  0  0  0  0  0  0
    2.8672    6.3389   29.2545 C   0  0  2  0  0  0  0  0  0  0  0  0
    1.7420    7.2965   29.2804 N   0  0  0  0  0  0  0  0  0  0  0  0
    0.5131    1.5370   26.4605 C   0  0  2  0  0  0  0  0  0  0  0  0
    0.2310    0.5217   27.4637 O   0  0  0  0  0  0  0  0  0  0  0  0
   -1.8976   -2.3754   26.0766 C   0  0  1  0  0  0  0  0  0  0  0  0
   -2.4177   -2.9916   27.2528 O   0  0  0  0  0  0  0  0  0  0  0  0
    3.7624    8.0472   23.5746 C   0  0  2  0  0  0  0  0  0  0  0  0
    4.9871    8.3734   22.9247 O   0  0  0  0  0  0  0  0  0  0  0  0
    2.8838    5.5089   27.9208 C   0  0  2  0  0  0  0  0  0  0  0  0
    1.5442    1.0220   25.4465 C   0  0  2  0  0  0  0  0  0  0  0  0
    2.8362    1.3288   26.0054 O   0  0  0  0  0  0  0  0  0  0  0  0
   -3.0172   -1.4858   25.4562 C   0  0  2  0  0  0  0  0  0  0  0  0
   -2.6329   -1.1337   24.1261 O   0  0  0  0  0  0  0  0  0  0  0  0
    3.6706    8.7547   24.9564 C   0  0  2  0  0  0  0  0  0  0  0  0
    2.4615    8.3099   25.6420 O   0  0  0  0  0  0  0  0  0  0  0  0
    3.8687    4.2853   27.9741 C   0  0  2  0  0  0  0  0  0  0  0  0
    3.5638    3.4113   26.8562 O   0  0  0  0  0  0  0  0  0  0  0  0
    1.4006    1.6705   24.0582 C   0  0  0  0  0  0  0  0  0  0  0  0
    2.6221    2.2593   23.6471 O   0  0  0  0  0  0  0  0  0  0  0  0
   -3.2400   -0.1996   26.3109 C   0  0  1  0  0  0  0  0  0  0  0  0
   -1.9620    0.4731   26.5271 O   0  0  0  0  0  0  0  0  0  0  0  0
    3.6007   10.2968   24.8922 C   0  0  0  0  0  0  0  0  0  0  0  0
    2.6648   10.7298   23.9195 O   0  0  0  0  0  0  0  0  0  0  0  0
    3.7424    3.4592   29.2918 C   0  0  1  0  0  0  0  0  0  0  0  0
    4.7827    2.4833   29.3234 O   0  0  0  0  0  0  0  0  0  0  0  0
   -4.2290    0.7942   25.6494 C   0  0  0  0  0  0  0  0  0  0  0  0
   -3.9178    2.1981   25.9736 N   0  0  0  0  0  0  0  0  0  0  0  0
  1  2  1  1  0  0  0
  1  7  1  0  0  0  0
  1 30  1  0  0  0  0
  3  4  1  1  0  0  0
  3  9  1  0  0  0  0
  3 39  1  0  0  0  0
  5 10  1  0  0  0  0
  5 26  1  0  0  0  0
  5 32  1  6  0  0  0
  6 12  1  0  0  0  0
  6 36  1  0  0  0  0
  6 19  1  6  0  0  0
  7  8  1  1  0  0  0
  7 14  1  0  0  0  0
  9 16  1  0  0  0  0
 10 11  1  1  0  0  0
 10 18  1  0  0  0  0
 12 13  1  6  0  0  0
 12 20  1  0  0  0  0
 14 15  1  6  0  0  0
 14 22  1  0  0  0  0
 16 17  1  6  0  0  0
 16 24  1  0  0  0  0
 18 19  1  1  0  0  0
 18 25  1  0  0  0  0
 20 21  1  1  0  0  0
 20 27  1  0  0  0  0
 22 23  1  1  0  0  0
 22 29  1  0  0  0  0
 24  2  1  6  0  0  0
 24 31  1  0  0  0  0
 25 26  1  0  0  0  0
 25 33  1  6  0  0  0
 27 28  1  6  0  0  0
 27 35  1  0  0  0  0
 29 30  1  0  0  0  0
 29 37  1  6  0  0  0
 31 32  1  6  0  0  0
 31 39  1  0  0  0  0
 33 34  1  0  0  0  0
 35 36  1  0  0  0  0
 35 41  1  6  0  0  0
 37 38  1  0  0  0  0
 39 40  1  1  0  0  0
 41 42  1  0  0  0  0
M  END
>  <CHROM.1>
-101.21670483,-106.88911120,57.30424332,-172.96264547,-59.05023634,73.34106120
48.88014059,-32.93691970,150.06082466,91.35799708,66.60968117,-56.22938551
124.88330649,179.37904044,46.28983641,-96.09834980,80.54965668,72.10265201
-148.63684194,-147.75369010,-55.55870094,18.10943154,1.48257185,3.46875305
26.37540130,0.54326727,-0.90859888,-0.98551429

>  <Name>
1fyp_lig

>  <RI>
0

>  <Rbt.Current_Directory>
/home/itssahil/PROJECTS/Mol_Feturizer/New_Systems/rnas/1fyp

>  <Rbt.Executable>
rbdock ($Id: //depot/dev/client3/rdock/2013.1/src/exe/rbdock.cxx#4 $)

>  <Rbt.Library>
libRbt.so (2013.1, Build901 2013/11/27)

>  <Rbt.Parameter_File>
/export/apps/rDock/src/rDock_2013.1_src/data/scripts/dock_solv.prm

>  <Rbt.Receptor>
prm/blind_docking_100.prm

>  <SCORE>
-18.104

>  <SCORE.INTER>
-22.6707

>  <SCORE.INTER.CONST>
1

>  <SCORE.INTER.POLAR>
-4.87802

>  <SCORE.INTER.ROT>
14

>  <SCORE.INTER.SOLV>
23.255

>  <SCORE.INTER.VDW>
-19.5387

>  <SCORE.INTER.norm>
-0.539778

>  <SCORE.INTRA>
4.56663

>  <SCORE.INTRA.DIHEDRAL>
-4.95647

>  <SCORE.INTRA.DIHEDRAL.0>
48.7173

>  <SCORE.INTRA.POLAR>
-0.239262

>  <SCORE.INTRA.POLAR.0>
-1.54691

>  <SCORE.INTRA.REPUL>
0

>  <SCORE.INTRA.REPUL.0>
0

>  <SCORE.INTRA.SOLV>
1.99655

>  <SCORE.INTRA.SOLV.lig_0>
-64.052

>  <SCORE.INTRA.VDW>
6.86008

>  <SCORE.INTRA.VDW.0>
-7.0667

>  <SCORE.INTRA.norm>
0.108729

>  <SCORE.RESTR>
0

>  <SCORE.RESTR.CAVITY>
0

>  <SCORE.RESTR.norm>
0

>  <SCORE.SYSTEM>
0

>  <SCORE.SYSTEM.CONST>
0

>  <SCORE.SYSTEM.DIHEDRAL>
0

>  <SCORE.SYSTEM.SOLV>
0

>  <SCORE.SYSTEM.norm>
0

>  <SCORE.heavy>
42

>  <SCORE.norm>
-0.431049

>  <RMSD>
5.451

$$$$
1fyp_lig
 OpenBabel11021811393D
libRbt.so/2013.1/901 2013/11/27
 42 45  0  0  0  0  0  0  0  0999 V2000
    6.8529    7.4011   25.9814 C   0  0  2  0  0  0  0  0  0  0  0  0
    7.0650    8.2821   27.1221 O   0  0  0  0  0  0  0  0  0  0  0  0
    7.6108    5.2561   30.0862 C   0  0  2  0  0  0  0  0  0  0  0  0
    7.6994    4.4608   31.3248 N   0  0  0  0  0  0  0  0  0  0  0  0
    3.6004    5.9055   28.2722 C   0  0  1  0  0  0  0  0  0  0  0  0
    0.0100    3.5656   27.2905 C   0  0  1  0  0  0  0  0  0  0  0  0
    7.6240    7.9040   24.7186 C   0  0  2  0  0  0  0  0  0  0  0  0
    9.0439    8.1741   25.0295 N   0  0  0  0  0  0  0  0  0  0  0  0
    8.4386    6.5471   30.2453 C   0  0  0  0  0  0  0  0  0  0  0  0
    2.3101    6.5547   27.7651 C   0  0  2  0  0  0  0  0  0  0  0  0
    1.5137    6.9656   28.8770 O   0  0  0  0  0  0  0  0  0  0  0  0
   -0.7271    2.7097   28.3654 C   0  0  2  0  0  0  0  0  0  0  0  0
    0.1943    2.1646   29.3921 N   0  0  0  0  0  0  0  0  0  0  0  0
    6.9475    9.1794   24.1252 C   0  0  1  0  0  0  0  0  0  0  0  0
    7.5631    9.5325   22.8891 O   0  0  0  0  0  0  0  0  0  0  0  0
    8.4125    7.4238   28.9635 C   0  0  2  0  0  0  0  0  0  0  0  0
    9.1631    8.6641   29.2495 N   0  0  0  0  0  0  0  0  0  0  0  0
    1.6531    5.3972   27.0082 C   0  0  2  0  0  0  0  0  0  0  0  0
    0.9251    4.5110   27.9033 O   0  0  0  0  0  0  0  0  0  0  0  0
   -1.5640    1.5767   27.6953 C   0  0  1  0  0  0  0  0  0  0  0  0
   -2.7095    2.1624   27.0801 O   0  0  0  0  0  0  0  0  0  0  0  0
    5.4330    8.9663   23.8782 C   0  0  2  0  0  0  0  0  0  0  0  0
    4.8588   10.1893   23.4271 O   0  0  0  0  0  0  0  0  0  0  0  0
    6.9547    7.7364   28.4680 C   0  0  2  0  0  0  0  0  0  0  0  0
    2.8671    4.6767   26.4052 C   0  0  2  0  0  0  0  0  0  0  0  0
    3.9455    4.8669   27.3415 O   0  0  0  0  0  0  0  0  0  0  0  0
   -0.7881    0.7684   26.6115 C   0  0  2  0  0  0  0  0  0  0  0  0
    0.1553   -0.0807   27.2670 O   0  0  0  0  0  0  0  0  0  0  0  0
    4.7359    8.4821   25.1813 C   0  0  2  0  0  0  0  0  0  0  0  0
    5.4216    7.2931   25.6770 O   0  0  0  0  0  0  0  0  0  0  0  0
    6.0324    6.4642   28.4394 C   0  0  2  0  0  0  0  0  0  0  0  0
    4.6570    6.9068   28.3020 O   0  0  0  0  0  0  0  0  0  0  0  0
    3.2654    5.2210   25.0218 C   0  0  0  0  0  0  0  0  0  0  0  0
    4.4025    4.5408   24.5197 O   0  0  0  0  0  0  0  0  0  0  0  0
   -0.0542    1.7282   25.6243 C   0  0  1  0  0  0  0  0  0  0  0  0
    0.7506    2.6856   26.3781 O   0  0  0  0  0  0  0  0  0  0  0  0
    3.2483    8.0986   25.0171 C   0  0  0  0  0  0  0  0  0  0  0  0
    2.5100    9.1466   24.4121 O   0  0  0  0  0  0  0  0  0  0  0  0
    6.1438    5.6024   29.7353 C   0  0  1  0  0  0  0  0  0  0  0  0
    5.4097    4.3935   29.5473 O   0  0  0  0  0  0  0  0  0  0  0  0
    0.8609    0.9738   24.6260 C   0  0  0  0  0  0  0  0  0  0  0  0
    1.8444    0.1109   25.3051 N   0  0  0  0  0  0  0  0  0  0  0  0
  1  2  1  1  0  0  0
  1  7  1  0  0  0  0
  1 30  1  0  0  0  0
  3  4  1  1  0  0  0
  3  9  1  0  0  0  0
  3 39  1  0  0  0  0
  5 10  1  0  0  0  0
  5 26  1  0  0  0  0
  5 32  1  6  0  0  0
  6 12  1  0  0  0  0
  6 36  1  0  0  0  0
  6 19  1  1  0  0  0
  7  8  1  1  0  0  0
  7 14  1  0  0  0  0
  9 16  1  0  0  0  0
 10 11  1  1  0  0  0
 10 18  1  0  0  0  0
 12 13  1  1  0  0  0
 12 20  1  0  0  0  0
 14 15  1  6  0  0  0
 14 22  1  0  0  0  0
 16 17  1  1  0  0  0
 16 24  1  0  0  0  0
 18 19  1  1  0  0  0
 18 25  1  0  0  0  0
 20 21  1  6  0  0  0
 20 27  1  0  0  0  0
 22 23  1  1  0  0  0
 22 29  1  0  0  0  0
 24  2  1  6  0  0  0
 24 31  1  0  0  0  0
 25 26  1  0  0  0  0
 25 33  1  6  0  0  0
 27 28  1  1  0  0  0
 27 35  1  0  0  0  0
 29 30  1  0  0  0  0
 29 37  1  6  0  0  0
 31 32  1  1  0  0  0
 31 39  1  0  0  0  0
 33 34  1  0  0  0  0
 35 36  1  0  0  0  0
 35 41  1  6  0  0  0
 37 38  1  0  0  0  0
 39 40  1  6  0  0  0
 41 42  1  0  0  0  0
M  END
>  <CHROM.1>
-153.31737160,98.12117873,61.96736168,64.70013198,66.25894566,-137.53056211
-70.01269695,-38.86647646,166.06965598,-178.47145465,-60.48904196,48.59644862
178.97236412,-56.91829194,-53.17329127,-179.04291764,-165.45979786,-152.88508283
-55.32038755,177.50412551,144.61892675,66.97710129,3.90367380,5.55087158
26.90487979,0.43540945,-0.57299703,-0.95499408

>  <Name>
1fyp_lig

>  <RI>
0

>  <Rbt.Current_Directory>
/home/itssahil/PROJECTS/Mol_Feturizer/New_Systems/rnas/1fyp

>  <Rbt.Executable>
rbdock ($Id: //depot/dev/client3/rdock/2013.1/src/exe/rbdock.cxx#4 $)

>  <Rbt.Library>
libRbt.so (2013.1, Build901 2013/11/27)

>  <Rbt.Parameter_File>
/export/apps/rDock/src/rDock_2013.1_src/data/scripts/dock_solv.prm

>  <Rbt.Receptor>
prm/blind_docking_80.prm

>  <SCORE>
-41.2977

>  <SCORE.INTER>
-40.7405

>  <SCORE.INTER.CONST>
1

>  <SCORE.INTER.POLAR>
-6.28116

>  <SCORE.INTER.ROT>
14

>  <SCORE.INTER.SOLV>
19.2362

>  <SCORE.INTER.VDW>
-25.5686

>  <SCORE.INTER.norm>
-0.970013

>  <SCORE.INTRA>
-2.98776

>  <SCORE.INTRA.DIHEDRAL>
-26.4013

>  <SCORE.INTRA.DIHEDRAL.0>
48.7173

>  <SCORE.INTRA.POLAR>
1.26802

>  <SCORE.INTRA.POLAR.0>
-1.54691

>  <SCORE.INTRA.REPUL>
0

>  <SCORE.INTRA.REPUL.0>
0

>  <SCORE.INTRA.SOLV>
0.271444

>  <SCORE.INTRA.SOLV.lig_0>
-64.052

>  <SCORE.INTRA.VDW>
5.7659

>  <SCORE.INTRA.VDW.0>
-7.0667

>  <SCORE.INTRA.norm>
-0.0711371

>  <SCORE.RESTR>
2.4306

>  <SCORE.RESTR.CAVITY>
2.4306

>  <SCORE.RESTR.norm>
0.0578714

>  <SCORE.SYSTEM>
0

>  <SCORE.SYSTEM.CONST>
0

>  <SCORE.SYSTEM.DIHEDRAL>
0

>  <SCORE.SYSTEM.SOLV>
0

>  <SCORE.SYSTEM.norm>
0

>  <SCORE.heavy>
42

>  <SCORE.norm>
-0.983279

>  <RMSD>
5.458

$$$$
1fyp_lig
 OpenBabel11021811393D
libRbt.so/2013.1/901 2013/11/27
 42 45  0  0  0  0  0  0  0  0999 V2000
    2.4670    5.2417   24.4041 C   0  0  2  0  0  0  0  0  0  0  0  0
    3.4695    4.2176   24.6661 O   0  0  0  0  0  0  0  0  0  0  0  0
    6.0837    2.5507   27.6035 C   0  0  2  0  0  0  0  0  0  0  0  0
    6.9421    2.2799   28.7715 N   0  0  0  0  0  0  0  0  0  0  0  0
    1.3558    2.1514   27.2781 C   0  0  1  0  0  0  0  0  0  0  0  0
   -2.0678   -0.4613   26.4007 C   0  0  1  0  0  0  0  0  0  0  0  0
    3.1280    6.6078   24.0318 C   0  0  2  0  0  0  0  0  0  0  0  0
    4.1317    6.4431   22.9589 N   0  0  0  0  0  0  0  0  0  0  0  0
    6.5391    3.8577   26.9243 C   0  0  0  0  0  0  0  0  0  0  0  0
    0.0056    2.6992   26.8083 C   0  0  2  0  0  0  0  0  0  0  0  0
   -0.7874    3.0511   27.9426 O   0  0  0  0  0  0  0  0  0  0  0  0
   -1.7749   -1.8672   27.0080 C   0  0  2  0  0  0  0  0  0  0  0  0
   -0.3249   -2.1745   27.0646 N   0  0  0  0  0  0  0  0  0  0  0  0
    3.7796    7.2704   25.2858 C   0  0  1  0  0  0  0  0  0  0  0  0
    4.2370    8.5823   24.9669 O   0  0  0  0  0  0  0  0  0  0  0  0
    5.6929    4.1918   25.6654 C   0  0  2  0  0  0  0  0  0  0  0  0
    6.1558    5.4942   25.1429 N   0  0  0  0  0  0  0  0  0  0  0  0
   -0.5828    1.4931   26.0710 C   0  0  2  0  0  0  0  0  0  0  0  0
   -1.2151    0.5564   26.9871 O   0  0  0  0  0  0  0  0  0  0  0  0
   -2.5606   -2.9771   26.2439 C   0  0  1  0  0  0  0  0  0  0  0  0
   -3.9384   -2.8841   26.5999 O   0  0  0  0  0  0  0  0  0  0  0  0
    2.7834    7.3698   26.4681 C   0  0  2  0  0  0  0  0  0  0  0  0
    3.4621    7.8944   27.6052 O   0  0  0  0  0  0  0  0  0  0  0  0
    4.1488    4.2053   25.9545 C   0  0  2  0  0  0  0  0  0  0  0  0
    0.6647    0.8657   25.4334 C   0  0  2  0  0  0  0  0  0  0  0  0
    1.7520    1.1398   26.3382 O   0  0  0  0  0  0  0  0  0  0  0  0
   -2.4502   -2.8813   24.6920 C   0  0  2  0  0  0  0  0  0  0  0  0
   -1.1410   -3.3000   24.3030 O   0  0  0  0  0  0  0  0  0  0  0  0
    2.1817    5.9717   26.7866 C   0  0  2  0  0  0  0  0  0  0  0  0
    1.5952    5.4154   25.5716 O   0  0  0  0  0  0  0  0  0  0  0  0
    3.6706    2.9581   26.7827 C   0  0  2  0  0  0  0  0  0  0  0  0
    2.3334    3.2303   27.2771 O   0  0  0  0  0  0  0  0  0  0  0  0
    0.9805    1.4353   24.0389 C   0  0  0  0  0  0  0  0  0  0  0  0
   -0.1752    1.4337   23.2192 O   0  0  0  0  0  0  0  0  0  0  0  0
   -2.7157   -1.4223   24.2068 C   0  0  1  0  0  0  0  0  0  0  0  0
   -1.8632   -0.4964   24.9474 O   0  0  0  0  0  0  0  0  0  0  0  0
    1.0659    5.9738   27.8553 C   0  0  0  0  0  0  0  0  0  0  0  0
    1.4832    6.6417   29.0340 O   0  0  0  0  0  0  0  0  0  0  0  0
    4.5918    2.6485   28.0034 C   0  0  1  0  0  0  0  0  0  0  0  0
    4.1816    1.4126   28.5864 O   0  0  0  0  0  0  0  0  0  0  0  0
   -2.4599   -1.2411   22.6886 C   0  0  0  0  0  0  0  0  0  0  0  0
   -1.0491   -1.4651   22.3246 N   0  0  0  0  0  0  0  0  0  0  0  0
  1  2  1  1  0  0  0
  1  7  1  0  0  0  0
  1 30  1  0  0  0  0
  3  4  1  1  0  0  0
  3  9  1  0  0  0  0
  3 39  1  0  0  0  0
  5 10  1  0  0  0  0
  5 26  1  0  0  0  0
  5 32  1  6  0  0  0
  6 12  1  0  0  0  0
  6 36  1  0  0  0  0
  6 19  1  1  0  0  0
  7  8  1  6  0  0  0
  7 14  1  0  0  0  0
  9 16  1  0  0  0  0
 10 11  1  1  0  0  0
 10 18  1  0  0  0  0
 12 13  1  6  0  0  0
 12 20  1  0  0  0  0
 14 15  1  6  0  0  0
 14 22  1  0  0  0  0
 16 17  1  1  0  0  0
 16 24  1  0  0  0  0
 18 19  1  1  0  0  0
 18 25  1  0  0  0  0
 20 21  1  6  0  0  0
 20 27  1  0  0  0  0
 22 23  1  1  0  0  0
 22 29  1  0  0  0  0
 24  2  1  6  0  0  0
 24 31  1  0  0  0  0
 25 26  1  0  0  0  0
 25 33  1  6  0  0  0
 27 28  1  1  0  0  0
 27 35  1  0  0  0  0
 29 30  1  0  0  0  0
 29 37  1  1  0  0  0
 31 32  1  1  0  0  0
 31 39  1  0  0  0  0
 33 34  1  0  0  0  0
 35 36  1  0  0  0  0
 35 41  1  6  0  0  0
 37 38  1  0  0  0  0
 39 40  1  6  0  0  0
 41 42  1  0  0  0  0
M  END
>  <CHROM.1>
78.85639210,-127.27339438,82.89535231,168.55094792,-168.44917948,165.37846872
-65.95742311,-4.62654088,166.34810471,134.22903833,65.58208534,65.70653885
-49.19317952,63.61455034,-52.07978996,140.50798865,-138.21173859,-26.81331981
-63.86913861,-161.23909300,77.58611478,-13.66281061,1.51678316,2.48551795
25.98419805,0.71780506,-0.58828739,-0.43464638

>  <Name>
1fyp_lig

>  <RI>
0

>  <Rbt.Current_Directory>
/home/itssahil/PROJECTS/Mol_Feturizer/New_Systems/rnas/1fyp

>  <Rbt.Executable>
rbdock ($Id: //depot/dev/client3/rdock/2013.1/src/exe/rbdock.cxx#4 $)

>  <Rbt.Library>
libRbt.so (2013.1, Build901 2013/11/27)

>  <Rbt.Parameter_File>
/export/apps/rDock/src/rDock_2013.1_src/data/scripts/dock_solv.prm

>  <Rbt.Receptor>
prm/blind_docking_40.prm

>  <SCORE>
-21.5828

>  <SCORE.INTER>
-20.6589

>  <SCORE.INTER.CONST>
1

>  <SCORE.INTER.POLAR>
-8.16508

>  <SCORE.INTER.ROT>
14

>  <SCORE.INTER.SOLV>
22.1898

>  <SCORE.INTER.VDW>
-6.88561

>  <SCORE.INTER.norm>
-0.491879

>  <SCORE.INTRA>
-1.07776

>  <SCORE.INTRA.DIHEDRAL>
-6.66807

>  <SCORE.INTRA.DIHEDRAL.0>
48.7173

>  <SCORE.INTRA.POLAR>
-0.518452

>  <SCORE.INTRA.POLAR.0>
-1.54691

>  <SCORE.INTRA.REPUL>
0.0452554

>  <SCORE.INTRA.REPUL.0>
0

>  <SCORE.INTRA.SOLV>
3.02416

>  <SCORE.INTRA.SOLV.lig_0>
-64.052

>  <SCORE.INTRA.VDW>
2.28065

>  <SCORE.INTRA.VDW.0>
-7.0667

>  <SCORE.INTRA.norm>
-0.0256611

>  <SCORE.RESTR>
0.15391

>  <SCORE.RESTR.CAVITY>
0.15391

>  <SCORE.RESTR.norm>
0.00366451

>  <SCORE.SYSTEM>
0

>  <SCORE.SYSTEM.CONST>
0

>  <SCORE.SYSTEM.DIHEDRAL>
0

>  <SCORE.SYSTEM.SOLV>
0

>  <SCORE.SYSTEM.norm>
0

>  <SCORE.heavy>
42

>  <SCORE.norm>
-0.513876

>  <RMSD>
5.471

$$$$
1fyp_lig
 OpenBabel11021811393D
libRbt.so/2013.1/901 2013/11/27
 42 45  0  0  0  0  0  0  0  0999 V2000
    4.9276    3.8865   29.0706 C   0  0  2  0  0  0  0  0  0  0  0  0
    4.1265    4.8212   28.2915 O   0  0  0  0  0  0  0  0  0  0  0  0
    4.4508    7.1801   24.7459 C   0  0  2  0  0  0  0  0  0  0  0  0
    4.7304    7.7187   23.4020 N   0  0  0  0  0  0  0  0  0  0  0  0
    1.6039    3.7035   27.0783 C   0  0  1  0  0  0  0  0  0  0  0  0
   -1.6623    2.6232   29.8718 C   0  0  1  0  0  0  0  0  0  0  0  0
    4.8394    2.4372   28.4928 C   0  0  2  0  0  0  0  0  0  0  0  0
    5.1169    2.4209   27.0408 N   0  0  0  0  0  0  0  0  0  0  0  0
    5.7678    6.7073   25.3932 C   0  0  0  0  0  0  0  0  0  0  0  0
    0.2652    4.4400   27.1740 C   0  0  2  0  0  0  0  0  0  0  0  0
    0.3852    5.5312   28.0875 O   0  0  0  0  0  0  0  0  0  0  0  0
   -1.6584    2.9914   31.3869 C   0  0  2  0  0  0  0  0  0  0  0  0
   -0.3226    2.8286   32.0111 N   0  0  0  0  0  0  0  0  0  0  0  0
    3.4417    1.8065   28.7840 C   0  0  1  0  0  0  0  0  0  0  0  0
    3.4301    0.4355   28.3942 O   0  0  0  0  0  0  0  0  0  0  0  0
    5.5514    6.1509   26.8270 C   0  0  2  0  0  0  0  0  0  0  0  0
    6.8531    5.6547   27.3199 N   0  0  0  0  0  0  0  0  0  0  0  0
   -0.6542    3.3487   27.7291 C   0  0  2  0  0  0  0  0  0  0  0  0
   -0.5458    3.2358   29.1755 O   0  0  0  0  0  0  0  0  0  0  0  0
   -2.7472    2.1833   32.1580 C   0  0  1  0  0  0  0  0  0  0  0  0
   -4.0278    2.7135   31.8225 O   0  0  0  0  0  0  0  0  0  0  0  0
    3.0713    1.8948   30.2858 C   0  0  2  0  0  0  0  0  0  0  0  0
    1.7523    1.3897   30.4699 O   0  0  0  0  0  0  0  0  0  0  0  0
    4.4506    5.0316   26.8872 C   0  0  2  0  0  0  0  0  0  0  0  0
   -0.1056    2.0879   27.0466 C   0  0  2  0  0  0  0  0  0  0  0  0
    1.3077    2.3120   26.8784 O   0  0  0  0  0  0  0  0  0  0  0  0
   -2.7521    0.6575   31.8392 C   0  0  2  0  0  0  0  0  0  0  0  0
   -1.6177    0.0585   32.4675 O   0  0  0  0  0  0  0  0  0  0  0  0
    3.1681    3.3659   30.7805 C   0  0  2  0  0  0  0  0  0  0  0  0
    4.4960    3.8875   30.4730 O   0  0  0  0  0  0  0  0  0  0  0  0
    3.1435    5.4165   26.1039 C   0  0  2  0  0  0  0  0  0  0  0  0
    2.3475    4.2146   25.9357 O   0  0  0  0  0  0  0  0  0  0  0  0
   -0.7624    1.8056   25.6837 C   0  0  0  0  0  0  0  0  0  0  0  0
   -2.1617    1.6324   25.8235 O   0  0  0  0  0  0  0  0  0  0  0  0
   -2.7065    0.4132   30.2989 C   0  0  1  0  0  0  0  0  0  0  0  0
   -1.5985    1.1648   29.7157 O   0  0  0  0  0  0  0  0  0  0  0  0
    2.9599    3.5544   32.2998 C   0  0  0  0  0  0  0  0  0  0  0  0
    3.8515    2.7436   33.0462 O   0  0  0  0  0  0  0  0  0  0  0  0
    3.4338    6.0146   24.6923 C   0  0  1  0  0  0  0  0  0  0  0  0
    2.2092    6.4875   24.1333 O   0  0  0  0  0  0  0  0  0  0  0  0
   -2.5476   -1.0854   29.9355 C   0  0  0  0  0  0  0  0  0  0  0  0
   -2.8637   -1.3587   28.5218 N   0  0  0  0  0  0  0  0  0  0  0  0
  1  2  1  6  0  0  0
  1  7  1  0  0  0  0
  1 30  1  0  0  0  0
  3  4  1  6  0  0  0
  3  9  1  0  0  0  0
  3 39  1  0  0  0  0
  5 10  1  0  0  0  0
  5 26  1  0  0  0  0
  5 32  1  6  0  0  0
  6 12  1  0  0  0  0
  6 36  1  0  0  0  0
  6 19  1  6  0  0  0
  7  8  1  6  0  0  0
  7 14  1  0  0  0  0
  9 16  1  0  0  0  0
 10 11  1  1  0  0  0
 10 18  1  0  0  0  0
 12 13  1  1  0  0  0
 12 20  1  0  0  0  0
 14 15  1  1  0  0  0
 14 22  1  0  0  0  0
 16 17  1  6  0  0  0
 16 24  1  0  0  0  0
 18 19  1  1  0  0  0
 18 25  1  0  0  0  0
 20 21  1  6  0  0  0
 20 27  1  0  0  0  0
 22 23  1  6  0  0  0
 22 29  1  0  0  0  0
 24  2  1  1  0  0  0
 24 31  1  0  0  0  0
 25 26  1  0  0  0  0
 25 33  1  6  0  0  0
 27 28  1  1  0  0  0
 27 35  1  0  0  0  0
 29 30  1  0  0  0  0
 29 37  1  1  0  0  0
 31 32  1  6  0  0  0
 31 39  1  0  0  0  0
 33 34  1  0  0  0  0
 35 36  1  0  0  0  0
 35 41  1  1  0  0  0
 37 38  1  0  0  0  0
 39 40  1  1  0  0  0
 41 42  1  0  0  0  0
M  END
>  <CHROM.1>
-61.50833473,-86.46667737,60.06415874,83.96718434,149.01361831,-38.30113330
-55.50150180,-56.70327963,158.17361375,-160.53784180,179.92187957,156.16860774
-59.51284535,69.14167506,54.84440220,76.00626254,84.25981563,179.95132766
164.62789853,176.48080680,-177.80342169,-169.10845411,1.48093839,3.17308588
28.52434536,-0.71739109,0.34555061,1.97465128

>  <Name>
1fyp_lig

>  <RI>
0

>  <Rbt.Current_Directory>
/home/itssahil/PROJECTS/Mol_Feturizer/New_Systems/rnas/1fyp

>  <Rbt.Executable>
rbdock ($Id: //depot/dev/client3/rdock/2013.1/src/exe/rbdock.cxx#4 $)

>  <Rbt.Library>
libRbt.so (2013.1, Build901 2013/11/27)

>  <Rbt.Parameter_File>
/export/apps/rDock/src/rDock_2013.1_src/data/scripts/dock_solv.prm

>  <Rbt.Receptor>
prm/blind_docking_60.prm

>  <SCORE>
-43.0352

>  <SCORE.INTER>
-36.9693

>  <SCORE.INTER.CONST>
1

>  <SCORE.INTER.POLAR>
-5.53239

>  <SCORE.INTER.ROT>
14

>  <SCORE.INTER.SOLV>
17.1741

>  <SCORE.INTER.VDW>
-24.8629

>  <SCORE.INTER.norm>
-0.880222

>  <SCORE.INTRA>
-8.57475

>  <SCORE.INTRA.DIHEDRAL>
-28.5921

>  <SCORE.INTRA.DIHEDRAL.0>
48.7173

>  <SCORE.INTRA.POLAR>
0.893782

>  <SCORE.INTRA.POLAR.0>
-1.54691

>  <SCORE.INTRA.REPUL>
0.369659

>  <SCORE.INTRA.REPUL.0>
0

>  <SCORE.INTRA.SOLV>
1.17017

>  <SCORE.INTRA.SOLV.lig_0>
-64.052

>  <SCORE.INTRA.VDW>
0.249078

>  <SCORE.INTRA.VDW.0>
-7.0667

>  <SCORE.INTRA.norm>
-0.204161

>  <SCORE.RESTR>
2.50886

>  <SCORE.RESTR.CAVITY>
2.50886

>  <SCORE.RESTR.norm>
0.0597348

>  <SCORE.SYSTEM>
0

>  <SCORE.SYSTEM.CONST>
0

>  <SCORE.SYSTEM.DIHEDRAL>
0

>  <SCORE.SYSTEM.SOLV>
0

>  <SCORE.SYSTEM.norm>
0

>  <SCORE.heavy>
42

>  <SCORE.norm>
-1.02465

>  <RMSD>
5.471

$$$$
1fyp_lig
 OpenBabel11021811393D
libRbt.so/2013.1/901 2013/11/27
 42 45  0  0  0  0  0  0  0  0999 V2000
    4.4570    4.6976   26.0818 C   0  0  2  0  0  0  0  0  0  0  0  0
    5.0048    4.3541   27.3873 O   0  0  0  0  0  0  0  0  0  0  0  0
    4.0564    4.3839   31.5515 C   0  0  2  0  0  0  0  0  0  0  0  0
    3.6136    4.7109   32.9195 N   0  0  0  0  0  0  0  0  0  0  0  0
    1.2919    2.8099   28.1350 C   0  0  1  0  0  0  0  0  0  0  0  0
   -2.3518    0.5573   27.0443 C   0  0  1  0  0  0  0  0  0  0  0  0
    5.4213    5.6341   25.2848 C   0  0  2  0  0  0  0  0  0  0  0  0
    6.7937    5.0855   25.2492 N   0  0  0  0  0  0  0  0  0  0  0  0
    5.0108    5.4835   31.0446 C   0  0  0  0  0  0  0  0  0  0  0  0
   -0.0027    3.2078   27.4214 C   0  0  2  0  0  0  0  0  0  0  0  0
   -1.0115    3.4981   28.3898 O   0  0  0  0  0  0  0  0  0  0  0  0
   -2.9036   -0.6048   27.9253 C   0  0  2  0  0  0  0  0  0  0  0  0
   -1.9177   -1.6969   28.1138 N   0  0  0  0  0  0  0  0  0  0  0  0
    5.4284    7.0717   25.8924 C   0  0  1  0  0  0  0  0  0  0  0  0
    6.1850    7.9516   25.0646 O   0  0  0  0  0  0  0  0  0  0  0  0
    5.5398    5.1892   29.6143 C   0  0  2  0  0  0  0  0  0  0  0  0
    6.3739    6.3353   29.1967 N   0  0  0  0  0  0  0  0  0  0  0  0
   -0.3335    1.9342   26.6386 C   0  0  2  0  0  0  0  0  0  0  0  0
   -1.0212    0.9552   27.4662 O   0  0  0  0  0  0  0  0  0  0  0  0
   -4.2483   -1.1475   27.3504 C   0  0  1  0  0  0  0  0  0  0  0  0
   -5.2723   -0.1898   27.6111 O   0  0  0  0  0  0  0  0  0  0  0  0
    3.9956    7.6428   26.0382 C   0  0  2  0  0  0  0  0  0  0  0  0
    4.0641    8.9119   26.6813 O   0  0  0  0  0  0  0  0  0  0  0  0
    4.3877    4.9118   28.5829 C   0  0  2  0  0  0  0  0  0  0  0  0
    1.0610    1.4258   26.2471 C   0  0  2  0  0  0  0  0  0  0  0  0
    1.9423    1.8266   27.3141 O   0  0  0  0  0  0  0  0  0  0  0  0
   -4.2189   -1.4249   25.8168 C   0  0  2  0  0  0  0  0  0  0  0  0
   -3.4452   -2.6028   25.5830 O   0  0  0  0  0  0  0  0  0  0  0  0
    3.1041    6.6635   26.8533 C   0  0  2  0  0  0  0  0  0  0  0  0
    3.1485    5.3448   26.2298 O   0  0  0  0  0  0  0  0  0  0  0  0
    3.3079    3.9080   29.1274 C   0  0  2  0  0  0  0  0  0  0  0  0
    2.1449    3.9830   28.2623 O   0  0  0  0  0  0  0  0  0  0  0  0
    1.5575    1.9982   24.9076 C   0  0  0  0  0  0  0  0  0  0  0  0
    2.3066    3.1835   25.1115 O   0  0  0  0  0  0  0  0  0  0  0  0
   -3.6045   -0.2150   25.0466 C   0  0  1  0  0  0  0  0  0  0  0  0
   -2.3169    0.1396   25.6373 O   0  0  0  0  0  0  0  0  0  0  0  0
    1.6138    7.0619   26.9395 C   0  0  0  0  0  0  0  0  0  0  0  0
    1.3402    8.2064   26.1491 O   0  0  0  0  0  0  0  0  0  0  0  0
    2.8567    4.2313   30.5856 C   0  0  1  0  0  0  0  0  0  0  0  0
    2.0134    3.1780   31.0495 O   0  0  0  0  0  0  0  0  0  0  0  0
   -3.4053   -0.5059   23.5370 C   0  0  0  0  0  0  0  0  0  0  0  0
   -2.5925    0.5255   22.8673 N   0  0  0  0  0  0  0  0  0  0  0  0
  1  2  1  1  0  0  0
  1  7  1  0  0  0  0
  1 30  1  0  0  0  0
  3  4  1  1  0  0  0
  3  9  1  0  0  0  0
  3 39  1  0  0  0  0
  5 10  1  0  0  0  0
  5 26  1  0  0  0  0
  5 32  1  6  0  0  0
  6 12  1  0  0  0  0
  6 36  1  0  0  0  0
  6 19  1  1  0  0  0
  7  8  1  1  0  0  0
  7 14  1  0  0  0  0
  9 16  1  0  0  0  0
 10 11  1  1  0  0  0
 10 18  1  0  0  0  0
 12 13  1  6  0  0  0
 12 20  1  0  0  0  0
 14 15  1  6  0  0  0
 14 22  1  0  0  0  0
 16 17  1  6  0  0  0
 16 24  1  0  0  0  0
 18 19  1  1  0  0  0
 18 25  1  0  0  0  0
 20 21  1  6  0  0  0
 20 27  1  0  0  0  0
 22 23  1  1  0  0  0
 22 29  1  0  0  0  0
 24  2  1  6  0  0  0
 24 31  1  0  0  0  0
 25 26  1  0  0  0  0
 25 33  1  6  0  0  0
 27 28  1  1  0  0  0
 27 35  1  0  0  0  0
 29 30  1  0  0  0  0
 29 37  1  6  0  0  0
 31 32  1  6  0  0  0
 31 39  1  0  0  0  0
 33 34  1  0  0  0  0
 35 36  1  0  0  0  0
 35 41  1  6  0  0  0
 37 38  1  0  0  0  0
 39 40  1  1  0  0  0
 41 42  1  0  0  0  0
M  END
>  <CHROM.1>
109.58573186,-144.38739239,73.59233739,8.55838194,-175.53982136,74.69627238
57.89531727,-179.93056203,119.42136703,173.68688812,-61.12816700,51.66778504
91.78848664,178.10918830,4.86179493,152.20222592,168.34774471,-70.96402331
-168.86301273,80.94390538,170.10716014,155.48602810,1.40359545,3.31584984
27.21776782,-0.00235463,-0.72531600,-1.35909325

>  <Name>
1fyp_lig

>  <RI>
0

>  <Rbt.Current_Directory>
/home/itssahil/PROJECTS/Mol_Feturizer/New_Systems/rnas/1fyp

>  <Rbt.Executable>
rbdock ($Id: //depot/dev/client3/rdock/2013.1/src/exe/rbdock.cxx#4 $)

>  <Rbt.Library>
libRbt.so (2013.1, Build901 2013/11/27)

>  <Rbt.Parameter_File>
/export/apps/rDock/src/rDock_2013.1_src/data/scripts/dock_solv.prm

>  <Rbt.Receptor>
prm/blind_docking_80.prm

>  <SCORE>
-38.939

>  <SCORE.INTER>
-42.2225

>  <SCORE.INTER.CONST>
1

>  <SCORE.INTER.POLAR>
-5.98509

>  <SCORE.INTER.ROT>
14

>  <SCORE.INTER.SOLV>
14.3786

>  <SCORE.INTER.VDW>
-25.9242

>  <SCORE.INTER.norm>
-1.0053

>  <SCORE.INTRA>
3.25333

>  <SCORE.INTRA.DIHEDRAL>
-10.3831

>  <SCORE.INTRA.DIHEDRAL.0>
48.7173

>  <SCORE.INTRA.POLAR>
1.4532

>  <SCORE.INTRA.POLAR.0>
-1.54691

>  <SCORE.INTRA.REPUL>
0.132372

>  <SCORE.INTRA.REPUL.0>
0

>  <SCORE.INTRA.SOLV>
0.110261

>  <SCORE.INTRA.SOLV.lig_0>
-64.052

>  <SCORE.INTRA.VDW>
2.78703

>  <SCORE.INTRA.VDW.0>
-7.0667

>  <SCORE.INTRA.norm>
0.0774603

>  <SCORE.RESTR>
0.0301964

>  <SCORE.RESTR.CAVITY>
0.0301964

>  <SCORE.RESTR.norm>
0.000718963

>  <SCORE.SYSTEM>
0

>  <SCORE.SYSTEM.CONST>
0

>  <SCORE.SYSTEM.DIHEDRAL>
0

>  <SCORE.SYSTEM.SOLV>
0

>  <SCORE.SYSTEM.norm>
0

>  <SCORE.heavy>
42

>  <SCORE.norm>
-0.927118

>  <RMSD>
5.477

$$$$
1fyp_lig
 OpenBabel11021811393D
libRbt.so/2013.1/901 2013/11/27
 42 45  0  0  0  0  0  0  0  0999 V2000
    3.8972    6.5906   24.4600 C   0  0  2  0  0  0  0  0  0  0  0  0
    5.3308    6.5315   24.2072 O   0  0  0  0  0  0  0  0  0  0  0  0
    9.0916    7.3759   26.0467 C   0  0  2  0  0  0  0  0  0  0  0  0
   10.2381    7.9655   26.7625 N   0  0  0  0  0  0  0  0  0  0  0  0
    5.1076    5.0434   27.5981 C   0  0  1  0  0  0  0  0  0  0  0  0
    3.5925    2.3970   28.1584 C   0  0  1  0  0  0  0  0  0  0  0  0
    3.1338    7.2608   23.2725 C   0  0  2  0  0  0  0  0  0  0  0  0
    3.5041    6.6443   21.9808 N   0  0  0  0  0  0  0  0  0  0  0  0
    8.6169    8.3489   24.9490 C   0  0  0  0  0  0  0  0  0  0  0  0
    6.3042    4.1575   27.9544 C   0  0  2  0  0  0  0  0  0  0  0  0
    6.6772    3.3791   26.8166 O   0  0  0  0  0  0  0  0  0  0  0  0
    2.6459    1.3092   28.7518 C   0  0  2  0  0  0  0  0  0  0  0  0
    3.1511   -0.0683   28.5341 N   0  0  0  0  0  0  0  0  0  0  0  0
    3.4022    8.7979   23.2355 C   0  0  1  0  0  0  0  0  0  0  0  0
    2.5786    9.4173   22.2509 O   0  0  0  0  0  0  0  0  0  0  0  0
    7.4242    7.7785   24.1337 C   0  0  2  0  0  0  0  0  0  0  0  0
    6.9989    8.8154   23.1706 N   0  0  0  0  0  0  0  0  0  0  0  0
    5.7230    3.2770   29.0641 C   0  0  2  0  0  0  0  0  0  0  0  0
    4.9754    2.1516   28.5245 O   0  0  0  0  0  0  0  0  0  0  0  0
    1.1956    1.4751   28.2021 C   0  0  1  0  0  0  0  0  0  0  0  0
    0.6050    2.6175   28.8182 O   0  0  0  0  0  0  0  0  0  0  0  0
    3.1196    9.4653   24.6049 C   0  0  2  0  0  0  0  0  0  0  0  0
    3.4713   10.8436   24.5318 O   0  0  0  0  0  0  0  0  0  0  0  0
    6.2298    7.3154   25.0431 C   0  0  2  0  0  0  0  0  0  0  0  0
    4.7838    4.2510   29.7891 C   0  0  2  0  0  0  0  0  0  0  0  0
    4.2998    5.1588   28.7804 O   0  0  0  0  0  0  0  0  0  0  0  0
    1.1181    1.6598   26.6562 C   0  0  2  0  0  0  0  0  0  0  0  0
    1.3942    0.4038   26.0342 O   0  0  0  0  0  0  0  0  0  0  0  0
    3.9247    8.7538   25.7291 C   0  0  2  0  0  0  0  0  0  0  0  0
    3.6259    7.3256   25.7007 O   0  0  0  0  0  0  0  0  0  0  0  0
    6.6942    6.4447   26.2663 C   0  0  2  0  0  0  0  0  0  0  0  0
    5.5904    6.3595   27.2048 O   0  0  0  0  0  0  0  0  0  0  0  0
    5.4805    5.0346   30.9157 C   0  0  0  0  0  0  0  0  0  0  0  0
    4.5300    5.5828   31.8122 O   0  0  0  0  0  0  0  0  0  0  0  0
    2.1406    2.7357   26.1750 C   0  0  1  0  0  0  0  0  0  0  0  0
    3.4676    2.4188   26.6958 O   0  0  0  0  0  0  0  0  0  0  0  0
    3.6108    9.2429   27.1606 C   0  0  0  0  0  0  0  0  0  0  0  0
    4.6300    8.8628   28.0697 O   0  0  0  0  0  0  0  0  0  0  0  0
    7.9258    7.0482   27.0104 C   0  0  1  0  0  0  0  0  0  0  0  0
    8.3759    6.1115   27.9880 O   0  0  0  0  0  0  0  0  0  0  0  0
    2.2156    2.8407   24.6302 C   0  0  0  0  0  0  0  0  0  0  0  0
    3.3896    2.1435   24.0746 N   0  0  0  0  0  0  0  0  0  0  0  0
  1  2  1  6  0  0  0
  1  7  1  0  0  0  0
  1 30  1  0  0  0  0
  3  4  1  1  0  0  0
  3  9  1  0  0  0  0
  3 39  1  0  0  0  0
  5 10  1  0  0  0  0
  5 26  1  0  0  0  0
  5 32  1  1  0  0  0
  6 12  1  0  0  0  0
  6 36  1  0  0  0  0
  6 19  1  6  0  0  0
  7  8  1  6  0  0  0
  7 14  1  0  0  0  0
  9 16  1  0  0  0  0
 10 11  1  6  0  0  0
 10 18  1  0  0  0  0
 12 13  1  6  0  0  0
 12 20  1  0  0  0  0
 14 15  1  6  0  0  0
 14 22  1  0  0  0  0
 16 17  1  6  0  0  0
 16 24  1  0  0  0  0
 18 19  1  6  0  0  0
 18 25  1  0  0  0  0
 20 21  1  1  0  0  0
 20 27  1  0  0  0  0
 22 23  1  6  0  0  0
 22 29  1  0  0  0  0
 24  2  1  6  0  0  0
 24 31  1  0  0  0  0
 25 26  1  0  0  0  0
 25 33  1  1  0  0  0
 27 28  1  6  0  0  0
 27 35  1  0  0  0  0
 29 30  1  0  0  0  0
 29 37  1  1  0  0  0
 31 32  1  1  0  0  0
 31 39  1  0  0  0  0
 33 34  1  0  0  0  0
 35 36  1  0  0  0  0
 35 41  1  6  0  0  0
 37 38  1  0  0  0  0
 39 40  1  1  0  0  0
 41 42  1  0  0  0  0
M  END
>  <CHROM.1>
113.85145943,-146.08797529,83.52816660,-35.13104562,166.16193723,-38.89451178
55.69685763,74.85209412,-84.02369911,-131.06398492,76.77531862,-87.07234073
-161.47740123,175.17716089,-162.38944829,123.79231809,46.87304522,-142.81211632
-101.13232085,-48.16824341,63.91056523,144.55166532,4.62041103,5.50406189
26.47454189,1.11912695,-0.61261217,-0.73622158

>  <Name>
1fyp_lig

>  <RI>
0

>  <Rbt.Current_Directory>
/home/itssahil/PROJECTS/Mol_Feturizer/New_Systems/rnas/1fyp

>  <Rbt.Executable>
rbdock ($Id: //depot/dev/client3/rdock/2013.1/src/exe/rbdock.cxx#4 $)

>  <Rbt.Library>
libRbt.so (2013.1, Build901 2013/11/27)

>  <Rbt.Parameter_File>
/export/apps/rDock/src/rDock_2013.1_src/data/scripts/dock_solv.prm

>  <Rbt.Receptor>
prm/pocket_docking_3.prm

>  <SCORE>
-8.64558

>  <SCORE.INTER>
-15.6041

>  <SCORE.INTER.CONST>
1

>  <SCORE.INTER.POLAR>
-5.64539

>  <SCORE.INTER.ROT>
14

>  <SCORE.INTER.SOLV>
23.7601

>  <SCORE.INTER.VDW>
-12.4381

>  <SCORE.INTER.norm>
-0.371526

>  <SCORE.INTRA>
5.5098

>  <SCORE.INTRA.DIHEDRAL>
1.13546

>  <SCORE.INTRA.DIHEDRAL.0>
48.7173

>  <SCORE.INTRA.POLAR>
0.481966

>  <SCORE.INTRA.POLAR.0>
-1.54691

>  <SCORE.INTRA.REPUL>
0

>  <SCORE.INTRA.REPUL.0>
0

>  <SCORE.INTRA.SOLV>
0.246756

>  <SCORE.INTRA.SOLV.lig_0>
-64.052

>  <SCORE.INTRA.VDW>
3.18001

>  <SCORE.INTRA.VDW.0>
-7.0667

>  <SCORE.INTRA.norm>
0.131186

>  <SCORE.RESTR>
1.4487

>  <SCORE.RESTR.CAVITY>
1.4487

>  <SCORE.RESTR.norm>
0.0344928

>  <SCORE.SYSTEM>
0

>  <SCORE.SYSTEM.CONST>
0

>  <SCORE.SYSTEM.DIHEDRAL>
0

>  <SCORE.SYSTEM.SOLV>
0

>  <SCORE.SYSTEM.norm>
0

>  <SCORE.heavy>
42

>  <SCORE.norm>
-0.205847

>  <RMSD>
5.485

$$$$
1fyp_lig
 OpenBabel11021811393D
libRbt.so/2013.1/901 2013/11/27
 42 45  0  0  0  0  0  0  0  0999 V2000
    4.1019    4.2761   26.3255 C   0  0  2  0  0  0  0  0  0  0  0  0
    4.3713    3.8763   27.7002 O   0  0  0  0  0  0  0  0  0  0  0  0
    2.5479    3.5607   31.5494 C   0  0  2  0  0  0  0  0  0  0  0  0
    1.7905    3.7612   32.7987 N   0  0  0  0  0  0  0  0  0  0  0  0
    0.7332    1.9821   27.5594 C   0  0  1  0  0  0  0  0  0  0  0  0
   -1.9990   -0.9021   25.5487 C   0  0  1  0  0  0  0  0  0  0  0  0
    5.3953    4.2233   25.4501 C   0  0  2  0  0  0  0  0  0  0  0  0
    6.0827    2.9216   25.5869 N   0  0  0  0  0  0  0  0  0  0  0  0
    3.4775    4.7678   31.3138 C   0  0  0  0  0  0  0  0  0  0  0  0
   -0.4927    2.3338   26.7126 C   0  0  2  0  0  0  0  0  0  0  0  0
   -1.6415    2.4348   27.5550 O   0  0  0  0  0  0  0  0  0  0  0  0
   -1.0446   -1.9551   24.9071 C   0  0  2  0  0  0  0  0  0  0  0  0
    0.1856   -1.3447   24.3466 N   0  0  0  0  0  0  0  0  0  0  0  0
    6.3649    5.3892   25.8197 C   0  0  1  0  0  0  0  0  0  0  0  0
    7.4619    5.4234   24.9102 O   0  0  0  0  0  0  0  0  0  0  0  0
    4.3290    4.6111   30.0243 C   0  0  2  0  0  0  0  0  0  0  0  0
    5.1179    5.8486   29.8511 N   0  0  0  0  0  0  0  0  0  0  0  0
   -0.5900    1.1212   25.7828 C   0  0  2  0  0  0  0  0  0  0  0  0
   -1.2757    0.0069   26.4189 O   0  0  0  0  0  0  0  0  0  0  0  0
   -1.7949   -2.8052   23.8360 C   0  0  1  0  0  0  0  0  0  0  0  0
   -2.6727   -3.7072   24.5063 O   0  0  0  0  0  0  0  0  0  0  0  0
    5.6524    6.7644   25.7841 C   0  0  2  0  0  0  0  0  0  0  0  0
    6.5618    7.7706   26.2194 O   0  0  0  0  0  0  0  0  0  0  0  0
    3.4593    4.3022   28.7529 C   0  0  2  0  0  0  0  0  0  0  0  0
    0.8874    0.7800   25.5433 C   0  0  2  0  0  0  0  0  0  0  0  0
    1.5796    1.1478   26.7522 O   0  0  0  0  0  0  0  0  0  0  0  0
   -2.6364   -1.9627   22.8300 C   0  0  2  0  0  0  0  0  0  0  0  0
   -1.7432   -1.3040   21.9306 O   0  0  0  0  0  0  0  0  0  0  0  0
    4.3877    6.7412   26.6887 C   0  0  2  0  0  0  0  0  0  0  0  0
    3.5332    5.6282   26.2875 O   0  0  0  0  0  0  0  0  0  0  0  0
    2.3904    3.1772   29.0016 C   0  0  2  0  0  0  0  0  0  0  0  0
    1.4400    3.2072   27.9051 O   0  0  0  0  0  0  0  0  0  0  0  0
    1.4913    1.5260   24.3401 C   0  0  0  0  0  0  0  0  0  0  0  0
    1.3303    2.9266   24.4817 O   0  0  0  0  0  0  0  0  0  0  0  0
   -3.5131   -0.9144   23.5829 C   0  0  1  0  0  0  0  0  0  0  0  0
   -2.6758   -0.1381   24.4933 O   0  0  0  0  0  0  0  0  0  0  0  0
    3.5165    8.0152   26.6184 C   0  0  0  0  0  0  0  0  0  0  0  0
    3.1052    8.2851   25.2889 O   0  0  0  0  0  0  0  0  0  0  0  0
    1.6057    3.3676   30.3368 C   0  0  1  0  0  0  0  0  0  0  0  0
    0.7888    2.2188   30.5571 O   0  0  0  0  0  0  0  0  0  0  0  0
   -4.2460    0.0544   22.6199 C   0  0  0  0  0  0  0  0  0  0  0  0
   -5.3290   -0.6083   21.8709 N   0  0  0  0  0  0  0  0  0  0  0  0
  1  2  1  1  0  0  0
  1  7  1  0  0  0  0
  1 30  1  0  0  0  0
  3  4  1  1  0  0  0
  3  9  1  0  0  0  0
  3 39  1  0  0  0  0
  5 10  1  0  0  0  0
  5 26  1  0  0  0  0
  5 32  1  6  0  0  0
  6 12  1  0  0  0  0
  6 36  1  0  0  0  0
  6 19  1  1  0  0  0
  7  8  1  1  0  0  0
  7 14  1  0  0  0  0
  9 16  1  0  0  0  0
 10 11  1  1  0  0  0
 10 18  1  0  0  0  0
 12 13  1  6  0  0  0
 12 20  1  0  0  0  0
 14 15  1  6  0  0  0
 14 22  1  0  0  0  0
 16 17  1  6  0  0  0
 16 24  1  0  0  0  0
 18 19  1  1  0  0  0
 18 25  1  0  0  0  0
 20 21  1  1  0  0  0
 20 27  1  0  0  0  0
 22 23  1  1  0  0  0
 22 29  1  0  0  0  0
 24  2  1  6  0  0  0
 24 31  1  0  0  0  0
 25 26  1  0  0  0  0
 25 33  1  6  0  0  0
 27 28  1  6  0  0  0
 27 35  1  0  0  0  0
 29 30  1  0  0  0  0
 29 37  1  6  0  0  0
 31 32  1  6  0  0  0
 31 39  1  0  0  0  0
 33 34  1  0  0  0  0
 35 36  1  0  0  0  0
 35 41  1  6  0  0  0
 37 38  1  0  0  0  0
 39 40  1  1  0  0  0
 41 42  1  0  0  0  0
M  END
>  <CHROM.1>
158.18861565,-143.18165666,-42.69576236,-2.12316629,69.37293886,163.38717799
-174.97811040,173.50960965,150.93042430,81.96617156,-67.09390091,174.89097730
55.70880303,73.00417505,56.64729151,153.40538366,162.36482205,66.43399587
70.69695875,66.19690062,168.38823417,172.13564170,1.47493660,2.55797580,26.41084763
-0.43255240,-0.72996507,-1.66818759

>  <Name>
1fyp_lig

>  <RI>
0

>  <Rbt.Current_Directory>
/home/itssahil/PROJECTS/Mol_Feturizer/New_Systems/rnas/1fyp

>  <Rbt.Executable>
rbdock ($Id: //depot/dev/client3/rdock/2013.1/src/exe/rbdock.cxx#4 $)

>  <Rbt.Library>
libRbt.so (2013.1, Build901 2013/11/27)

>  <Rbt.Parameter_File>
/export/apps/rDock/src/rDock_2013.1_src/data/scripts/dock_solv.prm

>  <Rbt.Receptor>
prm/pocket_docking_6.prm

>  <SCORE>
-48.7708

>  <SCORE.INTER>
-42.7994

>  <SCORE.INTER.CONST>
1

>  <SCORE.INTER.POLAR>
-6.13306

>  <SCORE.INTER.ROT>
14

>  <SCORE.INTER.SOLV>
17.6264

>  <SCORE.INTER.VDW>
-26.8982

>  <SCORE.INTER.norm>
-1.01903

>  <SCORE.INTRA>
-5.99654

>  <SCORE.INTRA.DIHEDRAL>
-24.7139

>  <SCORE.INTRA.DIHEDRAL.0>
48.7173

>  <SCORE.INTRA.POLAR>
1.30086

>  <SCORE.INTRA.POLAR.0>
-1.54691

>  <SCORE.INTRA.REPUL>
0

>  <SCORE.INTRA.REPUL.0>
0

>  <SCORE.INTRA.SOLV>
-0.804864

>  <SCORE.INTRA.SOLV.lig_0>
-64.052

>  <SCORE.INTRA.VDW>
2.33991

>  <SCORE.INTRA.VDW.0>
-7.0667

>  <SCORE.INTRA.norm>
-0.142775

>  <SCORE.RESTR>
0.0251266

>  <SCORE.RESTR.CAVITY>
0.0251266

>  <SCORE.RESTR.norm>
0.000598252

>  <SCORE.SYSTEM>
0

>  <SCORE.SYSTEM.CONST>
0

>  <SCORE.SYSTEM.DIHEDRAL>
0

>  <SCORE.SYSTEM.SOLV>
0

>  <SCORE.SYSTEM.norm>
0

>  <SCORE.heavy>
42

>  <SCORE.norm>
-1.16121

>  <RMSD>
5.492

$$$$
1fyp_lig
 OpenBabel11021811393D
libRbt.so/2013.1/901 2013/11/27
 42 45  0  0  0  0  0  0  0  0999 V2000
    4.1885    6.3642   27.6487 C   0  0  2  0  0  0  0  0  0  0  0  0
    3.6783    5.3535   28.5655 O   0  0  0  0  0  0  0  0  0  0  0  0
    5.8752    3.7687   31.8675 C   0  0  2  0  0  0  0  0  0  0  0  0
    6.5488    3.5205   33.1555 N   0  0  0  0  0  0  0  0  0  0  0  0
    1.2260    3.4264   30.2476 C   0  0  1  0  0  0  0  0  0  0  0  0
   -1.2023    1.9280   26.8357 C   0  0  1  0  0  0  0  0  0  0  0  0
    3.2770    6.5050   26.3872 C   0  0  2  0  0  0  0  0  0  0  0  0
    1.8591    6.6812   26.7671 N   0  0  0  0  0  0  0  0  0  0  0  0
    6.3614    5.1107   31.2847 C   0  0  0  0  0  0  0  0  0  0  0  0
    1.1284    3.8912   28.7922 C   0  0  2  0  0  0  0  0  0  0  0  0
    0.0368    4.8016   28.6541 O   0  0  0  0  0  0  0  0  0  0  0  0
   -2.6923    1.5144   27.0357 C   0  0  2  0  0  0  0  0  0  0  0  0
   -2.8666    0.5078   28.1112 N   0  0  0  0  0  0  0  0  0  0  0  0
    3.4359    5.2705   25.4456 C   0  0  1  0  0  0  0  0  0  0  0  0
    2.7241    5.4848   24.2294 O   0  0  0  0  0  0  0  0  0  0  0  0
    5.7109    5.4245   29.9096 C   0  0  2  0  0  0  0  0  0  0  0  0
    6.1796    6.7592   29.4825 N   0  0  0  0  0  0  0  0  0  0  0  0
    0.8507    2.5751   28.0606 C   0  0  2  0  0  0  0  0  0  0  0  0
   -0.5597    2.2208   28.1038 O   0  0  0  0  0  0  0  0  0  0  0  0
   -3.3180    1.0247   25.6935 C   0  0  1  0  0  0  0  0  0  0  0  0
   -3.5315    2.1567   24.8530 O   0  0  0  0  0  0  0  0  0  0  0  0
    4.9216    4.9933   25.1045 C   0  0  2  0  0  0  0  0  0  0  0  0
    5.0055    3.8055   24.3230 O   0  0  0  0  0  0  0  0  0  0  0  0
    4.1420    5.3517   29.9463 C   0  0  2  0  0  0  0  0  0  0  0  0
    1.6838    1.5736   28.8726 C   0  0  2  0  0  0  0  0  0  0  0  0
    1.6837    2.0648   30.2270 O   0  0  0  0  0  0  0  0  0  0  0  0
   -2.4366   -0.0001   24.9170 C   0  0  2  0  0  0  0  0  0  0  0  0
   -2.4909   -1.2543   25.5986 O   0  0  0  0  0  0  0  0  0  0  0  0
    5.7577    4.8513   26.4079 C   0  0  2  0  0  0  0  0  0  0  0  0
    5.5579    6.0364   27.2358 O   0  0  0  0  0  0  0  0  0  0  0  0
    3.6061    4.0654   30.6731 C   0  0  2  0  0  0  0  0  0  0  0  0
    2.1942    4.2577   30.9486 O   0  0  0  0  0  0  0  0  0  0  0  0
    3.1284    1.4355   28.3600 C   0  0  0  0  0  0  0  0  0  0  0  0
    3.8436    2.6464   28.5330 O   0  0  0  0  0  0  0  0  0  0  0  0
   -0.9611    0.4983   24.8222 C   0  0  1  0  0  0  0  0  0  0  0  0
   -0.4757    0.8498   26.1538 O   0  0  0  0  0  0  0  0  0  0  0  0
    7.2813    4.7160   26.1898 C   0  0  0  0  0  0  0  0  0  0  0  0
    7.7460    5.6373   25.2179 O   0  0  0  0  0  0  0  0  0  0  0  0
    4.3354    3.7807   32.0229 C   0  0  1  0  0  0  0  0  0  0  0  0
    3.9052    2.5139   32.5188 O   0  0  0  0  0  0  0  0  0  0  0  0
   -0.0119   -0.5580   24.2006 C   0  0  0  0  0  0  0  0  0  0  0  0
    0.2131   -0.3352   22.7609 N   0  0  0  0  0  0  0  0  0  0  0  0
  1  2  1  1  0  0  0
  1  7  1  0  0  0  0
  1 30  1  0  0  0  0
  3  4  1  1  0  0  0
  3  9  1  0  0  0  0
  3 39  1  0  0  0  0
  5 10  1  0  0  0  0
  5 26  1  0  0  0  0
  5 32  1  1  0  0  0
  6 12  1  0  0  0  0
  6 36  1  0  0  0  0
  6 19  1  1  0  0  0
  7  8  1  1  0  0  0
  7 14  1  0  0  0  0
  9 16  1  0  0  0  0
 10 11  1  1  0  0  0
 10 18  1  0  0  0  0
 12 13  1  1  0  0  0
 12 20  1  0  0  0  0
 14 15  1  6  0  0  0
 14 22  1  0  0  0  0
 16 17  1  1  0  0  0
 16 24  1  0  0  0  0
 18 19  1  1  0  0  0
 18 25  1  0  0  0  0
 20 21  1  6  0  0  0
 20 27  1  0  0  0  0
 22 23  1  1  0  0  0
 22 29  1  0  0  0  0
 24  2  1  6  0  0  0
 24 31  1  0  0  0  0
 25 26  1  0  0  0  0
 25 33  1  6  0  0  0
 27 28  1  1  0  0  0
 27 35  1  0  0  0  0
 29 30  1  0  0  0  0
 29 37  1  6  0  0  0
 31 32  1  1  0  0  0
 31 39  1  0  0  0  0
 33 34  1  0  0  0  0
 35 36  1  0  0  0  0
 35 41  1  1  0  0  0
 37 38  1  0  0  0  0
 39 40  1  6  0  0  0
 41 42  1  0  0  0  0
M  END
>  <CHROM.1>
-161.91099492,-49.67268285,-63.22014107,68.93261284,48.03170488,11.88324252
-64.43361216,25.60317405,127.42592735,177.90671488,74.02747195,165.17767952
65.33322751,60.07760126,43.80421375,112.71993764,-73.53065876,-178.52223114
97.04162330,-57.45563819,-51.98363128,75.77573633,2.32163445,3.35985829,27.73831780
-0.34991986,-0.56425831,-1.47363278

>  <Name>
1fyp_lig

>  <RI>
0

>  <Rbt.Current_Directory>
/home/itssahil/PROJECTS/Mol_Feturizer/New_Systems/rnas/1fyp

>  <Rbt.Executable>
rbdock ($Id: //depot/dev/client3/rdock/2013.1/src/exe/rbdock.cxx#4 $)

>  <Rbt.Library>
libRbt.so (2013.1, Build901 2013/11/27)

>  <Rbt.Parameter_File>
/export/apps/rDock/src/rDock_2013.1_src/data/scripts/dock_solv.prm

>  <Rbt.Receptor>
prm/pocket_docking_5.prm

>  <SCORE>
-45.9773

>  <SCORE.INTER>
-46.5251

>  <SCORE.INTER.CONST>
1

>  <SCORE.INTER.POLAR>
-6.5506

>  <SCORE.INTER.ROT>
14

>  <SCORE.INTER.SOLV>
18.1249

>  <SCORE.INTER.VDW>
-28.1564

>  <SCORE.INTER.norm>
-1.10774

>  <SCORE.INTRA>
0.540855

>  <SCORE.INTRA.DIHEDRAL>
-19.6786

>  <SCORE.INTRA.DIHEDRAL.0>
48.7173

>  <SCORE.INTRA.POLAR>
0.874375

>  <SCORE.INTRA.POLAR.0>
-1.54691

>  <SCORE.INTRA.REPUL>
0.339607

>  <SCORE.INTRA.REPUL.0>
0

>  <SCORE.INTRA.SOLV>
1.13494

>  <SCORE.INTRA.SOLV.lig_0>
-64.052

>  <SCORE.INTRA.VDW>
5.14176

>  <SCORE.INTRA.VDW.0>
-7.0667

>  <SCORE.INTRA.norm>
0.0128775

>  <SCORE.RESTR>
0.00699569

>  <SCORE.RESTR.CAVITY>
0.00699569

>  <SCORE.RESTR.norm>
0.000166564

>  <SCORE.SYSTEM>
0

>  <SCORE.SYSTEM.CONST>
0

>  <SCORE.SYSTEM.DIHEDRAL>
0

>  <SCORE.SYSTEM.SOLV>
0

>  <SCORE.SYSTEM.norm>
0

>  <SCORE.heavy>
42

>  <SCORE.norm>
-1.0947

>  <RMSD>
5.502

$$$$
1fyp_lig
 OpenBabel11021811393D
libRbt.so/2013.1/901 2013/11/27
 42 45  0  0  0  0  0  0  0  0999 V2000
    5.3445    4.4986   27.2252 C   0  0  2  0  0  0  0  0  0  0  0  0
    5.9057    4.4958   28.5696 O   0  0  0  0  0  0  0  0  0  0  0  0
    4.1843    3.2058   32.2593 C   0  0  2  0  0  0  0  0  0  0  0  0
    3.4533    3.0764   33.5334 N   0  0  0  0  0  0  0  0  0  0  0  0
    1.9006    2.7751   28.4706 C   0  0  1  0  0  0  0  0  0  0  0  0
   -2.0891    1.2510   27.1891 C   0  0  1  0  0  0  0  0  0  0  0  0
    6.4659    4.4907   26.1369 C   0  0  2  0  0  0  0  0  0  0  0  0
    7.4499    3.4165   26.3887 N   0  0  0  0  0  0  0  0  0  0  0  0
    5.0803    4.4596   32.3072 C   0  0  0  0  0  0  0  0  0  0  0  0
    0.7091    3.5123   27.8537 C   0  0  2  0  0  0  0  0  0  0  0  0
   -0.1848    3.9242   28.8885 O   0  0  0  0  0  0  0  0  0  0  0  0
   -2.7968    0.0986   27.9651 C   0  0  2  0  0  0  0  0  0  0  0  0
   -1.9053   -1.0633   28.2011 N   0  0  0  0  0  0  0  0  0  0  0  0
    7.1822    5.8756   26.0664 C   0  0  1  0  0  0  0  0  0  0  0  0
    8.0895    5.9045   24.9674 O   0  0  0  0  0  0  0  0  0  0  0  0
    5.9034    4.6439   31.0030 C   0  0  2  0  0  0  0  0  0  0  0  0
    6.6596    5.9079   31.1213 N   0  0  0  0  0  0  0  0  0  0  0  0
    0.0835    2.4214   26.9802 C   0  0  2  0  0  0  0  0  0  0  0  0
   -0.7833    1.5435   27.7512 O   0  0  0  0  0  0  0  0  0  0  0  0
   -4.1109   -0.3321   27.2436 C   0  0  1  0  0  0  0  0  0  0  0  0
   -5.0925    0.6825   27.4453 O   0  0  0  0  0  0  0  0  0  0  0  0
    6.1724    7.0390   25.9022 C   0  0  2  0  0  0  0  0  0  0  0  0
    6.8779    8.2758   25.9385 O   0  0  0  0  0  0  0  0  0  0  0  0
    5.0102    4.6283   29.7107 C   0  0  2  0  0  0  0  0  0  0  0  0
    1.3196    1.6588   26.4832 C   0  0  2  0  0  0  0  0  0  0  0  0
    2.2949    1.7547   27.5393 O   0  0  0  0  0  0  0  0  0  0  0  0
   -3.9503   -0.5572   25.7095 C   0  0  2  0  0  0  0  0  0  0  0  0
   -3.2339   -1.7756   25.5018 O   0  0  0  0  0  0  0  0  0  0  0  0
    5.1007    6.9870   27.0278 C   0  0  2  0  0  0  0  0  0  0  0  0
    4.4778    5.6672   27.0346 O   0  0  0  0  0  0  0  0  0  0  0  0
    3.9734    3.4471   29.6980 C   0  0  2  0  0  0  0  0  0  0  0  0
    2.9961    3.7154   28.6591 O   0  0  0  0  0  0  0  0  0  0  0  0
    1.8966    2.2318   25.1765 C   0  0  0  0  0  0  0  0  0  0  0  0
    0.8843    2.3688   24.1946 O   0  0  0  0  0  0  0  0  0  0  0  0
   -3.1882    0.6348   25.0516 C   0  0  1  0  0  0  0  0  0  0  0  0
   -1.9443    0.8812   25.7757 O   0  0  0  0  0  0  0  0  0  0  0  0
    3.9566    8.0151   26.8822 C   0  0  0  0  0  0  0  0  0  0  0  0
    3.0964    7.6794   25.8066 O   0  0  0  0  0  0  0  0  0  0  0  0
    3.2174    3.2862   31.0535 C   0  0  1  0  0  0  0  0  0  0  0  0
    2.4324    2.0959   31.0029 O   0  0  0  0  0  0  0  0  0  0  0  0
   -2.8621    0.3841   23.5569 C   0  0  0  0  0  0  0  0  0  0  0  0
   -4.0742    0.3006   22.7223 N   0  0  0  0  0  0  0  0  0  0  0  0
  1  2  1  1  0  0  0
  1  7  1  0  0  0  0
  1 30  1  0  0  0  0
  3  4  1  1  0  0  0
  3  9  1  0  0  0  0
  3 39  1  0  0  0  0
  5 10  1  0  0  0  0
  5 26  1  0  0  0  0
  5 32  1  6  0  0  0
  6 12  1  0  0  0  0
  6 36  1  0  0  0  0
  6 19  1  1  0  0  0
  7  8  1  1  0  0  0
  7 14  1  0  0  0  0
  9 16  1  0  0  0  0
 10 11  1  1  0  0  0
 10 18  1  0  0  0  0
 12 13  1  6  0  0  0
 12 20  1  0  0  0  0
 14 15  1  6  0  0  0
 14 22  1  0  0  0  0
 16 17  1  1  0  0  0
 16 24  1  0  0  0  0
 18 19  1  1  0  0  0
 18 25  1  0  0  0  0
 20 21  1  6  0  0  0
 20 27  1  0  0  0  0
 22 23  1  1  0  0  0
 22 29  1  0  0  0  0
 24  2  1  6  0  0  0
 24 31  1  0  0  0  0
 25 26  1  0  0  0  0
 25 33  1  6  0  0  0
 27 28  1  1  0  0  0
 27 35  1  0  0  0  0
 29 30  1  0  0  0  0
 29 37  1  6  0  0  0
 31 32  1  6  0  0  0
 31 39  1  0  0  0  0
 33 34  1  0  0  0  0
 35 36  1  0  0  0  0
 35 41  1  6  0  0  0
 37 38  1  0  0  0  0
 39 40  1  6  0  0  0
 41 42  1  0  0  0  0
M  END
>  <CHROM.1>
174.31921128,-177.98089287,-175.95895732,-147.99432155,67.82880159,-29.82880881
45.14351300,-167.35126950,132.94935863,169.03649115,65.25823361,173.98772736
-51.20137359,-59.69765513,70.97915919,-178.41214282,153.91709468,-115.83316950
65.50260825,68.15833974,63.94498128,-8.40034504,2.03411749,3.18081654,27.54426283
-0.08398771,-0.57470086,-1.35841732

>  <Name>
1fyp_lig

>  <RI>
0

>  <Rbt.Current_Directory>
/home/itssahil/PROJECTS/Mol_Feturizer/New_Systems/rnas/1fyp

>  <Rbt.Executable>
rbdock ($Id: //depot/dev/client3/rdock/2013.1/src/exe/rbdock.cxx#4 $)

>  <Rbt.Library>
libRbt.so (2013.1, Build901 2013/11/27)

>  <Rbt.Parameter_File>
/export/apps/rDock/src/rDock_2013.1_src/data/scripts/dock_solv.prm

>  <Rbt.Receptor>
prm/pocket_docking_4.prm

>  <SCORE>
-51.634

>  <SCORE.INTER>
-49.035

>  <SCORE.INTER.CONST>
1

>  <SCORE.INTER.POLAR>
-7.33471

>  <SCORE.INTER.ROT>
14

>  <SCORE.INTER.SOLV>
16.608

>  <SCORE.INTER.VDW>
-26.7103

>  <SCORE.INTER.norm>
-1.1675

>  <SCORE.INTRA>
-4.3166

>  <SCORE.INTRA.DIHEDRAL>
-23.5704

>  <SCORE.INTRA.DIHEDRAL.0>
48.7173

>  <SCORE.INTRA.POLAR>
1.32852

>  <SCORE.INTRA.POLAR.0>
-1.54691

>  <SCORE.INTRA.REPUL>
0

>  <SCORE.INTRA.REPUL.0>
0

>  <SCORE.INTRA.SOLV>
-2.58704

>  <SCORE.INTRA.SOLV.lig_0>
-64.052

>  <SCORE.INTRA.VDW>
4.24514

>  <SCORE.INTRA.VDW.0>
-7.0667

>  <SCORE.INTRA.norm>
-0.102776

>  <SCORE.RESTR>
1.71752

>  <SCORE.RESTR.CAVITY>
1.71752

>  <SCORE.RESTR.norm>
0.0408934

>  <SCORE.SYSTEM>
0

>  <SCORE.SYSTEM.CONST>
0

>  <SCORE.SYSTEM.DIHEDRAL>
0

>  <SCORE.SYSTEM.SOLV>
0

>  <SCORE.SYSTEM.norm>
0

>  <SCORE.heavy>
42

>  <SCORE.norm>
-1.22938

>  <RMSD>
5.521

$$$$
1fyp_lig
 OpenBabel11021811393D
libRbt.so/2013.1/901 2013/11/27
 42 45  0  0  0  0  0  0  0  0999 V2000
    4.1334    5.6857   27.6489 C   0  0  2  0  0  0  0  0  0  0  0  0
    4.4167    4.6390   28.6217 O   0  0  0  0  0  0  0  0  0  0  0  0
    2.6339    2.4619   31.8346 C   0  0  2  0  0  0  0  0  0  0  0  0
    1.7259    1.7832   32.7777 N   0  0  0  0  0  0  0  0  0  0  0  0
    2.2394    1.0709   27.8938 C   0  0  1  0  0  0  0  0  0  0  0  0
   -1.7451   -0.1915   26.5440 C   0  0  1  0  0  0  0  0  0  0  0  0
    3.9338    5.0962   26.2155 C   0  0  2  0  0  0  0  0  0  0  0  0
    2.9579    3.9856   26.2235 N   0  0  0  0  0  0  0  0  0  0  0  0
    2.1737    3.9203   31.6390 C   0  0  0  0  0  0  0  0  0  0  0  0
    1.0674    2.0494   27.7812 C   0  0  2  0  0  0  0  0  0  0  0  0
    0.4088    2.1524   29.0442 O   0  0  0  0  0  0  0  0  0  0  0  0
   -2.4828   -1.3574   27.2702 C   0  0  2  0  0  0  0  0  0  0  0  0
   -1.5478   -2.3560   27.8437 N   0  0  0  0  0  0  0  0  0  0  0  0
    5.2934    4.6179   25.6166 C   0  0  1  0  0  0  0  0  0  0  0  0
    5.1223    4.2316   24.2553 O   0  0  0  0  0  0  0  0  0  0  0  0
    3.1041    4.7059   30.6750 C   0  0  2  0  0  0  0  0  0  0  0  0
    2.5314    6.0562   30.4953 N   0  0  0  0  0  0  0  0  0  0  0  0
    0.1782    1.3559   26.7455 C   0  0  2  0  0  0  0  0  0  0  0  0
   -0.6585    0.3316   27.3516 O   0  0  0  0  0  0  0  0  0  0  0  0
   -3.5226   -2.0323   26.3234 C   0  0  1  0  0  0  0  0  0  0  0  0
   -4.6340   -1.1521   26.1695 O   0  0  0  0  0  0  0  0  0  0  0  0
    6.3737    5.7265   25.6820 C   0  0  2  0  0  0  0  0  0  0  0  0
    7.6097    5.2000   25.2089 O   0  0  0  0  0  0  0  0  0  0  0  0
    3.3065    3.9803   29.2963 C   0  0  2  0  0  0  0  0  0  0  0  0
    1.2133    0.7211   25.8062 C   0  0  2  0  0  0  0  0  0  0  0  0
    2.3485    0.3946   26.6311 O   0  0  0  0  0  0  0  0  0  0  0  0
   -2.9679   -2.3697   24.9062 C   0  0  2  0  0  0  0  0  0  0  0  0
   -2.0869   -3.4887   25.0179 O   0  0  0  0  0  0  0  0  0  0  0  0
    6.5234    6.2497   27.1388 C   0  0  2  0  0  0  0  0  0  0  0  0
    5.2169    6.6750   27.6309 O   0  0  0  0  0  0  0  0  0  0  0  0
    3.6271    2.4496   29.4521 C   0  0  2  0  0  0  0  0  0  0  0  0
    3.4606    1.8193   28.1554 O   0  0  0  0  0  0  0  0  0  0  0  0
    1.6424    1.6562   24.6617 C   0  0  0  0  0  0  0  0  0  0  0  0
    0.5969    2.5495   24.3202 O   0  0  0  0  0  0  0  0  0  0  0  0
   -2.2112   -1.1464   24.3018 C   0  0  1  0  0  0  0  0  0  0  0  0
   -1.2183   -0.6629   25.2573 O   0  0  0  0  0  0  0  0  0  0  0  0
    7.4716    7.4589   27.2996 C   0  0  0  0  0  0  0  0  0  0  0  0
    8.7691    7.1644   26.8107 O   0  0  0  0  0  0  0  0  0  0  0  0
    2.6885    1.7318   30.4710 C   0  0  1  0  0  0  0  0  0  0  0  0
    3.1609    0.4005   30.6715 O   0  0  0  0  0  0  0  0  0  0  0  0
   -1.5038   -1.4823   22.9639 C   0  0  0  0  0  0  0  0  0  0  0  0
   -2.4308   -1.4688   21.8178 N   0  0  0  0  0  0  0  0  0  0  0  0
  1  2  1  1  0  0  0
  1  7  1  0  0  0  0
  1 30  1  0  0  0  0
  3  4  1  1  0  0  0
  3  9  1  0  0  0  0
  3 39  1  0  0  0  0
  5 10  1  0  0  0  0
  5 26  1  0  0  0  0
  5 32  1  6  0  0  0
  6 12  1  0  0  0  0
  6 36  1  0  0  0  0
  6 19  1  1  0  0  0
  7  8  1  1  0  0  0
  7 14  1  0  0  0  0
  9 16  1  0  0  0  0
 10 11  1  1  0  0  0
 10 18  1  0  0  0  0
 12 13  1  6  0  0  0
 12 20  1  0  0  0  0
 14 15  1  6  0  0  0
 14 22  1  0  0  0  0
 16 17  1  6  0  0  0
 16 24  1  0  0  0  0
 18 19  1  1  0  0  0
 18 25  1  0  0  0  0
 20 21  1  6  0  0  0
 20 27  1  0  0  0  0
 22 23  1  1  0  0  0
 22 29  1  0  0  0  0
 24  2  1  1  0  0  0
 24 31  1  0  0  0  0
 25 26  1  0  0  0  0
 25 33  1  6  0  0  0
 27 28  1  1  0  0  0
 27 35  1  0  0  0  0
 29 30  1  0  0  0  0
 29 37  1  6  0  0  0
 31 32  1  6  0  0  0
 31 39  1  0  0  0  0
 33 34  1  0  0  0  0
 35 36  1  0  0  0  0
 35 41  1  6  0  0  0
 37 38  1  0  0  0  0
 39 40  1  1  0  0  0
 41 42  1  0  0  0  0
M  END
>  <CHROM.1>
-88.51043147,-95.86721034,46.70894899,-178.82400004,-56.87377190,-169.60944178
-150.06301479,-40.63821666,166.88853643,175.35649589,-174.17818148,69.07871769
-29.18774383,171.65693547,-57.25752794,-101.23743566,70.19867318,71.47803113
80.27619961,-58.75930395,179.74146626,-137.26673126,1.88769774,2.13937013
27.17023113,-0.25458737,-0.71653180,-1.64194815

>  <Name>
1fyp_lig

>  <RI>
0

>  <Rbt.Current_Directory>
/home/itssahil/PROJECTS/Mol_Feturizer/New_Systems/rnas/1fyp

>  <Rbt.Executable>
rbdock ($Id: //depot/dev/client3/rdock/2013.1/src/exe/rbdock.cxx#4 $)

>  <Rbt.Library>
libRbt.so (2013.1, Build901 2013/11/27)

>  <Rbt.Parameter_File>
/export/apps/rDock/src/rDock_2013.1_src/data/scripts/dock_solv.prm

>  <Rbt.Receptor>
prm/blind_docking_60.prm

>  <SCORE>
-55.1816

>  <SCORE.INTER>
-52.9555

>  <SCORE.INTER.CONST>
1

>  <SCORE.INTER.POLAR>
-8.3116

>  <SCORE.INTER.ROT>
14

>  <SCORE.INTER.SOLV>
19.6954

>  <SCORE.INTER.VDW>
-27.0967

>  <SCORE.INTER.norm>
-1.26084

>  <SCORE.INTRA>
-2.97215

>  <SCORE.INTRA.DIHEDRAL>
-20.8921

>  <SCORE.INTRA.DIHEDRAL.0>
48.7173

>  <SCORE.INTRA.POLAR>
0.494355

>  <SCORE.INTRA.POLAR.0>
-1.54691

>  <SCORE.INTRA.REPUL>
0

>  <SCORE.INTRA.REPUL.0>
0

>  <SCORE.INTRA.SOLV>
1.23514

>  <SCORE.INTRA.SOLV.lig_0>
-64.052

>  <SCORE.INTRA.VDW>
5.17551

>  <SCORE.INTRA.VDW.0>
-7.0667

>  <SCORE.INTRA.norm>
-0.0707656

>  <SCORE.RESTR>
0.746042

>  <SCORE.RESTR.CAVITY>
0.746042

>  <SCORE.RESTR.norm>
0.0177629

>  <SCORE.SYSTEM>
0

>  <SCORE.SYSTEM.CONST>
0

>  <SCORE.SYSTEM.DIHEDRAL>
0

>  <SCORE.SYSTEM.SOLV>
0

>  <SCORE.SYSTEM.norm>
0

>  <SCORE.heavy>
42

>  <SCORE.norm>
-1.31385

>  <RMSD>
5.565

$$$$
1fyp_lig
 OpenBabel11021811393D
libRbt.so/2013.1/901 2013/11/27
 42 45  0  0  0  0  0  0  0  0999 V2000
    4.9341    5.9527   28.5474 C   0  0  2  0  0  0  0  0  0  0  0  0
    3.4980    5.7551   28.4034 O   0  0  0  0  0  0  0  0  0  0  0  0
    3.4150    2.6002   31.2810 C   0  0  2  0  0  0  0  0  0  0  0  0
    3.0473    1.5705   32.2704 N   0  0  0  0  0  0  0  0  0  0  0  0
    1.2532    2.4116   27.6393 C   0  0  1  0  0  0  0  0  0  0  0  0
   -2.9812    1.3951   26.7058 C   0  0  1  0  0  0  0  0  0  0  0  0
    5.5000    6.8793   27.4235 C   0  0  2  0  0  0  0  0  0  0  0  0
    4.7169    8.1284   27.3134 N   0  0  0  0  0  0  0  0  0  0  0  0
    2.8419    3.9621   31.7210 C   0  0  0  0  0  0  0  0  0  0  0  0
    0.2899    3.2323   26.7779 C   0  0  2  0  0  0  0  0  0  0  0  0
   -0.3936    4.1809   27.5979 O   0  0  0  0  0  0  0  0  0  0  0  0
   -3.6647    0.3744   27.6661 C   0  0  2  0  0  0  0  0  0  0  0  0
   -2.7351   -0.6841   28.1306 N   0  0  0  0  0  0  0  0  0  0  0  0
    5.5287    6.1355   26.0516 C   0  0  1  0  0  0  0  0  0  0  0  0
    6.1914    6.9331   25.0736 O   0  0  0  0  0  0  0  0  0  0  0  0
    3.2150    5.1030   30.7354 C   0  0  2  0  0  0  0  0  0  0  0  0
    2.5533    6.3385   31.2036 N   0  0  0  0  0  0  0  0  0  0  0  0
   -0.6658    2.1534   26.2612 C   0  0  2  0  0  0  0  0  0  0  0  0
   -1.7046    1.8429   27.2313 O   0  0  0  0  0  0  0  0  0  0  0  0
   -4.9397   -0.2387   27.0092 C   0  0  1  0  0  0  0  0  0  0  0  0
   -5.9659    0.7515   27.0000 O   0  0  0  0  0  0  0  0  0  0  0  0
    6.2570    4.7716   26.1507 C   0  0  2  0  0  0  0  0  0  0  0  0
    6.1675    4.1044   24.8955 O   0  0  0  0  0  0  0  0  0  0  0  0
    2.8303    4.7742   29.2481 C   0  0  2  0  0  0  0  0  0  0  0  0
    0.2739    0.9540   26.0742 C   0  0  2  0  0  0  0  0  0  0  0  0
    1.2907    1.0862   27.0863 O   0  0  0  0  0  0  0  0  0  0  0  0
   -4.7266   -0.7338   25.5465 C   0  0  2  0  0  0  0  0  0  0  0  0
   -3.9571   -1.9368   25.5818 O   0  0  0  0  0  0  0  0  0  0  0  0
    5.6283    3.9041   27.2778 C   0  0  2  0  0  0  0  0  0  0  0  0
    5.6333    4.6629   28.5244 O   0  0  0  0  0  0  0  0  0  0  0  0
    3.2643    3.3288   28.8093 C   0  0  2  0  0  0  0  0  0  0  0  0
    2.5794    3.0083   27.5704 O   0  0  0  0  0  0  0  0  0  0  0  0
    0.9200    0.9061   24.6782 C   0  0  0  0  0  0  0  0  0  0  0  0
    0.0632    1.4777   23.7052 O   0  0  0  0  0  0  0  0  0  0  0  0
   -3.9938    0.3498   24.6961 C   0  0  1  0  0  0  0  0  0  0  0  0
   -2.7816    0.7793   25.3881 O   0  0  0  0  0  0  0  0  0  0  0  0
    6.3674    2.5780   27.5643 C   0  0  0  0  0  0  0  0  0  0  0  0
    7.0699    2.1225   26.4204 O   0  0  0  0  0  0  0  0  0  0  0  0
    2.9044    2.2382   29.8655 C   0  0  1  0  0  0  0  0  0  0  0  0
    3.4842    0.9987   29.4616 O   0  0  0  0  0  0  0  0  0  0  0  0
   -3.6155   -0.1559   23.2804 C   0  0  0  0  0  0  0  0  0  0  0  0
   -4.7883   -0.2861   22.3969 N   0  0  0  0  0  0  0  0  0  0  0  0
  1  2  1  6  0  0  0
  1  7  1  0  0  0  0
  1 30  1  0  0  0  0
  3  4  1  1  0  0  0
  3  9  1  0  0  0  0
  3 39  1  0  0  0  0
  5 10  1  0  0  0  0
  5 26  1  0  0  0  0
  5 32  1  6  0  0  0
  6 12  1  0  0  0  0
  6 36  1  0  0  0  0
  6 19  1  1  0  0  0
  7  8  1  6  0  0  0
  7 14  1  0  0  0  0
  9 16  1  0  0  0  0
 10 11  1  1  0  0  0
 10 18  1  0  0  0  0
 12 13  1  6  0  0  0
 12 20  1  0  0  0  0
 14 15  1  6  0  0  0
 14 22  1  0  0  0  0
 16 17  1  1  0  0  0
 16 24  1  0  0  0  0
 18 19  1  1  0  0  0
 18 25  1  0  0  0  0
 20 21  1  6  0  0  0
 20 27  1  0  0  0  0
 22 23  1  6  0  0  0
 22 29  1  0  0  0  0
 24  2  1  6  0  0  0
 24 31  1  0  0  0  0
 25 26  1  0  0  0  0
 25 33  1  6  0  0  0
 27 28  1  1  0  0  0
 27 35  1  0  0  0  0
 29 30  1  0  0  0  0
 29 37  1  1  0  0  0
 31 32  1  6  0  0  0
 31 39  1  0  0  0  0
 33 34  1  0  0  0  0
 35 36  1  0  0  0  0
 35 41  1  6  0  0  0
 37 38  1  0  0  0  0
 39 40  1  6  0  0  0
 41 42  1  0  0  0  0
M  END
>  <CHROM.1>
171.54491908,52.59979109,-35.28009382,169.14747856,-56.52419432,171.21810694
-67.95937504,-157.55014087,150.49532006,147.25003689,52.11951784,-63.95674941
-30.40924359,63.26793692,-26.23601513,-87.45088658,127.26473314,-63.48354445
72.54868518,66.14021640,175.59498065,77.48313940,1.29614378,2.69448949,27.25713106
0.25156569,0.50125199,1.53404123

>  <Name>
1fyp_lig

>  <RI>
0

>  <Rbt.Current_Directory>
/home/itssahil/PROJECTS/Mol_Feturizer/New_Systems/rnas/1fyp

>  <Rbt.Executable>
rbdock ($Id: //depot/dev/client3/rdock/2013.1/src/exe/rbdock.cxx#4 $)

>  <Rbt.Library>
libRbt.so (2013.1, Build901 2013/11/27)

>  <Rbt.Parameter_File>
/export/apps/rDock/src/rDock_2013.1_src/data/scripts/dock_solv.prm

>  <Rbt.Receptor>
prm/pocket_docking_7.prm

>  <SCORE>
-35.5903

>  <SCORE.INTER>
-34.5636

>  <SCORE.INTER.CONST>
1

>  <SCORE.INTER.POLAR>
-4.4473

>  <SCORE.INTER.ROT>
14

>  <SCORE.INTER.SOLV>
24.1652

>  <SCORE.INTER.VDW>
-29.2065

>  <SCORE.INTER.norm>
-0.822943

>  <SCORE.INTRA>
-1.26523

>  <SCORE.INTRA.DIHEDRAL>
-20.1769

>  <SCORE.INTRA.DIHEDRAL.0>
48.7173

>  <SCORE.INTRA.POLAR>
1.02002

>  <SCORE.INTRA.POLAR.0>
-1.54691

>  <SCORE.INTRA.REPUL>
0

>  <SCORE.INTRA.REPUL.0>
0

>  <SCORE.INTRA.SOLV>
-1.17615

>  <SCORE.INTRA.SOLV.lig_0>
-64.052

>  <SCORE.INTRA.VDW>
5.94322

>  <SCORE.INTRA.VDW.0>
-7.0667

>  <SCORE.INTRA.norm>
-0.0301244

>  <SCORE.RESTR>
0.238525

>  <SCORE.RESTR.CAVITY>
0.238525

>  <SCORE.RESTR.norm>
0.00567918

>  <SCORE.SYSTEM>
0

>  <SCORE.SYSTEM.CONST>
0

>  <SCORE.SYSTEM.DIHEDRAL>
0

>  <SCORE.SYSTEM.SOLV>
0

>  <SCORE.SYSTEM.norm>
0

>  <SCORE.heavy>
42

>  <SCORE.norm>
-0.847389

>  <RMSD>
5.606

$$$$
1fyp_lig
 OpenBabel11021811393D
libRbt.so/2013.1/901 2013/11/27
 42 45  0  0  0  0  0  0  0  0999 V2000
    5.1708    4.9836   27.7042 C   0  0  2  0  0  0  0  0  0  0  0  0
    4.8314    4.9637   29.1208 O   0  0  0  0  0  0  0  0  0  0  0  0
    2.4370    2.4458   31.6043 C   0  0  2  0  0  0  0  0  0  0  0  0
    1.3500    1.7274   32.2947 N   0  0  0  0  0  0  0  0  0  0  0  0
    2.4452    1.6866   27.4902 C   0  0  1  0  0  0  0  0  0  0  0  0
   -1.7218    0.8471   26.2254 C   0  0  1  0  0  0  0  0  0  0  0  0
    6.2861    6.0345   27.3975 C   0  0  2  0  0  0  0  0  0  0  0  0
    7.4427    5.8688   28.3033 N   0  0  0  0  0  0  0  0  0  0  0  0
    2.1972    3.9650   31.7122 C   0  0  0  0  0  0  0  0  0  0  0  0
    1.2185    2.5880   27.3279 C   0  0  2  0  0  0  0  0  0  0  0  0
    0.4226    2.5286   28.5121 O   0  0  0  0  0  0  0  0  0  0  0  0
   -2.5660   -0.0370   27.1933 C   0  0  2  0  0  0  0  0  0  0  0  0
   -1.9791   -1.3843   27.3952 N   0  0  0  0  0  0  0  0  0  0  0  0
    5.7239    7.4871   27.4973 C   0  0  1  0  0  0  0  0  0  0  0  0
    6.7051    8.4250   27.0620 O   0  0  0  0  0  0  0  0  0  0  0  0
    3.3227    4.7878   31.0276 C   0  0  2  0  0  0  0  0  0  0  0  0
    2.9560    6.2164   31.1176 N   0  0  0  0  0  0  0  0  0  0  0  0
    0.5026    1.9331   26.1434 C   0  0  2  0  0  0  0  0  0  0  0  0
   -0.3108    0.8021   26.5626 O   0  0  0  0  0  0  0  0  0  0  0  0
   -4.0468   -0.1296   26.7122 C   0  0  1  0  0  0  0  0  0  0  0  0
   -4.6855    1.1196   26.9676 O   0  0  0  0  0  0  0  0  0  0  0  0
    4.4493    7.6722   26.6363 C   0  0  2  0  0  0  0  0  0  0  0  0
    3.9350    8.9843   26.8429 O   0  0  0  0  0  0  0  0  0  0  0  0
    3.5771    4.3531   29.5395 C   0  0  2  0  0  0  0  0  0  0  0  0
    1.6789    1.4605   25.2777 C   0  0  2  0  0  0  0  0  0  0  0  0
    2.7417    1.1386   26.1957 O   0  0  0  0  0  0  0  0  0  0  0  0
   -4.2042   -0.4570   25.1963 C   0  0  2  0  0  0  0  0  0  0  0  0
   -3.8716   -1.8311   24.9915 O   0  0  0  0  0  0  0  0  0  0  0  0
    3.3848    6.6019   27.0100 C   0  0  2  0  0  0  0  0  0  0  0  0
    3.9809    5.2746   26.8965 O   0  0  0  0  0  0  0  0  0  0  0  0
    3.6741    2.7941   29.3657 C   0  0  2  0  0  0  0  0  0  0  0  0
    3.5686    2.4902   27.9505 O   0  0  0  0  0  0  0  0  0  0  0  0
    2.1530    2.5245   24.2718 C   0  0  0  0  0  0  0  0  0  0  0  0
    3.4753    2.9417   24.5634 O   0  0  0  0  0  0  0  0  0  0  0  0
   -3.2786    0.4558   24.3335 C   0  0  1  0  0  0  0  0  0  0  0  0
   -1.9118    0.3901   24.8433 O   0  0  0  0  0  0  0  0  0  0  0  0
    2.1256    6.5992   26.1147 C   0  0  0  0  0  0  0  0  0  0  0  0
    1.0045    6.0732   26.8045 O   0  0  0  0  0  0  0  0  0  0  0  0
    2.5435    2.0262   30.1184 C   0  0  1  0  0  0  0  0  0  0  0  0
    2.8116    0.6268   30.0453 O   0  0  0  0  0  0  0  0  0  0  0  0
   -3.2786    0.0609   22.8344 C   0  0  0  0  0  0  0  0  0  0  0  0
   -4.6409   -0.0737   22.2875 N   0  0  0  0  0  0  0  0  0  0  0  0
  1  2  1  1  0  0  0
  1  7  1  0  0  0  0
  1 30  1  0  0  0  0
  3  4  1  6  0  0  0
  3  9  1  0  0  0  0
  3 39  1  0  0  0  0
  5 10  1  0  0  0  0
  5 26  1  0  0  0  0
  5 32  1  6  0  0  0
  6 12  1  0  0  0  0
  6 36  1  0  0  0  0
  6 19  1  1  0  0  0
  7  8  1  1  0  0  0
  7 14  1  0  0  0  0
  9 16  1  0  0  0  0
 10 11  1  1  0  0  0
 10 18  1  0  0  0  0
 12 13  1  6  0  0  0
 12 20  1  0  0  0  0
 14 15  1  6  0  0  0
 14 22  1  0  0  0  0
 16 17  1  6  0  0  0
 16 24  1  0  0  0  0
 18 19  1  1  0  0  0
 18 25  1  0  0  0  0
 20 21  1  6  0  0  0
 20 27  1  0  0  0  0
 22 23  1  1  0  0  0
 22 29  1  0  0  0  0
 24  2  1  1  0  0  0
 24 31  1  0  0  0  0
 25 26  1  0  0  0  0
 25 33  1  6  0  0  0
 27 28  1  1  0  0  0
 27 35  1  0  0  0  0
 29 30  1  0  0  0  0
 29 37  1  6  0  0  0
 31 32  1  6  0  0  0
 31 39  1  0  0  0  0
 33 34  1  0  0  0  0
 35 36  1  0  0  0  0
 35 41  1  6  0  0  0
 37 38  1  0  0  0  0
 39 40  1  1  0  0  0
 41 42  1  0  0  0  0
M  END
>  <CHROM.1>
162.33378138,-166.34407396,72.88287362,72.28174057,-179.63928279,168.72060292
63.27013978,-36.57838684,123.16832543,-155.80249801,63.55341832,-51.90050036
115.40247160,64.83621194,-154.18356407,-117.54291608,81.78440999,26.12026312
50.36693158,102.36319797,-62.29647330,82.93823683,1.45593899,3.02586593,27.31020655
-0.02919227,-0.72056546,-1.17185238

>  <Name>
1fyp_lig

>  <RI>
0

>  <Rbt.Current_Directory>
/home/itssahil/PROJECTS/Mol_Feturizer/New_Systems/rnas/1fyp

>  <Rbt.Executable>
rbdock ($Id: //depot/dev/client3/rdock/2013.1/src/exe/rbdock.cxx#4 $)

>  <Rbt.Library>
libRbt.so (2013.1, Build901 2013/11/27)

>  <Rbt.Parameter_File>
/export/apps/rDock/src/rDock_2013.1_src/data/scripts/dock_solv.prm

>  <Rbt.Receptor>
prm/blind_docking_100.prm

>  <SCORE>
-42.9427

>  <SCORE.INTER>
-49.7807

>  <SCORE.INTER.CONST>
1

>  <SCORE.INTER.POLAR>
-6.59154

>  <SCORE.INTER.ROT>
14

>  <SCORE.INTER.SOLV>
20.0987

>  <SCORE.INTER.VDW>
-30.8482

>  <SCORE.INTER.norm>
-1.18525

>  <SCORE.INTRA>
6.63534

>  <SCORE.INTRA.DIHEDRAL>
-6.69627

>  <SCORE.INTRA.DIHEDRAL.0>
48.7173

>  <SCORE.INTRA.POLAR>
1.15232

>  <SCORE.INTRA.POLAR.0>
-1.54691

>  <SCORE.INTRA.REPUL>
0.134828

>  <SCORE.INTRA.REPUL.0>
0

>  <SCORE.INTRA.SOLV>
-0.27823

>  <SCORE.INTRA.SOLV.lig_0>
-64.052

>  <SCORE.INTRA.VDW>
5.53057

>  <SCORE.INTRA.VDW.0>
-7.0667

>  <SCORE.INTRA.norm>
0.157984

>  <SCORE.RESTR>
0.202632

>  <SCORE.RESTR.CAVITY>
0.202632

>  <SCORE.RESTR.norm>
0.00482457

>  <SCORE.SYSTEM>
0

>  <SCORE.SYSTEM.CONST>
0

>  <SCORE.SYSTEM.DIHEDRAL>
0

>  <SCORE.SYSTEM.SOLV>
0

>  <SCORE.SYSTEM.norm>
0

>  <SCORE.heavy>
42

>  <SCORE.norm>
-1.02245

>  <RMSD>
5.630

$$$$
1fyp_lig
 OpenBabel11021811393D
libRbt.so/2013.1/901 2013/11/27
 42 45  0  0  0  0  0  0  0  0999 V2000
    4.7080    5.9730   28.1558 C   0  0  2  0  0  0  0  0  0  0  0  0
    3.3061    5.6136   27.9895 O   0  0  0  0  0  0  0  0  0  0  0  0
    3.4360    2.6965   31.1063 C   0  0  2  0  0  0  0  0  0  0  0  0
    3.1385    1.7246   32.1747 N   0  0  0  0  0  0  0  0  0  0  0  0
    1.3356    2.0117   27.5020 C   0  0  1  0  0  0  0  0  0  0  0  0
   -2.8921    0.7242   27.0350 C   0  0  1  0  0  0  0  0  0  0  0  0
    5.1968    6.9169   27.0103 C   0  0  2  0  0  0  0  0  0  0  0  0
    4.2848    8.0676   26.8378 N   0  0  0  0  0  0  0  0  0  0  0  0
    2.7685    4.0456   31.4397 C   0  0  0  0  0  0  0  0  0  0  0  0
    0.1729    2.9150   27.0826 C   0  0  2  0  0  0  0  0  0  0  0  0
   -0.3952    3.5297   28.2397 O   0  0  0  0  0  0  0  0  0  0  0  0
   -3.3824   -0.4267   27.9656 C   0  0  2  0  0  0  0  0  0  0  0  0
   -2.3272   -1.4345   28.2328 N   0  0  0  0  0  0  0  0  0  0  0  0
    5.3405    6.1339   25.6678 C   0  0  1  0  0  0  0  0  0  0  0  0
    5.9360    6.9654   24.6750 O   0  0  0  0  0  0  0  0  0  0  0  0
    3.0637    5.1287   30.3663 C   0  0  2  0  0  0  0  0  0  0  0  0
    2.3166    6.3482   30.7381 N   0  0  0  0  0  0  0  0  0  0  0  0
   -0.7957    1.9087   26.4553 C   0  0  2  0  0  0  0  0  0  0  0  0
   -1.6033    1.2373   27.4621 O   0  0  0  0  0  0  0  0  0  0  0  0
   -4.6714   -1.0931   27.3934 C   0  0  1  0  0  0  0  0  0  0  0  0
   -5.7659   -0.1985   27.5811 O   0  0  0  0  0  0  0  0  0  0  0  0
    6.2108    4.8628   25.8325 C   0  0  2  0  0  0  0  0  0  0  0  0
    6.2259    4.1468   24.6012 O   0  0  0  0  0  0  0  0  0  0  0  0
    2.7062    4.6581   28.9106 C   0  0  2  0  0  0  0  0  0  0  0  0
    0.1626    0.9162   25.7822 C   0  0  2  0  0  0  0  0  0  0  0  0
    1.3473    0.8921   26.6018 O   0  0  0  0  0  0  0  0  0  0  0  0
   -4.5855   -1.4473   25.8778 C   0  0  2  0  0  0  0  0  0  0  0  0
   -3.7258   -2.5777   25.7236 O   0  0  0  0  0  0  0  0  0  0  0  0
    5.6531    3.9707   26.9776 C   0  0  2  0  0  0  0  0  0  0  0  0
    5.5444    4.7680   28.1951 O   0  0  0  0  0  0  0  0  0  0  0  0
    3.2407    3.2163   28.5854 C   0  0  2  0  0  0  0  0  0  0  0  0
    2.5827    2.7527   27.3777 O   0  0  0  0  0  0  0  0  0  0  0  0
    0.5252    1.3119   24.3398 C   0  0  0  0  0  0  0  0  0  0  0  0
   -0.2657    0.5975   23.4061 O   0  0  0  0  0  0  0  0  0  0  0  0
   -4.0388   -0.2386   25.0565 C   0  0  1  0  0  0  0  0  0  0  0  0
   -2.7940    0.2372   25.6535 O   0  0  0  0  0  0  0  0  0  0  0  0
    6.5255    2.7447   27.3284 C   0  0  0  0  0  0  0  0  0  0  0  0
    5.9817    2.0210   28.4192 O   0  0  0  0  0  0  0  0  0  0  0  0
    2.9550    2.1898   29.7252 C   0  0  1  0  0  0  0  0  0  0  0  0
    3.6206    0.9656   29.4181 O   0  0  0  0  0  0  0  0  0  0  0  0
   -3.7832   -0.5929   23.5691 C   0  0  0  0  0  0  0  0  0  0  0  0
   -3.2197    0.5379   22.8096 N   0  0  0  0  0  0  0  0  0  0  0  0
  1  2  1  6  0  0  0
  1  7  1  0  0  0  0
  1 30  1  0  0  0  0
  3  4  1  1  0  0  0
  3  9  1  0  0  0  0
  3 39  1  0  0  0  0
  5 10  1  0  0  0  0
  5 26  1  0  0  0  0
  5 32  1  6  0  0  0
  6 12  1  0  0  0  0
  6 36  1  0  0  0  0
  6 19  1  1  0  0  0
  7  8  1  6  0  0  0
  7 14  1  0  0  0  0
  9 16  1  0  0  0  0
 10 11  1  1  0  0  0
 10 18  1  0  0  0  0
 12 13  1  6  0  0  0
 12 20  1  0  0  0  0
 14 15  1  6  0  0  0
 14 22  1  0  0  0  0
 16 17  1  1  0  0  0
 16 24  1  0  0  0  0
 18 19  1  1  0  0  0
 18 25  1  0  0  0  0
 20 21  1  6  0  0  0
 20 27  1  0  0  0  0
 22 23  1  6  0  0  0
 22 29  1  0  0  0  0
 24  2  1  6  0  0  0
 24 31  1  0  0  0  0
 25 26  1  0  0  0  0
 25 33  1  6  0  0  0
 27 28  1  1  0  0  0
 27 35  1  0  0  0  0
 29 30  1  0  0  0  0
 29 37  1  1  0  0  0
 31 32  1  6  0  0  0
 31 39  1  0  0  0  0
 33 34  1  0  0  0  0
 35 36  1  0  0  0  0
 35 41  1  6  0  0  0
 37 38  1  0  0  0  0
 39 40  1  6  0  0  0
 41 42  1  0  0  0  0
M  END
>  <CHROM.1>
175.44835480,49.48276080,-156.66493104,-159.77519899,-70.43778645,76.13479922
68.79499164,173.81834618,154.38402191,156.81024796,-60.74618119,-73.84423696
-98.48318013,171.60585754,177.27697383,-90.59429349,105.88633097,165.80954943
-177.86188386,-173.65304016,-178.94789585,-176.34405103,1.28953108,2.47360870
27.24406771,-0.13856971,-0.59068429,-1.50180963

>  <Name>
1fyp_lig

>  <RI>
0

>  <Rbt.Current_Directory>
/home/itssahil/PROJECTS/Mol_Feturizer/New_Systems/rnas/1fyp

>  <Rbt.Executable>
rbdock ($Id: //depot/dev/client3/rdock/2013.1/src/exe/rbdock.cxx#4 $)

>  <Rbt.Library>
libRbt.so (2013.1, Build901 2013/11/27)

>  <Rbt.Parameter_File>
/export/apps/rDock/src/rDock_2013.1_src/data/scripts/dock_solv.prm

>  <Rbt.Receptor>
prm/blind_docking_40.prm

>  <SCORE>
-37.9567

>  <SCORE.INTER>
-30.5705

>  <SCORE.INTER.CONST>
1

>  <SCORE.INTER.POLAR>
-3.7771

>  <SCORE.INTER.ROT>
14

>  <SCORE.INTER.SOLV>
20.4595

>  <SCORE.INTER.VDW>
-27.5432

>  <SCORE.INTER.norm>
-0.727868

>  <SCORE.INTRA>
-7.63438

>  <SCORE.INTRA.DIHEDRAL>
-23.7501

>  <SCORE.INTRA.DIHEDRAL.0>
48.7173

>  <SCORE.INTRA.POLAR>
0.238287

>  <SCORE.INTRA.POLAR.0>
-1.54691

>  <SCORE.INTRA.REPUL>
0

>  <SCORE.INTRA.REPUL.0>
0

>  <SCORE.INTRA.SOLV>
0.0459269

>  <SCORE.INTRA.SOLV.lig_0>
-64.052

>  <SCORE.INTRA.VDW>
3.40755

>  <SCORE.INTRA.VDW.0>
-7.0667

>  <SCORE.INTRA.norm>
-0.181771

>  <SCORE.RESTR>
0.248202

>  <SCORE.RESTR.CAVITY>
0.248202

>  <SCORE.RESTR.norm>
0.00590958

>  <SCORE.SYSTEM>
0

>  <SCORE.SYSTEM.CONST>
0

>  <SCORE.SYSTEM.DIHEDRAL>
0

>  <SCORE.SYSTEM.SOLV>
0

>  <SCORE.SYSTEM.norm>
0

>  <SCORE.heavy>
42

>  <SCORE.norm>
-0.90373

>  <RMSD>
5.630

$$$$
1fyp_lig
 OpenBabel11021811393D
libRbt.so/2013.1/901 2013/11/27
 42 45  0  0  0  0  0  0  0  0999 V2000
    2.6394    6.4250   26.7118 C   0  0  2  0  0  0  0  0  0  0  0  0
    1.9157    5.3323   26.0757 O   0  0  0  0  0  0  0  0  0  0  0  0
    2.0053    2.6622   29.4078 C   0  0  2  0  0  0  0  0  0  0  0  0
    1.7150    1.6684   30.4579 N   0  0  0  0  0  0  0  0  0  0  0  0
    0.9254    2.0105   25.1341 C   0  0  1  0  0  0  0  0  0  0  0  0
   -2.7069   -0.4486   24.3042 C   0  0  1  0  0  0  0  0  0  0  0  0
    3.3142    7.3568   25.6543 C   0  0  2  0  0  0  0  0  0  0  0  0
    2.3477    7.7815   24.6193 N   0  0  0  0  0  0  0  0  0  0  0  0
    0.9098    3.7470   29.4114 C   0  0  0  0  0  0  0  0  0  0  0  0
    0.7620    0.4912   25.2270 C   0  0  2  0  0  0  0  0  0  0  0  0
    1.0698   -0.0999   23.9639 O   0  0  0  0  0  0  0  0  0  0  0  0
   -2.3685   -1.8672   24.8554 C   0  0  2  0  0  0  0  0  0  0  0  0
   -1.1009   -2.4067   24.3053 N   0  0  0  0  0  0  0  0  0  0  0  0
    4.5401    6.6519   24.9936 C   0  0  1  0  0  0  0  0  0  0  0  0
    5.2380    7.5661   24.1517 O   0  0  0  0  0  0  0  0  0  0  0  0
    1.1673    4.8458   28.3442 C   0  0  2  0  0  0  0  0  0  0  0  0
    0.0257    5.7836   28.3774 N   0  0  0  0  0  0  0  0  0  0  0  0
   -0.7271    0.3554   25.5563 C   0  0  2  0  0  0  0  0  0  0  0  0
   -1.5532    0.4303   24.3611 O   0  0  0  0  0  0  0  0  0  0  0  0
   -3.5543   -2.8527   24.6191 C   0  0  1  0  0  0  0  0  0  0  0  0
   -4.6036   -2.5257   25.5277 O   0  0  0  0  0  0  0  0  0  0  0  0
    5.5293    6.1039   26.0526 C   0  0  2  0  0  0  0  0  0  0  0  0
    6.5724    5.3943   25.3913 O   0  0  0  0  0  0  0  0  0  0  0  0
    1.3853    4.2579   26.9038 C   0  0  2  0  0  0  0  0  0  0  0  0
   -0.9698    1.5742   26.4574 C   0  0  2  0  0  0  0  0  0  0  0  0
   -0.0661    2.5958   25.9933 O   0  0  0  0  0  0  0  0  0  0  0  0
   -4.1331   -2.8165   23.1722 C   0  0  2  0  0  0  0  0  0  0  0  0
   -3.2034   -3.4542   22.2950 O   0  0  0  0  0  0  0  0  0  0  0  0
    4.7872    5.1765   27.0563 C   0  0  2  0  0  0  0  0  0  0  0  0
    3.6567    5.8997   27.6296 O   0  0  0  0  0  0  0  0  0  0  0  0
    2.3837    3.0442   26.8832 C   0  0  2  0  0  0  0  0  0  0  0  0
    2.2551    2.3756   25.6015 O   0  0  0  0  0  0  0  0  0  0  0  0
   -0.7180    1.2822   27.9474 C   0  0  0  0  0  0  0  0  0  0  0  0
   -1.6750    0.3670   28.4515 O   0  0  0  0  0  0  0  0  0  0  0  0
   -4.3859   -1.3468   22.7133 C   0  0  1  0  0  0  0  0  0  0  0  0
   -3.1763   -0.5544   22.9171 O   0  0  0  0  0  0  0  0  0  0  0  0
    5.6461    4.6860   28.2432 C   0  0  0  0  0  0  0  0  0  0  0  0
    4.8888    3.8773   29.1274 O   0  0  0  0  0  0  0  0  0  0  0  0
    2.0999    2.0035   28.0105 C   0  0  1  0  0  0  0  0  0  0  0  0
    3.1500    1.0375   28.0186 O   0  0  0  0  0  0  0  0  0  0  0  0
   -4.8093   -1.2494   21.2252 C   0  0  0  0  0  0  0  0  0  0  0  0
   -3.9046   -1.9958   20.3322 N   0  0  0  0  0  0  0  0  0  0  0  0
  1  2  1  6  0  0  0
  1  7  1  0  0  0  0
  1 30  1  0  0  0  0
  3  4  1  1  0  0  0
  3  9  1  0  0  0  0
  3 39  1  0  0  0  0
  5 10  1  0  0  0  0
  5 26  1  0  0  0  0
  5 32  1  1  0  0  0
  6 12  1  0  0  0  0
  6 36  1  0  0  0  0
  6 19  1  6  0  0  0
  7  8  1  6  0  0  0
  7 14  1  0  0  0  0
  9 16  1  0  0  0  0
 10 11  1  6  0  0  0
 10 18  1  0  0  0  0
 12 13  1  6  0  0  0
 12 20  1  0  0  0  0
 14 15  1  6  0  0  0
 14 22  1  0  0  0  0
 16 17  1  6  0  0  0
 16 24  1  0  0  0  0
 18 19  1  6  0  0  0
 18 25  1  0  0  0  0
 20 21  1  1  0  0  0
 20 27  1  0  0  0  0
 22 23  1  6  0  0  0
 22 29  1  0  0  0  0
 24  2  1  6  0  0  0
 24 31  1  0  0  0  0
 25 26  1  0  0  0  0
 25 33  1  1  0  0  0
 27 28  1  6  0  0  0
 27 35  1  0  0  0  0
 29 30  1  0  0  0  0
 29 37  1  1  0  0  0
 31 32  1  6  0  0  0
 31 39  1  0  0  0  0
 33 34  1  0  0  0  0
 35 36  1  0  0  0  0
 35 41  1  6  0  0  0
 37 38  1  0  0  0  0
 39 40  1  1  0  0  0
 41 42  1  0  0  0  0
M  END
>  <CHROM.1>
171.28825369,25.13939039,82.32682779,-64.89135991,7.89139953,47.16949752
-161.42707219,-166.97912663,141.76059002,-41.13206171,-71.53146601,-15.75375743
-66.92614561,-42.20523350,178.45781800,-50.38816594,-108.00263847,153.02182126
-50.21562699,69.41030664,70.92424345,48.65779730,0.66597677,2.14456209,25.85471974
-0.12254947,-0.83902434,-1.30631252

>  <Name>
1fyp_lig

>  <RI>
0

>  <Rbt.Current_Directory>
/home/itssahil/PROJECTS/Mol_Feturizer/New_Systems/rnas/1fyp

>  <Rbt.Executable>
rbdock ($Id: //depot/dev/client3/rdock/2013.1/src/exe/rbdock.cxx#4 $)

>  <Rbt.Library>
libRbt.so (2013.1, Build901 2013/11/27)

>  <Rbt.Parameter_File>
/export/apps/rDock/src/rDock_2013.1_src/data/scripts/dock_solv.prm

>  <Rbt.Receptor>
prm/blind_docking_100.prm

>  <SCORE>
-34.5029

>  <SCORE.INTER>
-40.2512

>  <SCORE.INTER.CONST>
1

>  <SCORE.INTER.POLAR>
-6.11205

>  <SCORE.INTER.ROT>
14

>  <SCORE.INTER.SOLV>
14.4082

>  <SCORE.INTER.VDW>
-24.1967

>  <SCORE.INTER.norm>
-0.958362

>  <SCORE.INTRA>
5.74832

>  <SCORE.INTRA.DIHEDRAL>
-7.70248

>  <SCORE.INTRA.DIHEDRAL.0>
48.7173

>  <SCORE.INTRA.POLAR>
-0.698479

>  <SCORE.INTRA.POLAR.0>
-1.54691

>  <SCORE.INTRA.REPUL>
0

>  <SCORE.INTRA.REPUL.0>
0

>  <SCORE.INTRA.SOLV>
1.79196

>  <SCORE.INTRA.SOLV.lig_0>
-64.052

>  <SCORE.INTRA.VDW>
11.0784

>  <SCORE.INTRA.VDW.0>
-7.0667

>  <SCORE.INTRA.norm>
0.136865

>  <SCORE.RESTR>
0

>  <SCORE.RESTR.CAVITY>
0

>  <SCORE.RESTR.norm>
0

>  <SCORE.SYSTEM>
0

>  <SCORE.SYSTEM.CONST>
0

>  <SCORE.SYSTEM.DIHEDRAL>
0

>  <SCORE.SYSTEM.SOLV>
0

>  <SCORE.SYSTEM.norm>
0

>  <SCORE.heavy>
42

>  <SCORE.norm>
-0.821497

>  <RMSD>
5.650

$$$$
1fyp_lig
 OpenBabel11021811393D
libRbt.so/2013.1/901 2013/11/27
 42 45  0  0  0  0  0  0  0  0999 V2000
    4.9711    5.1588   28.3919 C   0  0  2  0  0  0  0  0  0  0  0  0
    3.8479    5.6678   29.1676 O   0  0  0  0  0  0  0  0  0  0  0  0
    3.2444    2.3532   31.7925 C   0  0  2  0  0  0  0  0  0  0  0  0
    2.7088    1.3155   32.6929 N   0  0  0  0  0  0  0  0  0  0  0  0
    1.3691    2.3430   28.0480 C   0  0  1  0  0  0  0  0  0  0  0  0
   -2.7118    0.9073   27.0182 C   0  0  1  0  0  0  0  0  0  0  0  0
    6.1322    6.2019   28.3136 C   0  0  2  0  0  0  0  0  0  0  0  0
    6.4920    6.7056   29.6562 N   0  0  0  0  0  0  0  0  0  0  0  0
    2.8531    3.7461   32.3250 C   0  0  0  0  0  0  0  0  0  0  0  0
    0.2201    3.2113   27.5290 C   0  0  2  0  0  0  0  0  0  0  0  0
   -0.5138    3.7415   28.6335 O   0  0  0  0  0  0  0  0  0  0  0  0
   -3.3802   -0.1591   27.9385 C   0  0  2  0  0  0  0  0  0  0  0  0
   -2.4108   -1.1553   28.4564 N   0  0  0  0  0  0  0  0  0  0  0  0
    5.7512    7.3887   27.3743 C   0  0  1  0  0  0  0  0  0  0  0  0
    6.8733    8.2474   27.1871 O   0  0  0  0  0  0  0  0  0  0  0  0
    3.4094    4.8925   31.4369 C   0  0  2  0  0  0  0  0  0  0  0  0
    2.9120    6.1710   31.9862 N   0  0  0  0  0  0  0  0  0  0  0  0
   -0.6130    2.1935   26.7452 C   0  0  2  0  0  0  0  0  0  0  0  0
   -1.4997    1.4368   27.6157 O   0  0  0  0  0  0  0  0  0  0  0  0
   -4.5722   -0.8531   27.2101 C   0  0  1  0  0  0  0  0  0  0  0  0
   -5.6593    0.0673   27.1413 O   0  0  0  0  0  0  0  0  0  0  0  0
    5.2724    6.8942   25.9863 C   0  0  2  0  0  0  0  0  0  0  0  0
    4.8531    8.0143   25.2128 O   0  0  0  0  0  0  0  0  0  0  0  0
    3.0263    4.7311   29.9219 C   0  0  2  0  0  0  0  0  0  0  0  0
    0.4692    1.2805   26.1520 C   0  0  2  0  0  0  0  0  0  0  0  0
    1.5467    1.2708   27.1085 O   0  0  0  0  0  0  0  0  0  0  0  0
   -4.2435   -1.3287   25.7625 C   0  0  2  0  0  0  0  0  0  0  0  0
   -3.3995   -2.4784   25.8428 O   0  0  0  0  0  0  0  0  0  0  0  0
    4.1097    5.8742   26.1477 C   0  0  2  0  0  0  0  0  0  0  0  0
    4.5367    4.7991   27.0373 O   0  0  0  0  0  0  0  0  0  0  0  0
    3.2684    3.2752   29.3816 C   0  0  2  0  0  0  0  0  0  0  0  0
    2.5821    3.1459   28.1093 O   0  0  0  0  0  0  0  0  0  0  0  0
    0.9813    1.7629   24.7832 C   0  0  0  0  0  0  0  0  0  0  0  0
    1.7871    2.9198   24.9245 O   0  0  0  0  0  0  0  0  0  0  0  0
   -3.5363   -0.1966   24.9546 C   0  0  1  0  0  0  0  0  0  0  0  0
   -2.3968    0.3099   25.7146 O   0  0  0  0  0  0  0  0  0  0  0  0
    3.6476    5.2042   24.8344 C   0  0  0  0  0  0  0  0  0  0  0  0
    4.6505    4.3497   24.3116 O   0  0  0  0  0  0  0  0  0  0  0  0
    2.7300    2.1714   30.3441 C   0  0  1  0  0  0  0  0  0  0  0  0
    3.1439    0.8958   29.8572 O   0  0  0  0  0  0  0  0  0  0  0  0
   -3.0450   -0.6721   23.5633 C   0  0  0  0  0  0  0  0  0  0  0  0
   -2.0960   -1.7964   23.6552 N   0  0  0  0  0  0  0  0  0  0  0  0
  1  2  1  1  0  0  0
  1  7  1  0  0  0  0
  1 30  1  0  0  0  0
  3  4  1  1  0  0  0
  3  9  1  0  0  0  0
  3 39  1  0  0  0  0
  5 10  1  0  0  0  0
  5 26  1  0  0  0  0
  5 32  1  6  0  0  0
  6 12  1  0  0  0  0
  6 36  1  0  0  0  0
  6 19  1  1  0  0  0
  7  8  1  1  0  0  0
  7 14  1  0  0  0  0
  9 16  1  0  0  0  0
 10 11  1  1  0  0  0
 10 18  1  0  0  0  0
 12 13  1  6  0  0  0
 12 20  1  0  0  0  0
 14 15  1  6  0  0  0
 14 22  1  0  0  0  0
 16 17  1  1  0  0  0
 16 24  1  0  0  0  0
 18 19  1  1  0  0  0
 18 25  1  0  0  0  0
 20 21  1  6  0  0  0
 20 27  1  0  0  0  0
 22 23  1  6  0  0  0
 22 29  1  0  0  0  0
 24  2  1  6  0  0  0
 24 31  1  0  0  0  0
 25 26  1  0  0  0  0
 25 33  1  6  0  0  0
 27 28  1  1  0  0  0
 27 35  1  0  0  0  0
 29 30  1  0  0  0  0
 29 37  1  6  0  0  0
 31 32  1  6  0  0  0
 31 39  1  0  0  0  0
 33 34  1  0  0  0  0
 35 36  1  0  0  0  0
 35 41  1  6  0  0  0
 37 38  1  0  0  0  0
 39 40  1  6  0  0  0
 41 42  1  0  0  0  0
M  END
>  <CHROM.1>
-148.89408432,105.11580582,-36.90705652,-162.99291239,-175.66862783,-67.82217974
171.00202830,108.43504170,153.28927799,165.85838212,-65.22682196,-176.53836778
72.19534545,60.16956118,67.43983878,-107.28536615,122.43660847,-68.79353520
-58.83035661,-69.60815828,-49.98821555,144.02264006,1.37242678,2.86066557
27.60220216,-0.11013441,-0.70001561,-1.43004032

>  <Name>
1fyp_lig

>  <RI>
0

>  <Rbt.Current_Directory>
/home/itssahil/PROJECTS/Mol_Feturizer/New_Systems/rnas/1fyp

>  <Rbt.Executable>
rbdock ($Id: //depot/dev/client3/rdock/2013.1/src/exe/rbdock.cxx#4 $)

>  <Rbt.Library>
libRbt.so (2013.1, Build901 2013/11/27)

>  <Rbt.Parameter_File>
/export/apps/rDock/src/rDock_2013.1_src/data/scripts/dock_solv.prm

>  <Rbt.Receptor>
prm/pocket_docking_4.prm

>  <SCORE>
-37.5453

>  <SCORE.INTER>
-42.3838

>  <SCORE.INTER.CONST>
1

>  <SCORE.INTER.POLAR>
-6.07325

>  <SCORE.INTER.ROT>
14

>  <SCORE.INTER.SOLV>
17.0328

>  <SCORE.INTER.VDW>
-26.6226

>  <SCORE.INTER.norm>
-1.00914

>  <SCORE.INTRA>
1.75543

>  <SCORE.INTRA.DIHEDRAL>
-13.4348

>  <SCORE.INTRA.DIHEDRAL.0>
48.7173

>  <SCORE.INTRA.POLAR>
0.524689

>  <SCORE.INTRA.POLAR.0>
-1.54691

>  <SCORE.INTRA.REPUL>
0.0979655

>  <SCORE.INTRA.REPUL.0>
0

>  <SCORE.INTRA.SOLV>
0.345649

>  <SCORE.INTRA.SOLV.lig_0>
-64.052

>  <SCORE.INTRA.VDW>
6.02624

>  <SCORE.INTRA.VDW.0>
-7.0667

>  <SCORE.INTRA.norm>
0.041796

>  <SCORE.RESTR>
3.08309

>  <SCORE.RESTR.CAVITY>
3.08309

>  <SCORE.RESTR.norm>
0.073407

>  <SCORE.SYSTEM>
0

>  <SCORE.SYSTEM.CONST>
0

>  <SCORE.SYSTEM.DIHEDRAL>
0

>  <SCORE.SYSTEM.SOLV>
0

>  <SCORE.SYSTEM.norm>
0

>  <SCORE.heavy>
42

>  <SCORE.norm>
-0.893935

>  <RMSD>
5.651

$$$$
1fyp_lig
 OpenBabel11021811393D
libRbt.so/2013.1/901 2013/11/27
 42 45  0  0  0  0  0  0  0  0999 V2000
    4.5286    4.2726   26.3976 C   0  0  2  0  0  0  0  0  0  0  0  0
    4.4969    4.5527   27.8269 O   0  0  0  0  0  0  0  0  0  0  0  0
    2.8632    2.6383   31.2775 C   0  0  2  0  0  0  0  0  0  0  0  0
    1.9989    2.0706   32.3288 N   0  0  0  0  0  0  0  0  0  0  0  0
    1.9695    1.1608   27.4524 C   0  0  1  0  0  0  0  0  0  0  0  0
   -2.1205    0.0424   26.4060 C   0  0  1  0  0  0  0  0  0  0  0  0
    5.9822    4.3567   25.8300 C   0  0  2  0  0  0  0  0  0  0  0  0
    6.9200    3.5456   26.6350 N   0  0  0  0  0  0  0  0  0  0  0  0
    2.5103    4.1247   31.0707 C   0  0  0  0  0  0  0  0  0  0  0  0
    0.8891    2.2244   27.2401 C   0  0  2  0  0  0  0  0  0  0  0  0
    0.3027    2.5663   28.4966 O   0  0  0  0  0  0  0  0  0  0  0  0
   -2.9755   -0.8613   27.3459 C   0  0  2  0  0  0  0  0  0  0  0  0
   -2.1469   -1.7788   28.1656 N   0  0  0  0  0  0  0  0  0  0  0  0
    6.4680    5.8384   25.7625 C   0  0  1  0  0  0  0  0  0  0  0  0
    7.7269    5.9134   25.0982 O   0  0  0  0  0  0  0  0  0  0  0  0
    3.4037    4.7964   29.9923 C   0  0  2  0  0  0  0  0  0  0  0  0
    2.9316    6.1856   29.8162 N   0  0  0  0  0  0  0  0  0  0  0  0
   -0.1078    1.4844   26.3441 C   0  0  2  0  0  0  0  0  0  0  0  0
   -1.0064    0.6415   27.1178 O   0  0  0  0  0  0  0  0  0  0  0  0
   -4.0541   -1.6432   26.5345 C   0  0  1  0  0  0  0  0  0  0  0  0
   -5.0773   -0.7302   26.1431 O   0  0  0  0  0  0  0  0  0  0  0  0
    5.4592    6.7419   25.0099 C   0  0  2  0  0  0  0  0  0  0  0  0
    5.9128    8.0910   25.0642 O   0  0  0  0  0  0  0  0  0  0  0  0
    3.4073    4.0144   28.6297 C   0  0  2  0  0  0  0  0  0  0  0  0
    0.8190    0.6266   25.4714 C   0  0  2  0  0  0  0  0  0  0  0  0
    1.9565    0.3080   26.2963 O   0  0  0  0  0  0  0  0  0  0  0  0
   -3.5053   -2.3396   25.2525 C   0  0  2  0  0  0  0  0  0  0  0  0
   -2.7325   -3.4743   25.6475 O   0  0  0  0  0  0  0  0  0  0  0  0
    4.0440    6.6144   25.6416 C   0  0  2  0  0  0  0  0  0  0  0  0
    3.6595    5.2069   25.6733 O   0  0  0  0  0  0  0  0  0  0  0  0
    3.6118    2.4670   28.8131 C   0  0  2  0  0  0  0  0  0  0  0  0
    3.2656    1.8146   27.5637 O   0  0  0  0  0  0  0  0  0  0  0  0
    1.2790    1.3468   24.1914 C   0  0  0  0  0  0  0  0  0  0  0  0
    1.3553    2.7463   24.3989 O   0  0  0  0  0  0  0  0  0  0  0  0
   -2.6284   -1.3543   24.4191 C   0  0  1  0  0  0  0  0  0  0  0  0
   -1.6142   -0.7520   25.2800 O   0  0  0  0  0  0  0  0  0  0  0  0
    2.9249    7.3615   24.8822 C   0  0  0  0  0  0  0  0  0  0  0  0
    2.7257    6.8142   23.5898 O   0  0  0  0  0  0  0  0  0  0  0  0
    2.7213    1.8652   29.9443 C   0  0  1  0  0  0  0  0  0  0  0  0
    3.0976    0.5044   30.1500 O   0  0  0  0  0  0  0  0  0  0  0  0
   -1.9289   -2.0440   23.2199 C   0  0  0  0  0  0  0  0  0  0  0  0
   -0.8441   -1.2230   22.6523 N   0  0  0  0  0  0  0  0  0  0  0  0
  1  2  1  1  0  0  0
  1  7  1  0  0  0  0
  1 30  1  0  0  0  0
  3  4  1  1  0  0  0
  3  9  1  0  0  0  0
  3 39  1  0  0  0  0
  5 10  1  0  0  0  0
  5 26  1  0  0  0  0
  5 32  1  6  0  0  0
  6 12  1  0  0  0  0
  6 36  1  0  0  0  0
  6 19  1  1  0  0  0
  7  8  1  1  0  0  0
  7 14  1  0  0  0  0
  9 16  1  0  0  0  0
 10 11  1  1  0  0  0
 10 18  1  0  0  0  0
 12 13  1  6  0  0  0
 12 20  1  0  0  0  0
 14 15  1  6  0  0  0
 14 22  1  0  0  0  0
 16 17  1  6  0  0  0
 16 24  1  0  0  0  0
 18 19  1  1  0  0  0
 18 25  1  0  0  0  0
 20 21  1  6  0  0  0
 20 27  1  0  0  0  0
 22 23  1  1  0  0  0
 22 29  1  0  0  0  0
 24  2  1  6  0  0  0
 24 31  1  0  0  0  0
 25 26  1  0  0  0  0
 25 33  1  6  0  0  0
 27 28  1  1  0  0  0
 27 35  1  0  0  0  0
 29 30  1  0  0  0  0
 29 37  1  6  0  0  0
 31 32  1  6  0  0  0
 31 39  1  0  0  0  0
 33 34  1  0  0  0  0
 35 36  1  0  0  0  0
 35 41  1  6  0  0  0
 37 38  1  0  0  0  0
 39 40  1  1  0  0  0
 41 42  1  0  0  0  0
M  END
>  <CHROM.1>
-155.14744049,-164.10187513,158.59235622,53.25791209,80.82869070,-40.71445844
56.10608746,49.53284494,171.19305633,178.50912308,-57.89625938,59.01562328
30.27961742,-35.21579636,64.55936361,-101.63823262,77.36014309,64.03457454
-165.00805268,-50.46483879,-52.00215706,28.63031436,1.64857618,2.31103509
26.77127431,0.03309167,-0.75179703,-1.41236427

>  <Name>
1fyp_lig

>  <RI>
0

>  <Rbt.Current_Directory>
/home/itssahil/PROJECTS/Mol_Feturizer/New_Systems/rnas/1fyp

>  <Rbt.Executable>
rbdock ($Id: //depot/dev/client3/rdock/2013.1/src/exe/rbdock.cxx#4 $)

>  <Rbt.Library>
libRbt.so (2013.1, Build901 2013/11/27)

>  <Rbt.Parameter_File>
/export/apps/rDock/src/rDock_2013.1_src/data/scripts/dock_solv.prm

>  <Rbt.Receptor>
prm/pocket_docking_5.prm

>  <SCORE>
-47.0355

>  <SCORE.INTER>
-42.8822

>  <SCORE.INTER.CONST>
1

>  <SCORE.INTER.POLAR>
-5.84473

>  <SCORE.INTER.ROT>
14

>  <SCORE.INTER.SOLV>
18.9993

>  <SCORE.INTER.VDW>
-28.3721

>  <SCORE.INTER.norm>
-1.021

>  <SCORE.INTRA>
-4.38265

>  <SCORE.INTRA.DIHEDRAL>
-25.269

>  <SCORE.INTRA.DIHEDRAL.0>
48.7173

>  <SCORE.INTRA.POLAR>
0.942527

>  <SCORE.INTRA.POLAR.0>
-1.54691

>  <SCORE.INTRA.REPUL>
0

>  <SCORE.INTRA.REPUL.0>
0

>  <SCORE.INTRA.SOLV>
-0.658061

>  <SCORE.INTRA.SOLV.lig_0>
-64.052

>  <SCORE.INTRA.VDW>
5.37631

>  <SCORE.INTRA.VDW.0>
-7.0667

>  <SCORE.INTRA.norm>
-0.104349

>  <SCORE.RESTR>
0.229361

>  <SCORE.RESTR.CAVITY>
0.229361

>  <SCORE.RESTR.norm>
0.00546098

>  <SCORE.SYSTEM>
0

>  <SCORE.SYSTEM.CONST>
0

>  <SCORE.SYSTEM.DIHEDRAL>
0

>  <SCORE.SYSTEM.SOLV>
0

>  <SCORE.SYSTEM.norm>
0

>  <SCORE.heavy>
42

>  <SCORE.norm>
-1.11989

>  <RMSD>
5.652

$$$$
1fyp_lig
 OpenBabel11021811393D
libRbt.so/2013.1/901 2013/11/27
 42 45  0  0  0  0  0  0  0  0999 V2000
    3.4397    8.0926   24.2166 C   0  0  2  0  0  0  0  0  0  0  0  0
    4.8133    7.6595   24.4359 O   0  0  0  0  0  0  0  0  0  0  0  0
    7.4647    6.8758   27.6911 C   0  0  2  0  0  0  0  0  0  0  0  0
    8.0983    6.4705   28.9595 N   0  0  0  0  0  0  0  0  0  0  0  0
    4.7468    4.1502   25.5259 C   0  0  1  0  0  0  0  0  0  0  0  0
    2.1496    2.4165   27.7572 C   0  0  1  0  0  0  0  0  0  0  0  0
    3.0968    8.1591   22.6934 C   0  0  2  0  0  0  0  0  0  0  0  0
    3.4607    6.9017   22.0063 N   0  0  0  0  0  0  0  0  0  0  0  0
    6.2304    7.7497   27.9905 C   0  0  0  0  0  0  0  0  0  0  0  0
    5.0064    2.6440   25.4379 C   0  0  2  0  0  0  0  0  0  0  0  0
    4.3192    2.1065   24.3072 O   0  0  0  0  0  0  0  0  0  0  0  0
    1.0756    1.3573   28.1518 C   0  0  2  0  0  0  0  0  0  0  0  0
    0.3381    0.8271   26.9791 N   0  0  0  0  0  0  0  0  0  0  0  0
    3.8082    9.3719   22.0157 C   0  0  1  0  0  0  0  0  0  0  0  0
    3.3628    9.5135   20.6691 O   0  0  0  0  0  0  0  0  0  0  0  0
    5.5267    8.2368   26.6944 C   0  0  2  0  0  0  0  0  0  0  0  0
    4.3203    8.9918   27.0921 N   0  0  0  0  0  0  0  0  0  0  0  0
    4.3955    2.1433   26.7495 C   0  0  2  0  0  0  0  0  0  0  0  0
    2.9563    1.9612   26.6397 O   0  0  0  0  0  0  0  0  0  0  0  0
    0.0989    1.9295   29.2249 C   0  0  1  0  0  0  0  0  0  0  0  0
    0.7858    1.9981   30.4727 O   0  0  0  0  0  0  0  0  0  0  0  0
    3.5302   10.6972   22.7684 C   0  0  2  0  0  0  0  0  0  0  0  0
    4.2788   11.7443   22.1586 O   0  0  0  0  0  0  0  0  0  0  0  0
    5.1711    7.0613   25.7147 C   0  0  2  0  0  0  0  0  0  0  0  0
    4.7222    3.2907   27.7154 C   0  0  2  0  0  0  0  0  0  0  0  0
    4.7110    4.4924   26.9207 O   0  0  0  0  0  0  0  0  0  0  0  0
   -0.4511    3.3497   28.8921 C   0  0  2  0  0  0  0  0  0  0  0  0
   -1.4067    3.2309   27.8370 O   0  0  0  0  0  0  0  0  0  0  0  0
    3.9097   10.5556   24.2698 C   0  0  2  0  0  0  0  0  0  0  0  0
    3.2117    9.4044   24.8331 O   0  0  0  0  0  0  0  0  0  0  0  0
    6.3630    6.0586   25.5045 C   0  0  2  0  0  0  0  0  0  0  0  0
    5.8390    4.8601   24.8756 O   0  0  0  0  0  0  0  0  0  0  0  0
    6.0873    3.1266   28.4071 C   0  0  0  0  0  0  0  0  0  0  0  0
    6.2836    4.1351   29.3828 O   0  0  0  0  0  0  0  0  0  0  0  0
    0.7059    4.3059   28.4661 C   0  0  1  0  0  0  0  0  0  0  0  0
    1.4929    3.6817   27.4061 O   0  0  0  0  0  0  0  0  0  0  0  0
    3.5403   11.7707   25.1497 C   0  0  0  0  0  0  0  0  0  0  0  0
    3.3081   12.9257   24.3613 O   0  0  0  0  0  0  0  0  0  0  0  0
    7.0566    5.6487   26.8407 C   0  0  1  0  0  0  0  0  0  0  0  0
    8.2206    4.8815   26.5373 O   0  0  0  0  0  0  0  0  0  0  0  0
    0.1925    5.6823   27.9710 C   0  0  0  0  0  0  0  0  0  0  0  0
    0.6929    6.7989   28.7930 N   0  0  0  0  0  0  0  0  0  0  0  0
  1  2  1  6  0  0  0
  1  7  1  0  0  0  0
  1 30  1  0  0  0  0
  3  4  1  1  0  0  0
  3  9  1  0  0  0  0
  3 39  1  0  0  0  0
  5 10  1  0  0  0  0
  5 26  1  0  0  0  0
  5 32  1  6  0  0  0
  6 12  1  0  0  0  0
  6 36  1  0  0  0  0
  6 19  1  6  0  0  0
  7  8  1  6  0  0  0
  7 14  1  0  0  0  0
  9 16  1  0  0  0  0
 10 11  1  6  0  0  0
 10 18  1  0  0  0  0
 12 13  1  6  0  0  0
 12 20  1  0  0  0  0
 14 15  1  6  0  0  0
 14 22  1  0  0  0  0
 16 17  1  1  0  0  0
 16 24  1  0  0  0  0
 18 19  1  6  0  0  0
 18 25  1  0  0  0  0
 20 21  1  1  0  0  0
 20 27  1  0  0  0  0
 22 23  1  6  0  0  0
 22 29  1  0  0  0  0
 24  2  1  6  0  0  0
 24 31  1  0  0  0  0
 25 26  1  0  0  0  0
 25 33  1  6  0  0  0
 27 28  1  6  0  0  0
 27 35  1  0  0  0  0
 29 30  1  0  0  0  0
 29 37  1  1  0  0  0
 31 32  1  1  0  0  0
 31 39  1  0  0  0  0
 33 34  1  0  0  0  0
 35 36  1  0  0  0  0
 35 41  1  6  0  0  0
 37 38  1  0  0  0  0
 39 40  1  6  0  0  0
 41 42  1  0  0  0  0
M  END
>  <CHROM.1>
-157.11145531,-85.95880546,52.56805781,101.04749974,110.70598429,73.45624208
-172.68411782,-25.32848981,-137.52595859,-134.53437919,68.32913343,82.12538797
-174.17911416,86.67795365,-18.13260321,-55.95043690,-138.31957566,-171.52187722
119.22533823,66.89630372,-175.23522934,82.24520567,3.72930312,5.90111185
26.18642807,1.32531384,-0.06501567,-0.55621835

>  <Name>
1fyp_lig

>  <RI>
0

>  <Rbt.Current_Directory>
/home/itssahil/PROJECTS/Mol_Feturizer/New_Systems/rnas/1fyp

>  <Rbt.Executable>
rbdock ($Id: //depot/dev/client3/rdock/2013.1/src/exe/rbdock.cxx#4 $)

>  <Rbt.Library>
libRbt.so (2013.1, Build901 2013/11/27)

>  <Rbt.Parameter_File>
/export/apps/rDock/src/rDock_2013.1_src/data/scripts/dock_solv.prm

>  <Rbt.Receptor>
prm/blind_docking_100.prm

>  <SCORE>
-34.8328

>  <SCORE.INTER>
-44.8643

>  <SCORE.INTER.CONST>
1

>  <SCORE.INTER.POLAR>
-7.34722

>  <SCORE.INTER.ROT>
14

>  <SCORE.INTER.SOLV>
26.2766

>  <SCORE.INTER.VDW>
-27.111

>  <SCORE.INTER.norm>
-1.0682

>  <SCORE.INTRA>
9.8239

>  <SCORE.INTRA.DIHEDRAL>
1.1227

>  <SCORE.INTRA.DIHEDRAL.0>
48.7173

>  <SCORE.INTRA.POLAR>
1.0998

>  <SCORE.INTRA.POLAR.0>
-1.54691

>  <SCORE.INTRA.REPUL>
0

>  <SCORE.INTRA.REPUL.0>
0

>  <SCORE.INTRA.SOLV>
0.319484

>  <SCORE.INTRA.SOLV.lig_0>
-64.052

>  <SCORE.INTRA.VDW>
5.36348

>  <SCORE.INTRA.VDW.0>
-7.0667

>  <SCORE.INTRA.norm>
0.233902

>  <SCORE.RESTR>
0.20763

>  <SCORE.RESTR.CAVITY>
0.20763

>  <SCORE.RESTR.norm>
0.00494358

>  <SCORE.SYSTEM>
0

>  <SCORE.SYSTEM.CONST>
0

>  <SCORE.SYSTEM.DIHEDRAL>
0

>  <SCORE.SYSTEM.SOLV>
0

>  <SCORE.SYSTEM.norm>
0

>  <SCORE.heavy>
42

>  <SCORE.norm>
-0.829353

>  <RMSD>
5.666

$$$$
1fyp_lig
 OpenBabel11021811393D
libRbt.so/2013.1/901 2013/11/27
 42 45  0  0  0  0  0  0  0  0999 V2000
    4.3505    3.5301   27.1941 C   0  0  2  0  0  0  0  0  0  0  0  0
    4.7450    3.3165   28.5801 O   0  0  0  0  0  0  0  0  0  0  0  0
    3.7525    4.4537   32.5755 C   0  0  2  0  0  0  0  0  0  0  0  0
    3.3953    5.1620   33.8185 N   0  0  0  0  0  0  0  0  0  0  0  0
    0.9898    2.8618   28.9481 C   0  0  1  0  0  0  0  0  0  0  0  0
   -2.2406    0.4737   27.0157 C   0  0  1  0  0  0  0  0  0  0  0  0
    5.5632    3.9783   26.3163 C   0  0  2  0  0  0  0  0  0  0  0  0
    6.7172    3.0713   26.4929 N   0  0  0  0  0  0  0  0  0  0  0  0
    5.0015    5.1087   31.9527 C   0  0  0  0  0  0  0  0  0  0  0  0
   -0.1846    3.3974   28.1249 C   0  0  2  0  0  0  0  0  0  0  0  0
   -1.2861    3.6761   28.9901 O   0  0  0  0  0  0  0  0  0  0  0  0
   -3.2059   -0.4072   27.8662 C   0  0  2  0  0  0  0  0  0  0  0  0
   -2.4984   -1.1806   28.9158 N   0  0  0  0  0  0  0  0  0  0  0  0
    5.9743    5.4478   26.6446 C   0  0  1  0  0  0  0  0  0  0  0  0
    6.9725    5.8949   25.7306 O   0  0  0  0  0  0  0  0  0  0  0  0
    5.4522    4.3937   30.6496 C   0  0  2  0  0  0  0  0  0  0  0  0
    6.5981    5.1447   30.0958 N   0  0  0  0  0  0  0  0  0  0  0  0
   -0.4874    2.2130   27.2031 C   0  0  2  0  0  0  0  0  0  0  0  0
   -1.3236    1.2190   27.8584 O   0  0  0  0  0  0  0  0  0  0  0  0
   -4.0580   -1.3402   26.9515 C   0  0  1  0  0  0  0  0  0  0  0  0
   -5.0387   -0.5485   26.2843 O   0  0  0  0  0  0  0  0  0  0  0  0
    4.7666    6.4151   26.5670 C   0  0  2  0  0  0  0  0  0  0  0  0
    5.1865    7.7162   26.9662 O   0  0  0  0  0  0  0  0  0  0  0  0
    4.2937    4.2562   29.5974 C   0  0  2  0  0  0  0  0  0  0  0  0
    0.9142    1.6471   26.9351 C   0  0  2  0  0  0  0  0  0  0  0  0
    1.6799    1.9054   28.1279 O   0  0  0  0  0  0  0  0  0  0  0  0
   -3.2303   -2.1025   25.8727 C   0  0  2  0  0  0  0  0  0  0  0  0
   -2.4822   -3.1336   26.5191 O   0  0  0  0  0  0  0  0  0  0  0  0
    3.6105    5.9099   27.4762 C   0  0  2  0  0  0  0  0  0  0  0  0
    3.2836    4.5344   27.1143 O   0  0  0  0  0  0  0  0  0  0  0  0
    2.9525    3.7344   30.2291 C   0  0  2  0  0  0  0  0  0  0  0  0
    1.8844    3.9635   29.2735 O   0  0  0  0  0  0  0  0  0  0  0  0
    1.6007    2.2889   25.7163 C   0  0  0  0  0  0  0  0  0  0  0  0
    2.7669    1.5690   25.3564 O   0  0  0  0  0  0  0  0  0  0  0  0
   -2.2692   -1.1293   25.1219 C   0  0  1  0  0  0  0  0  0  0  0  0
   -1.4790   -0.3754   26.0914 O   0  0  0  0  0  0  0  0  0  0  0  0
    2.2989    6.7193   27.3677 C   0  0  0  0  0  0  0  0  0  0  0  0
    1.7369    6.6175   26.0703 O   0  0  0  0  0  0  0  0  0  0  0  0
    2.5841    4.4598   31.5605 C   0  0  1  0  0  0  0  0  0  0  0  0
    1.4559    3.8078   32.1416 O   0  0  0  0  0  0  0  0  0  0  0  0
   -1.3105   -1.8659   24.1516 C   0  0  0  0  0  0  0  0  0  0  0  0
   -0.3405   -2.7210   24.8594 N   0  0  0  0  0  0  0  0  0  0  0  0
  1  2  1  1  0  0  0
  1  7  1  0  0  0  0
  1 30  1  0  0  0  0
  3  4  1  1  0  0  0
  3  9  1  0  0  0  0
  3 39  1  0  0  0  0
  5 10  1  0  0  0  0
  5 26  1  0  0  0  0
  5 32  1  6  0  0  0
  6 12  1  0  0  0  0
  6 36  1  0  0  0  0
  6 19  1  1  0  0  0
  7  8  1  1  0  0  0
  7 14  1  0  0  0  0
  9 16  1  0  0  0  0
 10 11  1  1  0  0  0
 10 18  1  0  0  0  0
 12 13  1  1  0  0  0
 12 20  1  0  0  0  0
 14 15  1  6  0  0  0
 14 22  1  0  0  0  0
 16 17  1  6  0  0  0
 16 24  1  0  0  0  0
 18 19  1  1  0  0  0
 18 25  1  0  0  0  0
 20 21  1  6  0  0  0
 20 27  1  0  0  0  0
 22 23  1  1  0  0  0
 22 29  1  0  0  0  0
 24  2  1  6  0  0  0
 24 31  1  0  0  0  0
 25 26  1  0  0  0  0
 25 33  1  6  0  0  0
 27 28  1  1  0  0  0
 27 35  1  0  0  0  0
 29 30  1  0  0  0  0
 29 37  1  6  0  0  0
 31 32  1  6  0  0  0
 31 39  1  0  0  0  0
 33 34  1  0  0  0  0
 35 36  1  0  0  0  0
 35 41  1  6  0  0  0
 37 38  1  0  0  0  0
 39 40  1  1  0  0  0
 41 42  1  0  0  0  0
M  END
>  <CHROM.1>
109.36688612,-144.57599154,177.60337342,172.62067268,178.45488933,20.84966203
-60.20082162,-46.21556702,148.21175480,-172.11725410,-171.41285052,-75.94610703
-168.85934069,-177.14064998,64.08893135,130.04551918,170.16983837,79.06091168
-66.86933604,70.98227286,170.57288296,-130.72986668,1.64656323,2.71119974
27.87499113,-0.44694940,-0.61742566,-1.89813075

>  <Name>
1fyp_lig

>  <RI>
0

>  <Rbt.Current_Directory>
/home/itssahil/PROJECTS/Mol_Feturizer/New_Systems/rnas/1fyp

>  <Rbt.Executable>
rbdock ($Id: //depot/dev/client3/rdock/2013.1/src/exe/rbdock.cxx#4 $)

>  <Rbt.Library>
libRbt.so (2013.1, Build901 2013/11/27)

>  <Rbt.Parameter_File>
/export/apps/rDock/src/rDock_2013.1_src/data/scripts/dock_solv.prm

>  <Rbt.Receptor>
prm/blind_docking_80.prm

>  <SCORE>
-43.2477

>  <SCORE.INTER>
-40.1109

>  <SCORE.INTER.CONST>
1

>  <SCORE.INTER.POLAR>
-5.11079

>  <SCORE.INTER.ROT>
14

>  <SCORE.INTER.SOLV>
13.7353

>  <SCORE.INTER.VDW>
-27.2164

>  <SCORE.INTER.norm>
-0.955021

>  <SCORE.INTRA>
-3.83635

>  <SCORE.INTRA.DIHEDRAL>
-16.2413

>  <SCORE.INTRA.DIHEDRAL.0>
48.7173

>  <SCORE.INTRA.POLAR>
1.04791

>  <SCORE.INTRA.POLAR.0>
-1.54691

>  <SCORE.INTRA.REPUL>
0

>  <SCORE.INTRA.REPUL.0>
0

>  <SCORE.INTRA.SOLV>
-0.898163

>  <SCORE.INTRA.SOLV.lig_0>
-64.052

>  <SCORE.INTRA.VDW>
1.17048

>  <SCORE.INTRA.VDW.0>
-7.0667

>  <SCORE.INTRA.norm>
-0.0913417

>  <SCORE.RESTR>
0.699557

>  <SCORE.RESTR.CAVITY>
0.699557

>  <SCORE.RESTR.norm>
0.0166561

>  <SCORE.SYSTEM>
0

>  <SCORE.SYSTEM.CONST>
0

>  <SCORE.SYSTEM.DIHEDRAL>
0

>  <SCORE.SYSTEM.SOLV>
0

>  <SCORE.SYSTEM.norm>
0

>  <SCORE.heavy>
42

>  <SCORE.norm>
-1.02971

>  <RMSD>
5.672

$$$$
1fyp_lig
 OpenBabel11021811393D
libRbt.so/2013.1/901 2013/11/27
 42 45  0  0  0  0  0  0  0  0999 V2000
    2.9210    6.5149   27.3374 C   0  0  2  0  0  0  0  0  0  0  0  0
    2.5132    5.1173   27.3899 O   0  0  0  0  0  0  0  0  0  0  0  0
    2.4884    2.7844   30.9673 C   0  0  2  0  0  0  0  0  0  0  0  0
    2.1869    2.1491   32.2634 N   0  0  0  0  0  0  0  0  0  0  0  0
    0.6991    1.5098   26.8377 C   0  0  1  0  0  0  0  0  0  0  0  0
   -0.9958   -1.0673   24.0606 C   0  0  1  0  0  0  0  0  0  0  0  0
    3.0021    7.0325   25.8651 C   0  0  2  0  0  0  0  0  0  0  0  0
    1.7623    6.7268   25.1201 N   0  0  0  0  0  0  0  0  0  0  0  0
    2.4792    4.3172   31.1330 C   0  0  0  0  0  0  0  0  0  0  0  0
   -0.1967    1.6604   25.6054 C   0  0  2  0  0  0  0  0  0  0  0  0
   -1.4913    1.1280   25.8886 O   0  0  0  0  0  0  0  0  0  0  0  0
   -1.9939   -1.6806   25.0895 C   0  0  2  0  0  0  0  0  0  0  0  0
   -1.3417   -2.6343   26.0198 N   0  0  0  0  0  0  0  0  0  0  0  0
    4.2388    6.4271   25.1301 C   0  0  1  0  0  0  0  0  0  0  0  0
    4.3903    7.0276   23.8463 O   0  0  0  0  0  0  0  0  0  0  0  0
    2.8173    5.0536   29.8079 C   0  0  2  0  0  0  0  0  0  0  0  0
    2.7021    6.5057   30.0564 N   0  0  0  0  0  0  0  0  0  0  0  0
    0.5429    0.8044   24.5735 C   0  0  2  0  0  0  0  0  0  0  0  0
    0.2177   -0.6070   24.7103 O   0  0  0  0  0  0  0  0  0  0  0  0
   -3.2077   -2.3374   24.3627 C   0  0  1  0  0  0  0  0  0  0  0  0
   -4.0473   -1.3020   23.8561 O   0  0  0  0  0  0  0  0  0  0  0  0
    5.5472    6.6412   25.9316 C   0  0  2  0  0  0  0  0  0  0  0  0
    6.6181    5.9879   25.2569 O   0  0  0  0  0  0  0  0  0  0  0  0
    1.9066    4.6023   28.6099 C   0  0  2  0  0  0  0  0  0  0  0  0
    2.0121    1.0577   24.9390 C   0  0  2  0  0  0  0  0  0  0  0  0
    2.0343    1.2724   26.3635 O   0  0  0  0  0  0  0  0  0  0  0  0
   -2.8116   -3.2681   23.1766 C   0  0  2  0  0  0  0  0  0  0  0  0
   -2.2592   -4.4729   23.7096 O   0  0  0  0  0  0  0  0  0  0  0  0
    5.3922    6.0883   27.3767 C   0  0  2  0  0  0  0  0  0  0  0  0
    4.2190    6.6948   27.9976 O   0  0  0  0  0  0  0  0  0  0  0  0
    1.7670    3.0406   28.5022 C   0  0  2  0  0  0  0  0  0  0  0  0
    0.6648    2.7467   27.6048 O   0  0  0  0  0  0  0  0  0  0  0  0
    2.6137    2.2731   24.2113 C   0  0  0  0  0  0  0  0  0  0  0  0
    1.9007    3.4556   24.5289 O   0  0  0  0  0  0  0  0  0  0  0  0
   -1.7758   -2.5668   22.2441 C   0  0  1  0  0  0  0  0  0  0  0  0
   -0.6581   -2.0676   23.0404 O   0  0  0  0  0  0  0  0  0  0  0  0
    6.5868    6.3765   28.3132 C   0  0  0  0  0  0  0  0  0  0  0  0
    6.7152    5.3742   29.3074 O   0  0  0  0  0  0  0  0  0  0  0  0
    1.4771    2.3593   29.8756 C   0  0  1  0  0  0  0  0  0  0  0  0
    1.5372    0.9437   29.7076 O   0  0  0  0  0  0  0  0  0  0  0  0
   -1.2296   -3.5095   21.1412 C   0  0  0  0  0  0  0  0  0  0  0  0
    0.1378   -3.9793   21.4284 N   0  0  0  0  0  0  0  0  0  0  0  0
  1  2  1  6  0  0  0
  1  7  1  0  0  0  0
  1 30  1  0  0  0  0
  3  4  1  1  0  0  0
  3  9  1  0  0  0  0
  3 39  1  0  0  0  0
  5 10  1  0  0  0  0
  5 26  1  0  0  0  0
  5 32  1  6  0  0  0
  6 12  1  0  0  0  0
  6 36  1  0  0  0  0
  6 19  1  1  0  0  0
  7  8  1  6  0  0  0
  7 14  1  0  0  0  0
  9 16  1  0  0  0  0
 10 11  1  1  0  0  0
 10 18  1  0  0  0  0
 12 13  1  6  0  0  0
 12 20  1  0  0  0  0
 14 15  1  6  0  0  0
 14 22  1  0  0  0  0
 16 17  1  1  0  0  0
 16 24  1  0  0  0  0
 18 19  1  1  0  0  0
 18 25  1  0  0  0  0
 20 21  1  6  0  0  0
 20 27  1  0  0  0  0
 22 23  1  6  0  0  0
 22 29  1  0  0  0  0
 24  2  1  6  0  0  0
 24 31  1  0  0  0  0
 25 26  1  0  0  0  0
 25 33  1  6  0  0  0
 27 28  1  1  0  0  0
 27 35  1  0  0  0  0
 29 30  1  0  0  0  0
 29 37  1  1  0  0  0
 31 32  1  6  0  0  0
 31 39  1  0  0  0  0
 33 34  1  0  0  0  0
 35 36  1  0  0  0  0
 35 41  1  6  0  0  0
 37 38  1  0  0  0  0
 39 40  1  6  0  0  0
 41 42  1  0  0  0  0
M  END
>  <CHROM.1>
-157.22395154,-48.42720457,56.59859451,-66.56141825,178.47304229,-76.66038812
-68.36508464,29.52990056,83.56797660,-120.52552386,-179.37373257,42.42622879
59.96357301,-175.25734768,-151.29268961,150.96123050,-157.36700423,178.29117649
-104.17151559,85.65836163,-53.87744928,-159.56434809,1.48757791,2.22544257
26.24853115,-0.48929502,-0.92572361,-1.67268625

>  <Name>
1fyp_lig

>  <RI>
0

>  <Rbt.Current_Directory>
/home/itssahil/PROJECTS/Mol_Feturizer/New_Systems/rnas/1fyp

>  <Rbt.Executable>
rbdock ($Id: //depot/dev/client3/rdock/2013.1/src/exe/rbdock.cxx#4 $)

>  <Rbt.Library>
libRbt.so (2013.1, Build901 2013/11/27)

>  <Rbt.Parameter_File>
/export/apps/rDock/src/rDock_2013.1_src/data/scripts/dock_solv.prm

>  <Rbt.Receptor>
prm/blind_docking_100.prm

>  <SCORE>
-33.622

>  <SCORE.INTER>
-31.3988

>  <SCORE.INTER.CONST>
1

>  <SCORE.INTER.POLAR>
-5.96711

>  <SCORE.INTER.ROT>
14

>  <SCORE.INTER.SOLV>
16.3745

>  <SCORE.INTER.VDW>
-19.4337

>  <SCORE.INTER.norm>
-0.747591

>  <SCORE.INTRA>
-2.51579

>  <SCORE.INTRA.DIHEDRAL>
-15.5279

>  <SCORE.INTRA.DIHEDRAL.0>
48.7173

>  <SCORE.INTRA.POLAR>
-0.0547305

>  <SCORE.INTRA.POLAR.0>
-1.54691

>  <SCORE.INTRA.REPUL>
0

>  <SCORE.INTRA.REPUL.0>
0

>  <SCORE.INTRA.SOLV>
0.659589

>  <SCORE.INTRA.SOLV.lig_0>
-64.052

>  <SCORE.INTRA.VDW>
5.10443

>  <SCORE.INTRA.VDW.0>
-7.0667

>  <SCORE.INTRA.norm>
-0.0598998

>  <SCORE.RESTR>
0.292638

>  <SCORE.RESTR.CAVITY>
0.292638

>  <SCORE.RESTR.norm>
0.00696756

>  <SCORE.SYSTEM>
0

>  <SCORE.SYSTEM.CONST>
0

>  <SCORE.SYSTEM.DIHEDRAL>
0

>  <SCORE.SYSTEM.SOLV>
0

>  <SCORE.SYSTEM.norm>
0

>  <SCORE.heavy>
42

>  <SCORE.norm>
-0.800524

>  <RMSD>
5.679

$$$$
1fyp_lig
 OpenBabel11021811393D
libRbt.so/2013.1/901 2013/11/27
 42 45  0  0  0  0  0  0  0  0999 V2000
    4.4501    3.8616   27.0989 C   0  0  2  0  0  0  0  0  0  0  0  0
    4.7861    3.9332   28.5147 O   0  0  0  0  0  0  0  0  0  0  0  0
    2.5536    3.2367   32.0884 C   0  0  2  0  0  0  0  0  0  0  0  0
    1.6465    3.3037   33.2491 N   0  0  0  0  0  0  0  0  0  0  0  0
    1.4064    1.8545   27.7461 C   0  0  1  0  0  0  0  0  0  0  0  0
   -1.4427   -0.6131   25.5389 C   0  0  1  0  0  0  0  0  0  0  0  0
    5.7326    3.7811   26.2096 C   0  0  2  0  0  0  0  0  0  0  0  0
    6.6442    2.7158   26.6784 N   0  0  0  0  0  0  0  0  0  0  0  0
    3.4292    4.5050   32.0479 C   0  0  0  0  0  0  0  0  0  0  0  0
    0.1878    2.1554   26.8696 C   0  0  2  0  0  0  0  0  0  0  0  0
   -1.0061    1.9559   27.6275 O   0  0  0  0  0  0  0  0  0  0  0  0
   -2.1462   -1.7360   26.3606 C   0  0  2  0  0  0  0  0  0  0  0  0
   -1.2115   -2.8093   26.7786 N   0  0  0  0  0  0  0  0  0  0  0  0
    6.4747    5.1539   26.1784 C   0  0  1  0  0  0  0  0  0  0  0  0
    7.5483    5.1112   25.2417 O   0  0  0  0  0  0  0  0  0  0  0  0
    4.4316    4.4895   30.8616 C   0  0  2  0  0  0  0  0  0  0  0  0
    5.1587    5.7760   30.8681 N   0  0  0  0  0  0  0  0  0  0  0  0
    0.3280    1.1036   25.7659 C   0  0  2  0  0  0  0  0  0  0  0  0
   -0.2110   -0.1841   26.1757 O   0  0  0  0  0  0  0  0  0  0  0  0
   -3.3640   -2.3173   25.5782 C   0  0  1  0  0  0  0  0  0  0  0  0
   -4.4179   -1.3569   25.6011 O   0  0  0  0  0  0  0  0  0  0  0  0
    5.5250    6.3136   25.7867 C   0  0  2  0  0  0  0  0  0  0  0  0
    6.2366    7.5448   25.8672 O   0  0  0  0  0  0  0  0  0  0  0  0
    3.7347    4.2313   29.4775 C   0  0  2  0  0  0  0  0  0  0  0  0
    1.8509    1.0205   25.5920 C   0  0  2  0  0  0  0  0  0  0  0  0
    2.4128    1.2885   26.8914 O   0  0  0  0  0  0  0  0  0  0  0  0
   -3.0560   -2.6681   24.0909 C   0  0  2  0  0  0  0  0  0  0  0  0
   -2.2532   -3.8493   24.0597 O   0  0  0  0  0  0  0  0  0  0  0  0
    4.2845    6.3360   26.7241 C   0  0  2  0  0  0  0  0  0  0  0  0
    3.6461    5.0238   26.7041 O   0  0  0  0  0  0  0  0  0  0  0  0
    2.7144    3.0365   29.5199 C   0  0  2  0  0  0  0  0  0  0  0  0
    1.8967    3.0984   28.3224 O   0  0  0  0  0  0  0  0  0  0  0  0
    2.3960    2.0261   24.5622 C   0  0  0  0  0  0  0  0  0  0  0  0
    1.9578    3.3404   24.8589 O   0  0  0  0  0  0  0  0  0  0  0  0
   -2.3112   -1.4916   23.3870 C   0  0  1  0  0  0  0  0  0  0  0  0
   -1.1525   -1.0980   24.1839 O   0  0  0  0  0  0  0  0  0  0  0  0
    3.1970    7.3628   26.3365 C   0  0  0  0  0  0  0  0  0  0  0  0
    3.6043    8.6852   26.6443 O   0  0  0  0  0  0  0  0  0  0  0  0
    1.7710    3.0856   30.7617 C   0  0  1  0  0  0  0  0  0  0  0  0
    1.0053    1.8824   30.8045 O   0  0  0  0  0  0  0  0  0  0  0  0
   -1.8407   -1.8532   21.9549 C   0  0  0  0  0  0  0  0  0  0  0  0
   -2.9677   -2.0779   21.0317 N   0  0  0  0  0  0  0  0  0  0  0  0
  1  2  1  1  0  0  0
  1  7  1  0  0  0  0
  1 30  1  0  0  0  0
  3  4  1  1  0  0  0
  3  9  1  0  0  0  0
  3 39  1  0  0  0  0
  5 10  1  0  0  0  0
  5 26  1  0  0  0  0
  5 32  1  6  0  0  0
  6 12  1  0  0  0  0
  6 36  1  0  0  0  0
  6 19  1  1  0  0  0
  7  8  1  1  0  0  0
  7 14  1  0  0  0  0
  9 16  1  0  0  0  0
 10 11  1  1  0  0  0
 10 18  1  0  0  0  0
 12 13  1  6  0  0  0
 12 20  1  0  0  0  0
 14 15  1  6  0  0  0
 14 22  1  0  0  0  0
 16 17  1  6  0  0  0
 16 24  1  0  0  0  0
 18 19  1  1  0  0  0
 18 25  1  0  0  0  0
 20 21  1  6  0  0  0
 20 27  1  0  0  0  0
 22 23  1  1  0  0  0
 22 29  1  0  0  0  0
 24  2  1  6  0  0  0
 24 31  1  0  0  0  0
 25 26  1  0  0  0  0
 25 33  1  6  0  0  0
 27 28  1  1  0  0  0
 27 35  1  0  0  0  0
 29 30  1  0  0  0  0
 29 37  1  6  0  0  0
 31 32  1  6  0  0  0
 31 39  1  0  0  0  0
 33 34  1  0  0  0  0
 35 36  1  0  0  0  0
 35 41  1  6  0  0  0
 37 38  1  0  0  0  0
 39 40  1  1  0  0  0
 41 42  1  0  0  0  0
M  END
>  <CHROM.1>
170.11399435,-170.24782965,-170.27379060,166.38936616,175.98054178,12.46156819
57.40461547,146.99679299,109.30638025,-161.63135558,-175.82927630,60.07636411
52.74109795,-35.12994822,-73.69982983,148.13316702,158.67626061,71.03338442
66.14914157,-55.77365413,-57.25164804,-168.20941485,1.75679812,2.27459084
26.90134317,-0.43368025,-0.76166420,-1.68984650

>  <Name>
1fyp_lig

>  <RI>
0

>  <Rbt.Current_Directory>
/home/itssahil/PROJECTS/Mol_Feturizer/New_Systems/rnas/1fyp

>  <Rbt.Executable>
rbdock ($Id: //depot/dev/client3/rdock/2013.1/src/exe/rbdock.cxx#4 $)

>  <Rbt.Library>
libRbt.so (2013.1, Build901 2013/11/27)

>  <Rbt.Parameter_File>
/export/apps/rDock/src/rDock_2013.1_src/data/scripts/dock_solv.prm

>  <Rbt.Receptor>
prm/blind_docking_100.prm

>  <SCORE>
-43.3039

>  <SCORE.INTER>
-31.4992

>  <SCORE.INTER.CONST>
1

>  <SCORE.INTER.POLAR>
-3.05045

>  <SCORE.INTER.ROT>
14

>  <SCORE.INTER.SOLV>
13.6629

>  <SCORE.INTER.VDW>
-28.319

>  <SCORE.INTER.norm>
-0.749982

>  <SCORE.INTRA>
-13.008

>  <SCORE.INTRA.DIHEDRAL>
-24.3471

>  <SCORE.INTRA.DIHEDRAL.0>
48.7173

>  <SCORE.INTRA.POLAR>
-0.375491

>  <SCORE.INTRA.POLAR.0>
-1.54691

>  <SCORE.INTRA.REPUL>
0.0226664

>  <SCORE.INTRA.REPUL.0>
0

>  <SCORE.INTRA.SOLV>
-1.48967

>  <SCORE.INTRA.SOLV.lig_0>
-64.052

>  <SCORE.INTRA.VDW>
1.07371

>  <SCORE.INTRA.VDW.0>
-7.0667

>  <SCORE.INTRA.norm>
-0.309715

>  <SCORE.RESTR>
1.20333

>  <SCORE.RESTR.CAVITY>
1.20333

>  <SCORE.RESTR.norm>
0.0286507

>  <SCORE.SYSTEM>
0

>  <SCORE.SYSTEM.CONST>
0

>  <SCORE.SYSTEM.DIHEDRAL>
0

>  <SCORE.SYSTEM.SOLV>
0

>  <SCORE.SYSTEM.norm>
0

>  <SCORE.heavy>
42

>  <SCORE.norm>
-1.03105

>  <RMSD>
5.679

$$$$
1fyp_lig
 OpenBabel11021811393D
libRbt.so/2013.1/901 2013/11/27
 42 45  0  0  0  0  0  0  0  0999 V2000
    3.4902    4.3001   25.6353 C   0  0  2  0  0  0  0  0  0  0  0  0
    2.9353    3.6395   26.8092 O   0  0  0  0  0  0  0  0  0  0  0  0
   -0.6182    3.8626   29.1679 C   0  0  2  0  0  0  0  0  0  0  0  0
   -1.9998    3.9539   29.6751 N   0  0  0  0  0  0  0  0  0  0  0  0
    0.0949    0.8997   26.1682 C   0  0  1  0  0  0  0  0  0  0  0  0
   -2.4218   -1.0544   23.0791 C   0  0  1  0  0  0  0  0  0  0  0  0
    4.9419    3.8066   25.3335 C   0  0  2  0  0  0  0  0  0  0  0  0
    5.0096    2.3302   25.2960 N   0  0  0  0  0  0  0  0  0  0  0  0
   -0.3505    5.0293   28.1961 C   0  0  0  0  0  0  0  0  0  0  0  0
    0.6195   -0.0163   25.0594 C   0  0  2  0  0  0  0  0  0  0  0  0
    0.9920    0.7703   23.9271 O   0  0  0  0  0  0  0  0  0  0  0  0
   -3.5468   -0.2183   22.3961 C   0  0  2  0  0  0  0  0  0  0  0  0
   -4.1882    0.7436   23.3255 N   0  0  0  0  0  0  0  0  0  0  0  0
    5.9500    4.3683   26.3844 C   0  0  1  0  0  0  0  0  0  0  0  0
    7.2855    4.0428   26.0076 O   0  0  0  0  0  0  0  0  0  0  0  0
    1.1003    5.0115   27.6420 C   0  0  2  0  0  0  0  0  0  0  0  0
    1.2246    6.1147   26.6667 N   0  0  0  0  0  0  0  0  0  0  0  0
   -0.6091   -0.8787   24.7575 C   0  0  2  0  0  0  0  0  0  0  0  0
   -1.5287   -0.2094   23.8505 O   0  0  0  0  0  0  0  0  0  0  0  0
   -4.6031   -1.1504   21.7264 C   0  0  1  0  0  0  0  0  0  0  0  0
   -4.0277   -1.7169   20.5510 O   0  0  0  0  0  0  0  0  0  0  0  0
    5.8388    5.9073   26.5243 C   0  0  2  0  0  0  0  0  0  0  0  0
    6.7137    6.3446   27.5597 O   0  0  0  0  0  0  0  0  0  0  0  0
    1.4914    3.6317   27.0006 C   0  0  2  0  0  0  0  0  0  0  0  0
   -1.2410   -1.0364   26.1476 C   0  0  2  0  0  0  0  0  0  0  0  0
   -0.9358    0.1775   26.8611 O   0  0  0  0  0  0  0  0  0  0  0  0
   -5.0938   -2.3150   22.6391 C   0  0  2  0  0  0  0  0  0  0  0  0
   -5.9548   -1.7739   23.6423 O   0  0  0  0  0  0  0  0  0  0  0  0
    4.3717    6.3167   26.8381 C   0  0  2  0  0  0  0  0  0  0  0  0
    3.4903    5.7559   25.8190 O   0  0  0  0  0  0  0  0  0  0  0  0
    1.0925    2.4050   27.8984 C   0  0  2  0  0  0  0  0  0  0  0  0
    1.1818    1.2044   27.0878 O   0  0  0  0  0  0  0  0  0  0  0  0
   -0.7028   -2.2538   26.9201 C   0  0  0  0  0  0  0  0  0  0  0  0
   -1.4718   -2.4924   28.0860 O   0  0  0  0  0  0  0  0  0  0  0  0
   -3.8854   -3.0454   23.3030 C   0  0  1  0  0  0  0  0  0  0  0  0
   -3.0203   -2.0675   23.9570 O   0  0  0  0  0  0  0  0  0  0  0  0
    4.1132    7.8398   26.8567 C   0  0  0  0  0  0  0  0  0  0  0  0
    2.8386    8.1391   27.4003 O   0  0  0  0  0  0  0  0  0  0  0  0
   -0.3585    2.5098   28.4624 C   0  0  1  0  0  0  0  0  0  0  0  0
   -0.5671    1.4489   29.3934 O   0  0  0  0  0  0  0  0  0  0  0  0
   -4.3264   -4.1064   24.3437 C   0  0  0  0  0  0  0  0  0  0  0  0
   -3.3843   -4.2137   25.4724 N   0  0  0  0  0  0  0  0  0  0  0  0
  1  2  1  1  0  0  0
  1  7  1  0  0  0  0
  1 30  1  0  0  0  0
  3  4  1  6  0  0  0
  3  9  1  0  0  0  0
  3 39  1  0  0  0  0
  5 10  1  0  0  0  0
  5 26  1  0  0  0  0
  5 32  1  1  0  0  0
  6 12  1  0  0  0  0
  6 36  1  0  0  0  0
  6 19  1  1  0  0  0
  7  8  1  1  0  0  0
  7 14  1  0  0  0  0
  9 16  1  0  0  0  0
 10 11  1  6  0  0  0
 10 18  1  0  0  0  0
 12 13  1  1  0  0  0
 12 20  1  0  0  0  0
 14 15  1  6  0  0  0
 14 22  1  0  0  0  0
 16 17  1  6  0  0  0
 16 24  1  0  0  0  0
 18 19  1  6  0  0  0
 18 25  1  0  0  0  0
 20 21  1  6  0  0  0
 20 27  1  0  0  0  0
 22 23  1  1  0  0  0
 22 29  1  0  0  0  0
 24  2  1  1  0  0  0
 24 31  1  0  0  0  0
 25 26  1  0  0  0  0
 25 33  1  1  0  0  0
 27 28  1  1  0  0  0
 27 35  1  0  0  0  0
 29 30  1  0  0  0  0
 29 37  1  6  0  0  0
 31 32  1  6  0  0  0
 31 39  1  0  0  0  0
 33 34  1  0  0  0  0
 35 36  1  0  0  0  0
 35 41  1  1  0  0  0
 37 38  1  0  0  0  0
 39 40  1  1  0  0  0
 41 42  1  0  0  0  0
M  END
>  <CHROM.1>
-160.50029260,-81.86265596,-38.70295434,34.89217673,52.94168935,60.72890725
-170.87004651,-92.59199911,156.34832342,167.57481161,49.77961317,-60.19931231
-169.85705981,62.12803195,-168.50850072,-79.12994187,157.08194162,-74.80960808
-146.06574961,-55.05126189,-179.61038590,-79.38764784,0.23846706,1.71430802
25.81576401,-0.66214753,-0.49447267,-2.20078653

>  <Name>
1fyp_lig

>  <RI>
0

>  <Rbt.Current_Directory>
/home/itssahil/PROJECTS/Mol_Feturizer/New_Systems/rnas/1fyp

>  <Rbt.Executable>
rbdock ($Id: //depot/dev/client3/rdock/2013.1/src/exe/rbdock.cxx#4 $)

>  <Rbt.Library>
libRbt.so (2013.1, Build901 2013/11/27)

>  <Rbt.Parameter_File>
/export/apps/rDock/src/rDock_2013.1_src/data/scripts/dock_solv.prm

>  <Rbt.Receptor>
prm/blind_docking_40.prm

>  <SCORE>
-66.0436

>  <SCORE.INTER>
-56.6385

>  <SCORE.INTER.CONST>
1

>  <SCORE.INTER.POLAR>
-7.43456

>  <SCORE.INTER.ROT>
14

>  <SCORE.INTER.SOLV>
24.0186

>  <SCORE.INTER.VDW>
-33.9167

>  <SCORE.INTER.norm>
-1.34854

>  <SCORE.INTRA>
-9.4051

>  <SCORE.INTRA.DIHEDRAL>
-27.457

>  <SCORE.INTRA.DIHEDRAL.0>
48.7173

>  <SCORE.INTRA.POLAR>
0.0598126

>  <SCORE.INTRA.POLAR.0>
-1.54691

>  <SCORE.INTRA.REPUL>
0.0890232

>  <SCORE.INTRA.REPUL.0>
0

>  <SCORE.INTRA.SOLV>
-1.42173

>  <SCORE.INTRA.SOLV.lig_0>
-64.052

>  <SCORE.INTRA.VDW>
4.3858

>  <SCORE.INTRA.VDW.0>
-7.0667

>  <SCORE.INTRA.norm>
-0.223931

>  <SCORE.RESTR>
0

>  <SCORE.RESTR.CAVITY>
0

>  <SCORE.RESTR.norm>
0

>  <SCORE.SYSTEM>
0

>  <SCORE.SYSTEM.CONST>
0

>  <SCORE.SYSTEM.DIHEDRAL>
0

>  <SCORE.SYSTEM.SOLV>
0

>  <SCORE.SYSTEM.norm>
0

>  <SCORE.heavy>
42

>  <SCORE.norm>
-1.57247

>  <RMSD>
5.702

$$$$
1fyp_lig
 OpenBabel11021811393D
libRbt.so/2013.1/901 2013/11/27
 42 45  0  0  0  0  0  0  0  0999 V2000
    2.5224    6.0027   26.5709 C   0  0  2  0  0  0  0  0  0  0  0  0
    1.9881    4.7560   26.0394 O   0  0  0  0  0  0  0  0  0  0  0  0
    1.5100    2.5093   29.6400 C   0  0  2  0  0  0  0  0  0  0  0  0
    1.0252    1.6873   30.7642 N   0  0  0  0  0  0  0  0  0  0  0  0
    0.6853    1.6069   25.3016 C   0  0  1  0  0  0  0  0  0  0  0  0
   -2.3495   -0.6199   23.2243 C   0  0  1  0  0  0  0  0  0  0  0  0
    3.0559    6.9289   25.4309 C   0  0  2  0  0  0  0  0  0  0  0  0
    2.0482    7.0993   24.3626 N   0  0  0  0  0  0  0  0  0  0  0  0
    0.5587    3.7044   29.4309 C   0  0  0  0  0  0  0  0  0  0  0  0
    0.3941    0.1216   25.0720 C   0  0  2  0  0  0  0  0  0  0  0  0
    0.7616   -0.2362   23.7392 O   0  0  0  0  0  0  0  0  0  0  0  0
   -3.4275   -0.0986   22.2256 C   0  0  2  0  0  0  0  0  0  0  0  0
   -4.4365    0.7720   22.8770 N   0  0  0  0  0  0  0  0  0  0  0  0
    4.3860    6.3692   24.8363 C   0  0  1  0  0  0  0  0  0  0  0  0
    4.9423    7.3014   23.9126 O   0  0  0  0  0  0  0  0  0  0  0  0
    1.0250    4.6317   28.2755 C   0  0  2  0  0  0  0  0  0  0  0  0
    0.0079    5.6905   28.1079 N   0  0  0  0  0  0  0  0  0  0  0  0
   -1.1239    0.0663   25.2641 C   0  0  2  0  0  0  0  0  0  0  0  0
   -1.8354    0.4531   24.0555 O   0  0  0  0  0  0  0  0  0  0  0  0
   -4.1039   -1.2836   21.4698 C   0  0  1  0  0  0  0  0  0  0  0  0
   -3.1775   -1.8020   20.5176 O   0  0  0  0  0  0  0  0  0  0  0  0
    5.4352    6.0833   25.9398 C   0  0  2  0  0  0  0  0  0  0  0  0
    6.5855    5.4900   25.3453 O   0  0  0  0  0  0  0  0  0  0  0  0
    1.2717    3.8553   26.9321 C   0  0  2  0  0  0  0  0  0  0  0  0
   -1.3456    1.1017   26.3756 C   0  0  2  0  0  0  0  0  0  0  0  0
   -0.3267    2.1037   26.1920 O   0  0  0  0  0  0  0  0  0  0  0  0
   -4.5576   -2.4528   22.3955 C   0  0  2  0  0  0  0  0  0  0  0  0
   -5.7124   -2.0333   23.1242 O   0  0  0  0  0  0  0  0  0  0  0  0
    4.8352    5.1459   27.0259 C   0  0  2  0  0  0  0  0  0  0  0  0
    3.5975    5.7307   27.5317 O   0  0  0  0  0  0  0  0  0  0  0  0
    2.1123    2.5421   27.1302 C   0  0  2  0  0  0  0  0  0  0  0  0
    1.9946    1.7445   25.9234 O   0  0  0  0  0  0  0  0  0  0  0  0
   -1.2472    0.4998   27.7887 C   0  0  0  0  0  0  0  0  0  0  0  0
   -2.2098   -0.5241   27.9697 O   0  0  0  0  0  0  0  0  0  0  0  0
   -3.4159   -2.8549   23.3800 C   0  0  1  0  0  0  0  0  0  0  0  0
   -2.9271   -1.6674   24.0754 O   0  0  0  0  0  0  0  0  0  0  0  0
    5.7450    4.9077   28.2517 C   0  0  0  0  0  0  0  0  0  0  0  0
    5.5222    3.6271   28.8173 O   0  0  0  0  0  0  0  0  0  0  0  0
    1.6228    1.6823   28.3367 C   0  0  1  0  0  0  0  0  0  0  0  0
    2.5429    0.6110   28.5404 O   0  0  0  0  0  0  0  0  0  0  0  0
   -3.8711   -3.9028   24.4278 C   0  0  0  0  0  0  0  0  0  0  0  0
   -3.1004   -3.8173   25.6814 N   0  0  0  0  0  0  0  0  0  0  0  0
  1  2  1  6  0  0  0
  1  7  1  0  0  0  0
  1 30  1  0  0  0  0
  3  4  1  1  0  0  0
  3  9  1  0  0  0  0
  3 39  1  0  0  0  0
  5 10  1  0  0  0  0
  5 26  1  0  0  0  0
  5 32  1  1  0  0  0
  6 12  1  0  0  0  0
  6 36  1  0  0  0  0
  6 19  1  1  0  0  0
  7  8  1  6  0  0  0
  7 14  1  0  0  0  0
  9 16  1  0  0  0  0
 10 11  1  6  0  0  0
 10 18  1  0  0  0  0
 12 13  1  1  0  0  0
 12 20  1  0  0  0  0
 14 15  1  6  0  0  0
 14 22  1  0  0  0  0
 16 17  1  6  0  0  0
 16 24  1  0  0  0  0
 18 19  1  6  0  0  0
 18 25  1  0  0  0  0
 20 21  1  6  0  0  0
 20 27  1  0  0  0  0
 22 23  1  6  0  0  0
 22 29  1  0  0  0  0
 24  2  1  6  0  0  0
 24 31  1  0  0  0  0
 25 26  1  0  0  0  0
 25 33  1  1  0  0  0
 27 28  1  1  0  0  0
 27 35  1  0  0  0  0
 29 30  1  0  0  0  0
 29 37  1  1  0  0  0
 31 32  1  6  0  0  0
 31 39  1  0  0  0  0
 33 34  1  0  0  0  0
 35 36  1  0  0  0  0
 35 41  1  1  0  0  0
 37 38  1  0  0  0  0
 39 40  1  1  0  0  0
 41 42  1  0  0  0  0
M  END
>  <CHROM.1>
-171.15369501,10.46487756,71.05223794,-35.80423527,150.37655684,61.98621829
-163.99351866,59.87983251,99.60314812,163.00129743,-99.26764043,-20.40721537
-59.48635423,-35.98059138,-149.87169703,-43.47237106,-128.52908862,-59.58059362
-152.59148929,71.54156344,77.05054738,135.41630576,0.40856467,1.97570952
25.76139842,-0.06806588,-0.80723652,-1.21963122

>  <Name>
1fyp_lig

>  <RI>
0

>  <Rbt.Current_Directory>
/home/itssahil/PROJECTS/Mol_Feturizer/New_Systems/rnas/1fyp

>  <Rbt.Executable>
rbdock ($Id: //depot/dev/client3/rdock/2013.1/src/exe/rbdock.cxx#4 $)

>  <Rbt.Library>
libRbt.so (2013.1, Build901 2013/11/27)

>  <Rbt.Parameter_File>
/export/apps/rDock/src/rDock_2013.1_src/data/scripts/dock_solv.prm

>  <Rbt.Receptor>
prm/blind_docking_60.prm

>  <SCORE>
-49.5298

>  <SCORE.INTER>
-58.5196

>  <SCORE.INTER.CONST>
1

>  <SCORE.INTER.POLAR>
-8.76591

>  <SCORE.INTER.ROT>
14

>  <SCORE.INTER.SOLV>
18.3708

>  <SCORE.INTER.VDW>
-28.8503

>  <SCORE.INTER.norm>
-1.39332

>  <SCORE.INTRA>
8.98977

>  <SCORE.INTRA.DIHEDRAL>
0.671049

>  <SCORE.INTRA.DIHEDRAL.0>
48.7173

>  <SCORE.INTRA.POLAR>
0.3588

>  <SCORE.INTRA.POLAR.0>
-1.54691

>  <SCORE.INTRA.REPUL>
0

>  <SCORE.INTRA.REPUL.0>
0

>  <SCORE.INTRA.SOLV>
-2.13749

>  <SCORE.INTRA.SOLV.lig_0>
-64.052

>  <SCORE.INTRA.VDW>
8.50307

>  <SCORE.INTRA.VDW.0>
-7.0667

>  <SCORE.INTRA.norm>
0.214042

>  <SCORE.RESTR>
0

>  <SCORE.RESTR.CAVITY>
0

>  <SCORE.RESTR.norm>
0

>  <SCORE.SYSTEM>
0

>  <SCORE.SYSTEM.CONST>
0

>  <SCORE.SYSTEM.DIHEDRAL>
0

>  <SCORE.SYSTEM.SOLV>
0

>  <SCORE.SYSTEM.norm>
0

>  <SCORE.heavy>
42

>  <SCORE.norm>
-1.17928

>  <RMSD>
5.708

$$$$
1fyp_lig
 OpenBabel11021811393D
libRbt.so/2013.1/901 2013/11/27
 42 45  0  0  0  0  0  0  0  0999 V2000
    4.3607    8.3026   24.7505 C   0  0  2  0  0  0  0  0  0  0  0  0
    5.7681    8.1100   24.4273 O   0  0  0  0  0  0  0  0  0  0  0  0
    9.5076    7.5160   26.4033 C   0  0  2  0  0  0  0  0  0  0  0  0
   10.7154    7.6047   27.2446 N   0  0  0  0  0  0  0  0  0  0  0  0
    4.8366    6.0258   27.0822 C   0  0  1  0  0  0  0  0  0  0  0  0
    1.5346    3.3127   27.2674 C   0  0  1  0  0  0  0  0  0  0  0  0
    3.4359    7.4921   23.7862 C   0  0  2  0  0  0  0  0  0  0  0  0
    3.8578    6.0777   23.7013 N   0  0  0  0  0  0  0  0  0  0  0  0
    9.3366    8.8279   25.6116 C   0  0  0  0  0  0  0  0  0  0  0  0
    4.4690    5.4440   28.4497 C   0  0  2  0  0  0  0  0  0  0  0  0
    5.2789    4.2978   28.7139 O   0  0  0  0  0  0  0  0  0  0  0  0
    0.8853    2.5515   28.4633 C   0  0  2  0  0  0  0  0  0  0  0  0
    1.7918    1.5373   29.0550 N   0  0  0  0  0  0  0  0  0  0  0  0
    3.4132    8.1367   22.3649 C   0  0  1  0  0  0  0  0  0  0  0  0
    2.4473    7.4842   21.5445 O   0  0  0  0  0  0  0  0  0  0  0  0
    8.0942    8.7945   24.6800 C   0  0  2  0  0  0  0  0  0  0  0  0
    7.9781   10.1188   24.0347 N   0  0  0  0  0  0  0  0  0  0  0  0
    3.0035    5.0531   28.2406 C   0  0  2  0  0  0  0  0  0  0  0  0
    2.8778    3.7579   27.5901 O   0  0  0  0  0  0  0  0  0  0  0  0
   -0.4778    1.9190   28.0452 C   0  0  1  0  0  0  0  0  0  0  0  0
   -1.4421    2.9621   27.9195 O   0  0  0  0  0  0  0  0  0  0  0  0
    3.0712    9.6467   22.4224 C   0  0  2  0  0  0  0  0  0  0  0  0
    3.1581   10.1934   21.1101 O   0  0  0  0  0  0  0  0  0  0  0  0
    6.7737    8.4077   25.4381 C   0  0  2  0  0  0  0  0  0  0  0  0
    2.5006    6.1717   27.3174 C   0  0  2  0  0  0  0  0  0  0  0  0
    3.6303    6.5566   26.5103 O   0  0  0  0  0  0  0  0  0  0  0  0
   -0.4292    1.1349   26.6988 C   0  0  2  0  0  0  0  0  0  0  0  0
    0.2702   -0.0922   26.9129 O   0  0  0  0  0  0  0  0  0  0  0  0
    4.0419   10.3841   23.3880 C   0  0  2  0  0  0  0  0  0  0  0  0
    4.0118    9.7266   24.6905 O   0  0  0  0  0  0  0  0  0  0  0  0
    6.9510    7.1609   26.3783 C   0  0  2  0  0  0  0  0  0  0  0  0
    5.8043    7.0980   27.2657 O   0  0  0  0  0  0  0  0  0  0  0  0
    1.9598    7.3905   28.0861 C   0  0  0  0  0  0  0  0  0  0  0  0
    0.9816    6.9972   29.0327 O   0  0  0  0  0  0  0  0  0  0  0  0
    0.2829    1.9753   25.5937 C   0  0  1  0  0  0  0  0  0  0  0  0
    1.5762    2.4397   26.0878 O   0  0  0  0  0  0  0  0  0  0  0  0
    3.7049   11.8714   23.6355 C   0  0  0  0  0  0  0  0  0  0  0  0
    3.8252   12.2051   25.0080 O   0  0  0  0  0  0  0  0  0  0  0  0
    8.2430    7.2347   27.2500 C   0  0  1  0  0  0  0  0  0  0  0  0
    8.4055    5.9943   27.9361 O   0  0  0  0  0  0  0  0  0  0  0  0
    0.4994    1.1775   24.2823 C   0  0  0  0  0  0  0  0  0  0  0  0
   -0.6947    1.1801   23.4179 N   0  0  0  0  0  0  0  0  0  0  0  0
  1  2  1  6  0  0  0
  1  7  1  0  0  0  0
  1 30  1  0  0  0  0
  3  4  1  1  0  0  0
  3  9  1  0  0  0  0
  3 39  1  0  0  0  0
  5 10  1  0  0  0  0
  5 26  1  0  0  0  0
  5 32  1  1  0  0  0
  6 12  1  0  0  0  0
  6 36  1  0  0  0  0
  6 19  1  1  0  0  0
  7  8  1  6  0  0  0
  7 14  1  0  0  0  0
  9 16  1  0  0  0  0
 10 11  1  6  0  0  0
 10 18  1  0  0  0  0
 12 13  1  6  0  0  0
 12 20  1  0  0  0  0
 14 15  1  6  0  0  0
 14 22  1  0  0  0  0
 16 17  1  1  0  0  0
 16 24  1  0  0  0  0
 18 19  1  6  0  0  0
 18 25  1  0  0  0  0
 20 21  1  6  0  0  0
 20 27  1  0  0  0  0
 22 23  1  6  0  0  0
 22 29  1  0  0  0  0
 24  2  1  6  0  0  0
 24 31  1  0  0  0  0
 25 26  1  0  0  0  0
 25 33  1  1  0  0  0
 27 28  1  1  0  0  0
 27 35  1  0  0  0  0
 29 30  1  0  0  0  0
 29 37  1  1  0  0  0
 31 32  1  1  0  0  0
 31 39  1  0  0  0  0
 33 34  1  0  0  0  0
 35 36  1  0  0  0  0
 35 41  1  6  0  0  0
 37 38  1  0  0  0  0
 39 40  1  6  0  0  0
 41 42  1  0  0  0  0
M  END
>  <CHROM.1>
-160.12680405,-152.84058051,87.28930873,-57.50815809,67.92309399,-145.10559640
-41.77793283,83.20335713,-176.53463552,-87.42469239,-153.09935510,178.01241082
-52.98446187,49.47881981,136.48318034,109.95504173,135.90815229,-170.29553674
83.20840763,20.66197808,-58.96518935,-87.00308369,3.79292383,6.17956658,25.90090153
0.79875415,-0.45161546,-0.69830347

>  <Name>
1fyp_lig

>  <RI>
0

>  <Rbt.Current_Directory>
/home/itssahil/PROJECTS/Mol_Feturizer/New_Systems/rnas/1fyp

>  <Rbt.Executable>
rbdock ($Id: //depot/dev/client3/rdock/2013.1/src/exe/rbdock.cxx#4 $)

>  <Rbt.Library>
libRbt.so (2013.1, Build901 2013/11/27)

>  <Rbt.Parameter_File>
/export/apps/rDock/src/rDock_2013.1_src/data/scripts/dock_solv.prm

>  <Rbt.Receptor>
prm/pocket_docking_5.prm

>  <SCORE>
-47.3253

>  <SCORE.INTER>
-49.1008

>  <SCORE.INTER.CONST>
1

>  <SCORE.INTER.POLAR>
-5.44458

>  <SCORE.INTER.ROT>
14

>  <SCORE.INTER.SOLV>
23.852

>  <SCORE.INTER.VDW>
-35.4693

>  <SCORE.INTER.norm>
-1.16907

>  <SCORE.INTRA>
0.981719

>  <SCORE.INTRA.DIHEDRAL>
-6.28562

>  <SCORE.INTRA.DIHEDRAL.0>
48.7173

>  <SCORE.INTRA.POLAR>
0.61722

>  <SCORE.INTRA.POLAR.0>
-1.54691

>  <SCORE.INTRA.REPUL>
0

>  <SCORE.INTRA.REPUL.0>
0

>  <SCORE.INTRA.SOLV>
-2.34629

>  <SCORE.INTRA.SOLV.lig_0>
-64.052

>  <SCORE.INTRA.VDW>
3.19913

>  <SCORE.INTRA.VDW.0>
-7.0667

>  <SCORE.INTRA.norm>
0.0233743

>  <SCORE.RESTR>
0.793814

>  <SCORE.RESTR.CAVITY>
0.793814

>  <SCORE.RESTR.norm>
0.0189003

>  <SCORE.SYSTEM>
0

>  <SCORE.SYSTEM.CONST>
0

>  <SCORE.SYSTEM.DIHEDRAL>
0

>  <SCORE.SYSTEM.SOLV>
0

>  <SCORE.SYSTEM.norm>
0

>  <SCORE.heavy>
42

>  <SCORE.norm>
-1.12679

>  <RMSD>
5.743

$$$$
1fyp_lig
 OpenBabel11021811393D
libRbt.so/2013.1/901 2013/11/27
 42 45  0  0  0  0  0  0  0  0999 V2000
    5.5574    4.1713   29.1948 C   0  0  2  0  0  0  0  0  0  0  0  0
    4.3145    4.8856   29.4545 O   0  0  0  0  0  0  0  0  0  0  0  0
    2.7041    2.4236   32.5507 C   0  0  2  0  0  0  0  0  0  0  0  0
    1.8466    1.6767   33.4894 N   0  0  0  0  0  0  0  0  0  0  0  0
    1.8128    1.8103   28.4486 C   0  0  1  0  0  0  0  0  0  0  0  0
   -2.1077    1.3316   26.7002 C   0  0  1  0  0  0  0  0  0  0  0  0
    6.7626    5.1550   29.0466 C   0  0  2  0  0  0  0  0  0  0  0  0
    6.8245    6.1020   30.1802 N   0  0  0  0  0  0  0  0  0  0  0  0
    2.3008    3.9117   32.5607 C   0  0  0  0  0  0  0  0  0  0  0  0
    1.0701    3.0457   27.9329 C   0  0  2  0  0  0  0  0  0  0  0  0
    0.3678    3.6649   29.0113 O   0  0  0  0  0  0  0  0  0  0  0  0
   -3.3426    0.8452   27.5185 C   0  0  2  0  0  0  0  0  0  0  0  0
   -2.9609    0.0469   28.7090 N   0  0  0  0  0  0  0  0  0  0  0  0
    6.6830    5.9323   27.6954 C   0  0  1  0  0  0  0  0  0  0  0  0
    7.8654    6.7044   27.5020 O   0  0  0  0  0  0  0  0  0  0  0  0
    3.1841    4.7664   31.6112 C   0  0  2  0  0  0  0  0  0  0  0  0
    2.6649    6.1497   31.6350 N   0  0  0  0  0  0  0  0  0  0  0  0
    0.1016    2.4291   26.9199 C   0  0  2  0  0  0  0  0  0  0  0  0
   -1.0935    1.9069   27.5645 O   0  0  0  0  0  0  0  0  0  0  0  0
   -4.3400    0.0645   26.6080 C   0  0  1  0  0  0  0  0  0  0  0  0
   -5.0096    0.9985   25.7638 O   0  0  0  0  0  0  0  0  0  0  0  0
    6.5169    4.9749   26.4888 C   0  0  2  0  0  0  0  0  0  0  0  0
    6.3571    5.7460   25.3019 O   0  0  0  0  0  0  0  0  0  0  0  0
    3.2341    4.1973   30.1477 C   0  0  2  0  0  0  0  0  0  0  0  0
    0.9389    1.2865   26.3285 C   0  0  2  0  0  0  0  0  0  0  0  0
    1.8037    0.8389   27.3903 O   0  0  0  0  0  0  0  0  0  0  0  0
   -3.6673   -1.0137   25.7053 C   0  0  2  0  0  0  0  0  0  0  0  0
   -3.2843   -2.1185   26.5260 O   0  0  0  0  0  0  0  0  0  0  0  0
    5.2918    4.0417   26.7042 C   0  0  2  0  0  0  0  0  0  0  0  0
    5.4342    3.3531   27.9831 O   0  0  0  0  0  0  0  0  0  0  0  0
    3.4915    2.6475   30.1027 C   0  0  2  0  0  0  0  0  0  0  0  0
    3.1859    2.1779   28.7638 O   0  0  0  0  0  0  0  0  0  0  0  0
    1.7757    1.7194   25.1115 C   0  0  0  0  0  0  0  0  0  0  0  0
    1.0317    2.5809   24.2677 O   0  0  0  0  0  0  0  0  0  0  0  0
   -2.4193   -0.4258   24.9764 C   0  0  1  0  0  0  0  0  0  0  0  0
   -1.5346    0.2064   25.9512 O   0  0  0  0  0  0  0  0  0  0  0  0
    5.1140    2.9460   25.6295 C   0  0  0  0  0  0  0  0  0  0  0  0
    4.3583    3.4222   24.5288 O   0  0  0  0  0  0  0  0  0  0  0  0
    2.6080    1.8541   31.1148 C   0  0  1  0  0  0  0  0  0  0  0  0
    3.0301    0.4912   31.1228 O   0  0  0  0  0  0  0  0  0  0  0  0
   -1.6228   -1.5005   24.1931 C   0  0  0  0  0  0  0  0  0  0  0  0
   -0.6141   -2.1752   25.0299 N   0  0  0  0  0  0  0  0  0  0  0  0
  1  2  1  6  0  0  0
  1  7  1  0  0  0  0
  1 30  1  0  0  0  0
  3  4  1  1  0  0  0
  3  9  1  0  0  0  0
  3 39  1  0  0  0  0
  5 10  1  0  0  0  0
  5 26  1  0  0  0  0
  5 32  1  6  0  0  0
  6 12  1  0  0  0  0
  6 36  1  0  0  0  0
  6 19  1  1  0  0  0
  7  8  1  1  0  0  0
  7 14  1  0  0  0  0
  9 16  1  0  0  0  0
 10 11  1  1  0  0  0
 10 18  1  0  0  0  0
 12 13  1  1  0  0  0
 12 20  1  0  0  0  0
 14 15  1  6  0  0  0
 14 22  1  0  0  0  0
 16 17  1  6  0  0  0
 16 24  1  0  0  0  0
 18 19  1  1  0  0  0
 18 25  1  0  0  0  0
 20 21  1  6  0  0  0
 20 27  1  0  0  0  0
 22 23  1  6  0  0  0
 22 29  1  0  0  0  0
 24  2  1  6  0  0  0
 24 31  1  0  0  0  0
 25 26  1  0  0  0  0
 25 33  1  6  0  0  0
 27 28  1  1  0  0  0
 27 35  1  0  0  0  0
 29 30  1  0  0  0  0
 29 37  1  6  0  0  0
 31 32  1  6  0  0  0
 31 39  1  0  0  0  0
 33 34  1  0  0  0  0
 35 36  1  0  0  0  0
 35 41  1  1  0  0  0
 37 38  1  0  0  0  0
 39 40  1  1  0  0  0
 41 42  1  0  0  0  0
M  END
>  <CHROM.1>
-154.93585309,105.78416230,155.40518771,-26.21817392,53.92865907,-54.24558560
-63.69909629,-151.26972622,178.21053626,-178.62424929,-51.03664140,169.89961893
-40.95719986,62.99726990,-87.17023324,-86.65852009,89.65232359,67.65218463
-87.46349397,-59.29222790,177.92798868,-14.11236514,1.81622360,2.45835060
27.91965846,0.33222109,0.52885308,1.45418127

>  <Name>
1fyp_lig

>  <RI>
0

>  <Rbt.Current_Directory>
/home/itssahil/PROJECTS/Mol_Feturizer/New_Systems/rnas/1fyp

>  <Rbt.Executable>
rbdock ($Id: //depot/dev/client3/rdock/2013.1/src/exe/rbdock.cxx#4 $)

>  <Rbt.Library>
libRbt.so (2013.1, Build901 2013/11/27)

>  <Rbt.Parameter_File>
/export/apps/rDock/src/rDock_2013.1_src/data/scripts/dock_solv.prm

>  <Rbt.Receptor>
prm/blind_docking_40.prm

>  <SCORE>
-49.2203

>  <SCORE.INTER>
-48.9599

>  <SCORE.INTER.CONST>
1

>  <SCORE.INTER.POLAR>
-6.93005

>  <SCORE.INTER.ROT>
14

>  <SCORE.INTER.SOLV>
18.3169

>  <SCORE.INTER.VDW>
-28.5787

>  <SCORE.INTER.norm>
-1.16571

>  <SCORE.INTRA>
-0.82615

>  <SCORE.INTRA.DIHEDRAL>
-20.0162

>  <SCORE.INTRA.DIHEDRAL.0>
48.7173

>  <SCORE.INTRA.POLAR>
1.20707

>  <SCORE.INTRA.POLAR.0>
-1.54691

>  <SCORE.INTRA.REPUL>
0

>  <SCORE.INTRA.REPUL.0>
0

>  <SCORE.INTRA.SOLV>
-0.344546

>  <SCORE.INTRA.SOLV.lig_0>
-64.052

>  <SCORE.INTRA.VDW>
5.25017

>  <SCORE.INTRA.VDW.0>
-7.0667

>  <SCORE.INTRA.norm>
-0.0196702

>  <SCORE.RESTR>
0.565735

>  <SCORE.RESTR.CAVITY>
0.565735

>  <SCORE.RESTR.norm>
0.0134699

>  <SCORE.SYSTEM>
0

>  <SCORE.SYSTEM.CONST>
0

>  <SCORE.SYSTEM.DIHEDRAL>
0

>  <SCORE.SYSTEM.SOLV>
0

>  <SCORE.SYSTEM.norm>
0

>  <SCORE.heavy>
42

>  <SCORE.norm>
-1.17191

>  <RMSD>
5.752

$$$$
1fyp_lig
 OpenBabel11021811393D
libRbt.so/2013.1/901 2013/11/27
 42 45  0  0  0  0  0  0  0  0999 V2000
   11.0625    8.8462   27.6427 C   0  0  2  0  0  0  0  0  0  0  0  0
    9.7022    8.5270   27.2301 O   0  0  0  0  0  0  0  0  0  0  0  0
    7.4160    9.4659   23.7470 C   0  0  2  0  0  0  0  0  0  0  0  0
    6.8863    9.6338   22.3811 N   0  0  0  0  0  0  0  0  0  0  0  0
    7.3772    5.7632   26.9657 C   0  0  1  0  0  0  0  0  0  0  0  0
    4.1902    5.0605   30.0079 C   0  0  1  0  0  0  0  0  0  0  0  0
   11.6733    7.7122   28.5276 C   0  0  2  0  0  0  0  0  0  0  0  0
   11.5216    6.3897   27.8845 N   0  0  0  0  0  0  0  0  0  0  0  0
    8.8501   10.0280   23.8136 C   0  0  0  0  0  0  0  0  0  0  0  0
    6.2801    6.7335   27.4112 C   0  0  2  0  0  0  0  0  0  0  0  0
    6.7515    7.5152   28.5094 O   0  0  0  0  0  0  0  0  0  0  0  0
    4.5608    4.6212   31.4574 C   0  0  2  0  0  0  0  0  0  0  0  0
    5.5930    3.5562   31.4854 N   0  0  0  0  0  0  0  0  0  0  0  0
   11.0224    7.7023   29.9462 C   0  0  1  0  0  0  0  0  0  0  0  0
   11.6967    6.7723   30.7900 O   0  0  0  0  0  0  0  0  0  0  0  0
    9.4627    9.9086   25.2359 C   0  0  2  0  0  0  0  0  0  0  0  0
   10.8556   10.3976   25.1700 N   0  0  0  0  0  0  0  0  0  0  0  0
    5.1705    5.7731   27.8481 C   0  0  2  0  0  0  0  0  0  0  0  0
    5.3772    5.2912   29.2051 O   0  0  0  0  0  0  0  0  0  0  0  0
    3.2874    4.1981   32.2525 C   0  0  1  0  0  0  0  0  0  0  0  0
    2.5455    5.3716   32.5784 O   0  0  0  0  0  0  0  0  0  0  0  0
   11.0734    9.0997   30.6134 C   0  0  2  0  0  0  0  0  0  0  0  0
   10.3841    9.0458   31.8586 O   0  0  0  0  0  0  0  0  0  0  0  0
    9.3939    8.4474   25.8089 C   0  0  2  0  0  0  0  0  0  0  0  0
    5.3219    4.6262   26.8391 C   0  0  2  0  0  0  0  0  0  0  0  0
    6.7251    4.5639   26.5182 O   0  0  0  0  0  0  0  0  0  0  0  0
    2.3469    3.2261   31.4776 C   0  0  2  0  0  0  0  0  0  0  0  0
    2.9599    1.9364   31.4377 O   0  0  0  0  0  0  0  0  0  0  0  0
   10.4354   10.1675   29.6802 C   0  0  2  0  0  0  0  0  0  0  0  0
   11.0902   10.1163   28.3769 O   0  0  0  0  0  0  0  0  0  0  0  0
    7.9828    7.7819   25.6193 C   0  0  2  0  0  0  0  0  0  0  0  0
    8.1190    6.3576   25.8629 O   0  0  0  0  0  0  0  0  0  0  0  0
    4.4951    4.8369   25.5582 C   0  0  0  0  0  0  0  0  0  0  0  0
    4.8828    3.9196   24.5502 O   0  0  0  0  0  0  0  0  0  0  0  0
    2.0870    3.7442   30.0290 C   0  0  1  0  0  0  0  0  0  0  0  0
    3.3607    4.0284   29.3738 O   0  0  0  0  0  0  0  0  0  0  0  0
   10.5599   11.6239   30.1807 C   0  0  0  0  0  0  0  0  0  0  0  0
   11.9081   11.9574   30.4646 O   0  0  0  0  0  0  0  0  0  0  0  0
    7.4036    7.9814   24.1843 C   0  0  1  0  0  0  0  0  0  0  0  0
    6.0616    7.4974   24.1594 O   0  0  0  0  0  0  0  0  0  0  0  0
    1.2892    2.7330   29.1663 C   0  0  0  0  0  0  0  0  0  0  0  0
    1.1425    3.1777   27.7686 N   0  0  0  0  0  0  0  0  0  0  0  0
  1  2  1  1  0  0  0
  1  7  1  0  0  0  0
  1 30  1  0  0  0  0
  3  4  1  6  0  0  0
  3  9  1  0  0  0  0
  3 39  1  0  0  0  0
  5 10  1  0  0  0  0
  5 26  1  0  0  0  0
  5 32  1  6  0  0  0
  6 12  1  0  0  0  0
  6 36  1  0  0  0  0
  6 19  1  6  0  0  0
  7  8  1  6  0  0  0
  7 14  1  0  0  0  0
  9 16  1  0  0  0  0
 10 11  1  1  0  0  0
 10 18  1  0  0  0  0
 12 13  1  6  0  0  0
 12 20  1  0  0  0  0
 14 15  1  1  0  0  0
 14 22  1  0  0  0  0
 16 17  1  6  0  0  0
 16 24  1  0  0  0  0
 18 19  1  1  0  0  0
 18 25  1  0  0  0  0
 20 21  1  6  0  0  0
 20 27  1  0  0  0  0
 22 23  1  1  0  0  0
 22 29  1  0  0  0  0
 24  2  1  1  0  0  0
 24 31  1  0  0  0  0
 25 26  1  0  0  0  0
 25 33  1  6  0  0  0
 27 28  1  6  0  0  0
 27 35  1  0  0  0  0
 29 30  1  0  0  0  0
 29 37  1  1  0  0  0
 31 32  1  6  0  0  0
 31 39  1  0  0  0  0
 33 34  1  0  0  0  0
 35 36  1  0  0  0  0
 35 41  1  6  0  0  0
 37 38  1  0  0  0  0
 39 40  1  1  0  0  0
 41 42  1  0  0  0  0
M  END
>  <CHROM.1>
-120.89923506,-70.03140479,170.42611858,72.61340034,176.44288360,76.40770489
173.79711132,166.70767134,145.47451235,-176.95507802,-175.26171440,-179.20688272
167.30019291,-42.36054996,53.63213800,117.86339761,15.94286716,-81.75405185
-175.27508038,57.76182469,161.29716931,-168.43341259,7.15686886,6.79731688
28.10602068,-0.35061964,0.62020208,1.76528785

>  <Name>
1fyp_lig

>  <RI>
0

>  <Rbt.Current_Directory>
/home/itssahil/PROJECTS/Mol_Feturizer/New_Systems/rnas/1fyp

>  <Rbt.Executable>
rbdock ($Id: //depot/dev/client3/rdock/2013.1/src/exe/rbdock.cxx#4 $)

>  <Rbt.Library>
libRbt.so (2013.1, Build901 2013/11/27)

>  <Rbt.Parameter_File>
/export/apps/rDock/src/rDock_2013.1_src/data/scripts/dock_solv.prm

>  <Rbt.Receptor>
prm/pocket_docking_5.prm

>  <SCORE>
-45.0613

>  <SCORE.INTER>
-41.2838

>  <SCORE.INTER.CONST>
1

>  <SCORE.INTER.POLAR>
-5.71103

>  <SCORE.INTER.ROT>
14

>  <SCORE.INTER.SOLV>
13.661

>  <SCORE.INTER.VDW>
-25.9728

>  <SCORE.INTER.norm>
-0.982947

>  <SCORE.INTRA>
-3.77747

>  <SCORE.INTRA.DIHEDRAL>
-15.339

>  <SCORE.INTRA.DIHEDRAL.0>
48.7173

>  <SCORE.INTRA.POLAR>
0.198141

>  <SCORE.INTRA.POLAR.0>
-1.54691

>  <SCORE.INTRA.REPUL>
0.0489997

>  <SCORE.INTRA.REPUL.0>
0

>  <SCORE.INTRA.SOLV>
-1.68339

>  <SCORE.INTRA.SOLV.lig_0>
-64.052

>  <SCORE.INTRA.VDW>
3.81505

>  <SCORE.INTRA.VDW.0>
-7.0667

>  <SCORE.INTRA.norm>
-0.0899399

>  <SCORE.RESTR>
0

>  <SCORE.RESTR.CAVITY>
0

>  <SCORE.RESTR.norm>
0

>  <SCORE.SYSTEM>
0

>  <SCORE.SYSTEM.CONST>
0

>  <SCORE.SYSTEM.DIHEDRAL>
0

>  <SCORE.SYSTEM.SOLV>
0

>  <SCORE.SYSTEM.norm>
0

>  <SCORE.heavy>
42

>  <SCORE.norm>
-1.07289

>  <RMSD>
5.815

$$$$
1fyp_lig
 OpenBabel11021811393D
libRbt.so/2013.1/901 2013/11/27
 42 45  0  0  0  0  0  0  0  0999 V2000
    4.2988    3.8899   26.4281 C   0  0  2  0  0  0  0  0  0  0  0  0
    4.2578    4.3862   27.7972 O   0  0  0  0  0  0  0  0  0  0  0  0
    2.6697    2.9040   31.4744 C   0  0  2  0  0  0  0  0  0  0  0  0
    1.8194    2.4706   32.5985 N   0  0  0  0  0  0  0  0  0  0  0  0
    1.6223    1.2196   27.7360 C   0  0  1  0  0  0  0  0  0  0  0  0
   -2.6766    1.0635   26.6650 C   0  0  1  0  0  0  0  0  0  0  0  0
    5.7476    3.9393   25.8445 C   0  0  2  0  0  0  0  0  0  0  0  0
    6.7162    3.2979   26.7588 N   0  0  0  0  0  0  0  0  0  0  0  0
    2.3216    4.3583   31.0991 C   0  0  0  0  0  0  0  0  0  0  0  0
    0.7456    2.4474   27.4759 C   0  0  2  0  0  0  0  0  0  0  0  0
    0.1912    2.9076   28.7090 O   0  0  0  0  0  0  0  0  0  0  0  0
   -3.5854    0.0465   27.4207 C   0  0  2  0  0  0  0  0  0  0  0  0
   -2.8751   -1.2099   27.7632 N   0  0  0  0  0  0  0  0  0  0  0  0
    6.1769    5.4099   25.5458 C   0  0  1  0  0  0  0  0  0  0  0  0
    7.4314    5.4281   24.8694 O   0  0  0  0  0  0  0  0  0  0  0  0
    3.2012    4.8915   29.9353 C   0  0  2  0  0  0  0  0  0  0  0  0
    2.7340    6.2537   29.6038 N   0  0  0  0  0  0  0  0  0  0  0  0
   -0.3376    1.8710   26.5601 C   0  0  2  0  0  0  0  0  0  0  0  0
   -1.3882    1.2081   27.3174 O   0  0  0  0  0  0  0  0  0  0  0  0
   -4.8887   -0.2407   26.6133 C   0  0  1  0  0  0  0  0  0  0  0  0
   -5.7394    0.9002   26.7047 O   0  0  0  0  0  0  0  0  0  0  0  0
    5.1340    6.1479   24.6695 C   0  0  2  0  0  0  0  0  0  0  0  0
    5.5362    7.5052   24.5117 O   0  0  0  0  0  0  0  0  0  0  0  0
    3.1784    3.9544   28.6746 C   0  0  2  0  0  0  0  0  0  0  0  0
    0.4532    0.8517   25.7282 C   0  0  2  0  0  0  0  0  0  0  0  0
    1.4962    0.3599   26.5919 O   0  0  0  0  0  0  0  0  0  0  0  0
   -4.6476   -0.5497   25.1046 C   0  0  2  0  0  0  0  0  0  0  0  0
   -4.0857   -1.8583   24.9932 O   0  0  0  0  0  0  0  0  0  0  0  0
    3.7251    6.0670   25.3228 C   0  0  2  0  0  0  0  0  0  0  0  0
    3.3942    4.6680   25.5741 O   0  0  0  0  0  0  0  0  0  0  0  0
    3.3772    2.4378   29.0362 C   0  0  2  0  0  0  0  0  0  0  0  0
    3.0073    1.6453   27.8779 O   0  0  0  0  0  0  0  0  0  0  0  0
    1.0648    1.4589   24.4530 C   0  0  0  0  0  0  0  0  0  0  0  0
    1.2168    2.8615   24.5842 O   0  0  0  0  0  0  0  0  0  0  0  0
   -3.6885    0.5044   24.4696 C   0  0  1  0  0  0  0  0  0  0  0  0
   -2.4791    0.6183   25.2801 O   0  0  0  0  0  0  0  0  0  0  0  0
    2.5779    6.6455   24.4646 C   0  0  0  0  0  0  0  0  0  0  0  0
    2.7447    8.0371   24.2527 O   0  0  0  0  0  0  0  0  0  0  0  0
    2.5019    1.9802   30.2440 C   0  0  1  0  0  0  0  0  0  0  0  0
    2.8740    0.6504   30.6030 O   0  0  0  0  0  0  0  0  0  0  0  0
   -3.2902    0.1502   23.0139 C   0  0  0  0  0  0  0  0  0  0  0  0
   -4.4619   -0.0416   22.1402 N   0  0  0  0  0  0  0  0  0  0  0  0
  1  2  1  1  0  0  0
  1  7  1  0  0  0  0
  1 30  1  0  0  0  0
  3  4  1  1  0  0  0
  3  9  1  0  0  0  0
  3 39  1  0  0  0  0
  5 10  1  0  0  0  0
  5 26  1  0  0  0  0
  5 32  1  6  0  0  0
  6 12  1  0  0  0  0
  6 36  1  0  0  0  0
  6 19  1  1  0  0  0
  7  8  1  1  0  0  0
  7 14  1  0  0  0  0
  9 16  1  0  0  0  0
 10 11  1  1  0  0  0
 10 18  1  0  0  0  0
 12 13  1  6  0  0  0
 12 20  1  0  0  0  0
 14 15  1  6  0  0  0
 14 22  1  0  0  0  0
 16 17  1  6  0  0  0
 16 24  1  0  0  0  0
 18 19  1  1  0  0  0
 18 25  1  0  0  0  0
 20 21  1  6  0  0  0
 20 27  1  0  0  0  0
 22 23  1  1  0  0  0
 22 29  1  0  0  0  0
 24  2  1  6  0  0  0
 24 31  1  0  0  0  0
 25 26  1  0  0  0  0
 25 33  1  6  0  0  0
 27 28  1  1  0  0  0
 27 35  1  0  0  0  0
 29 30  1  0  0  0  0
 29 37  1  6  0  0  0
 31 32  1  6  0  0  0
 31 39  1  0  0  0  0
 33 34  1  0  0  0  0
 35 36  1  0  0  0  0
 35 41  1  6  0  0  0
 37 38  1  0  0  0  0
 39 40  1  1  0  0  0
 41 42  1  0  0  0  0
M  END
>  <CHROM.1>
-156.08533149,-166.91464736,-49.55012476,158.79465730,-179.12237296,91.56575966
-60.16526803,38.50873738,157.75920967,165.89845916,162.77385001,56.21169971
22.90341713,-51.68670091,-63.82114895,-89.31958406,67.80180573,75.02646198
55.52075148,-63.75417073,-57.34657112,173.54588232,1.15082773,2.67024304
26.80538012,0.03806120,-0.56859086,-1.28590790

>  <Name>
1fyp_lig

>  <RI>
0

>  <Rbt.Current_Directory>
/home/itssahil/PROJECTS/Mol_Feturizer/New_Systems/rnas/1fyp

>  <Rbt.Executable>
rbdock ($Id: //depot/dev/client3/rdock/2013.1/src/exe/rbdock.cxx#4 $)

>  <Rbt.Library>
libRbt.so (2013.1, Build901 2013/11/27)

>  <Rbt.Parameter_File>
/export/apps/rDock/src/rDock_2013.1_src/data/scripts/dock_solv.prm

>  <Rbt.Receptor>
prm/blind_docking_60.prm

>  <SCORE>
-49.6144

>  <SCORE.INTER>
-41.0579

>  <SCORE.INTER.CONST>
1

>  <SCORE.INTER.POLAR>
-4.37158

>  <SCORE.INTER.ROT>
14

>  <SCORE.INTER.SOLV>
20.3363

>  <SCORE.INTER.VDW>
-32.5121

>  <SCORE.INTER.norm>
-0.977569

>  <SCORE.INTRA>
-9.02408

>  <SCORE.INTRA.DIHEDRAL>
-28.4928

>  <SCORE.INTRA.DIHEDRAL.0>
48.7173

>  <SCORE.INTRA.POLAR>
0.535137

>  <SCORE.INTRA.POLAR.0>
-1.54691

>  <SCORE.INTRA.REPUL>
0.0286366

>  <SCORE.INTRA.REPUL.0>
0

>  <SCORE.INTRA.SOLV>
-0.546661

>  <SCORE.INTRA.SOLV.lig_0>
-64.052

>  <SCORE.INTRA.VDW>
3.53299

>  <SCORE.INTRA.VDW.0>
-7.0667

>  <SCORE.INTRA.norm>
-0.214859

>  <SCORE.RESTR>
0.46757

>  <SCORE.RESTR.CAVITY>
0.46757

>  <SCORE.RESTR.norm>
0.0111326

>  <SCORE.SYSTEM>
0

>  <SCORE.SYSTEM.CONST>
0

>  <SCORE.SYSTEM.DIHEDRAL>
0

>  <SCORE.SYSTEM.SOLV>
0

>  <SCORE.SYSTEM.norm>
0

>  <SCORE.heavy>
42

>  <SCORE.norm>
-1.1813

>  <RMSD>
5.834

$$$$
1fyp_lig
 OpenBabel11021811393D
libRbt.so/2013.1/901 2013/11/27
 42 45  0  0  0  0  0  0  0  0999 V2000
    2.5923    3.4724   29.5258 C   0  0  2  0  0  0  0  0  0  0  0  0
    3.5581    2.3905   29.3876 O   0  0  0  0  0  0  0  0  0  0  0  0
    5.5932    4.1587   26.0751 C   0  0  2  0  0  0  0  0  0  0  0  0
    6.4465    4.4603   24.9109 N   0  0  0  0  0  0  0  0  0  0  0  0
    1.4359    1.9755   25.9688 C   0  0  1  0  0  0  0  0  0  0  0  0
   -1.8846    0.8050   23.7382 C   0  0  1  0  0  0  0  0  0  0  0  0
    3.1338    4.6081   30.4527 C   0  0  2  0  0  0  0  0  0  0  0  0
    4.4849    5.0412   30.0370 N   0  0  0  0  0  0  0  0  0  0  0  0
    6.4672    3.6228   27.2266 C   0  0  0  0  0  0  0  0  0  0  0  0
    0.6845    0.6639   25.7262 C   0  0  2  0  0  0  0  0  0  0  0  0
    0.9116    0.2246   24.3865 O   0  0  0  0  0  0  0  0  0  0  0  0
   -3.4411    0.8904   23.7034 C   0  0  2  0  0  0  0  0  0  0  0  0
   -4.0470    0.8329   25.0561 N   0  0  0  0  0  0  0  0  0  0  0  0
    3.1474    4.1494   31.9445 C   0  0  1  0  0  0  0  0  0  0  0  0
    3.4908    5.2427   32.7920 O   0  0  0  0  0  0  0  0  0  0  0  0
    5.6345    3.3086   28.4994 C   0  0  2  0  0  0  0  0  0  0  0  0
    6.5489    2.7296   29.5056 N   0  0  0  0  0  0  0  0  0  0  0  0
   -0.7707    1.0937   25.9313 C   0  0  2  0  0  0  0  0  0  0  0  0
   -1.3276    1.7029   24.7333 O   0  0  0  0  0  0  0  0  0  0  0  0
   -4.0369   -0.2063   22.7678 C   0  0  1  0  0  0  0  0  0  0  0  0
   -3.7819    0.1645   21.4147 O   0  0  0  0  0  0  0  0  0  0  0  0
    1.7709    3.5946   32.3893 C   0  0  2  0  0  0  0  0  0  0  0  0
    1.8746    3.1090   33.7243 O   0  0  0  0  0  0  0  0  0  0  0  0
    4.4187    2.3557   28.2131 C   0  0  2  0  0  0  0  0  0  0  0  0
   -0.6445    2.1312   27.0556 C   0  0  2  0  0  0  0  0  0  0  0  0
    0.6401    2.7578   26.8735 O   0  0  0  0  0  0  0  0  0  0  0  0
   -3.4490   -1.6309   23.0022 C   0  0  2  0  0  0  0  0  0  0  0  0
   -3.9774   -2.1446   24.2260 O   0  0  0  0  0  0  0  0  0  0  0  0
    1.3090    2.4620   31.4291 C   0  0  2  0  0  0  0  0  0  0  0  0
    1.3239    2.9617   30.0580 O   0  0  0  0  0  0  0  0  0  0  0  0
    3.5901    2.7846   26.9483 C   0  0  2  0  0  0  0  0  0  0  0  0
    2.7238    1.6799   26.5803 O   0  0  0  0  0  0  0  0  0  0  0  0
   -0.7362    1.5113   28.4613 C   0  0  0  0  0  0  0  0  0  0  0  0
   -2.0577    1.0820   28.7388 O   0  0  0  0  0  0  0  0  0  0  0  0
   -1.8908   -1.5835   23.0659 C   0  0  1  0  0  0  0  0  0  0  0  0
   -1.4700   -0.5724   24.0319 O   0  0  0  0  0  0  0  0  0  0  0  0
   -0.1184    1.9316   31.6909 C   0  0  0  0  0  0  0  0  0  0  0  0
   -1.0931    2.9286   31.4355 O   0  0  0  0  0  0  0  0  0  0  0  0
    4.4888    3.1337   25.7215 C   0  0  1  0  0  0  0  0  0  0  0  0
    3.6656    3.6708   24.6873 O   0  0  0  0  0  0  0  0  0  0  0  0
   -1.2665   -2.9474   23.4572 C   0  0  0  0  0  0  0  0  0  0  0  0
   -0.4007   -2.8501   24.6463 N   0  0  0  0  0  0  0  0  0  0  0  0
  1  2  1  1  0  0  0
  1  7  1  0  0  0  0
  1 30  1  0  0  0  0
  3  4  1  6  0  0  0
  3  9  1  0  0  0  0
  3 39  1  0  0  0  0
  5 10  1  0  0  0  0
  5 26  1  0  0  0  0
  5 32  1  1  0  0  0
  6 12  1  0  0  0  0
  6 36  1  0  0  0  0
  6 19  1  1  0  0  0
  7  8  1  6  0  0  0
  7 14  1  0  0  0  0
  9 16  1  0  0  0  0
 10 11  1  6  0  0  0
 10 18  1  0  0  0  0
 12 13  1  1  0  0  0
 12 20  1  0  0  0  0
 14 15  1  1  0  0  0
 14 22  1  0  0  0  0
 16 17  1  1  0  0  0
 16 24  1  0  0  0  0
 18 19  1  6  0  0  0
 18 25  1  0  0  0  0
 20 21  1  6  0  0  0
 20 27  1  0  0  0  0
 22 23  1  1  0  0  0
 22 29  1  0  0  0  0
 24  2  1  1  0  0  0
 24 31  1  0  0  0  0
 25 26  1  0  0  0  0
 25 33  1  1  0  0  0
 27 28  1  1  0  0  0
 27 35  1  0  0  0  0
 29 30  1  0  0  0  0
 29 37  1  1  0  0  0
 31 32  1  6  0  0  0
 31 39  1  0  0  0  0
 33 34  1  0  0  0  0
 35 36  1  0  0  0  0
 35 41  1  1  0  0  0
 37 38  1  0  0  0  0
 39 40  1  6  0  0  0
 41 42  1  0  0  0  0
M  END
>  <CHROM.1>
-97.98381676,83.22785138,176.99374920,147.44280957,59.74965450,68.94603461
60.61501637,175.43767057,85.24852462,108.13888954,54.47356240,66.58108398
-71.14892139,173.57270830,65.60394672,148.43450284,-177.66921904,178.14502125
-123.78749223,51.41254898,-178.39766136,137.47898460,1.01272939,1.84702073
27.16959774,0.82507937,0.36864035,1.29597117

>  <Name>
1fyp_lig

>  <RI>
0

>  <Rbt.Current_Directory>
/home/itssahil/PROJECTS/Mol_Feturizer/New_Systems/rnas/1fyp

>  <Rbt.Executable>
rbdock ($Id: //depot/dev/client3/rdock/2013.1/src/exe/rbdock.cxx#4 $)

>  <Rbt.Library>
libRbt.so (2013.1, Build901 2013/11/27)

>  <Rbt.Parameter_File>
/export/apps/rDock/src/rDock_2013.1_src/data/scripts/dock_solv.prm

>  <Rbt.Receptor>
prm/pocket_docking_6.prm

>  <SCORE>
-49.2172

>  <SCORE.INTER>
-50.5885

>  <SCORE.INTER.CONST>
1

>  <SCORE.INTER.POLAR>
-6.24925

>  <SCORE.INTER.ROT>
14

>  <SCORE.INTER.SOLV>
17.573

>  <SCORE.INTER.VDW>
-31.6858

>  <SCORE.INTER.norm>
-1.20449

>  <SCORE.INTRA>
1.30419

>  <SCORE.INTRA.DIHEDRAL>
-17.4478

>  <SCORE.INTRA.DIHEDRAL.0>
48.7173

>  <SCORE.INTRA.POLAR>
1.19098

>  <SCORE.INTRA.POLAR.0>
-1.54691

>  <SCORE.INTRA.REPUL>
0.159155

>  <SCORE.INTRA.REPUL.0>
0

>  <SCORE.INTRA.SOLV>
1.40751

>  <SCORE.INTRA.SOLV.lig_0>
-64.052

>  <SCORE.INTRA.VDW>
4.47923

>  <SCORE.INTRA.VDW.0>
-7.0667

>  <SCORE.INTRA.norm>
0.0310522

>  <SCORE.RESTR>
0.0671283

>  <SCORE.RESTR.CAVITY>
0.0671283

>  <SCORE.RESTR.norm>
0.00159829

>  <SCORE.SYSTEM>
0

>  <SCORE.SYSTEM.CONST>
0

>  <SCORE.SYSTEM.DIHEDRAL>
0

>  <SCORE.SYSTEM.SOLV>
0

>  <SCORE.SYSTEM.norm>
0

>  <SCORE.heavy>
42

>  <SCORE.norm>
-1.17184

>  <RMSD>
5.871

$$$$
1fyp_lig
 OpenBabel11021811393D
libRbt.so/2013.1/901 2013/11/27
 42 45  0  0  0  0  0  0  0  0999 V2000
    0.4516    2.6574   28.6208 C   0  0  2  0  0  0  0  0  0  0  0  0
    0.5158    4.0860   28.3426 O   0  0  0  0  0  0  0  0  0  0  0  0
    2.7304    6.6901   25.7823 C   0  0  2  0  0  0  0  0  0  0  0  0
    3.7624    7.4803   25.0858 N   0  0  0  0  0  0  0  0  0  0  0  0
    1.3725    2.0913   25.2192 C   0  0  1  0  0  0  0  0  0  0  0  0
   -1.3046   -1.0636   23.6274 C   0  0  1  0  0  0  0  0  0  0  0  0
   -0.0295    2.3799   30.0815 C   0  0  2  0  0  0  0  0  0  0  0  0
   -1.2718    3.1209   30.3869 N   0  0  0  0  0  0  0  0  0  0  0  0
    2.8057    6.9695   27.2966 C   0  0  0  0  0  0  0  0  0  0  0  0
    1.1678    0.7175   25.8629 C   0  0  2  0  0  0  0  0  0  0  0  0
    2.1566   -0.1901   25.3752 O   0  0  0  0  0  0  0  0  0  0  0  0
   -1.6599   -2.0989   24.7379 C   0  0  2  0  0  0  0  0  0  0  0  0
   -0.4657   -2.8020   25.2668 N   0  0  0  0  0  0  0  0  0  0  0  0
    1.0848    2.7428   31.1124 C   0  0  1  0  0  0  0  0  0  0  0  0
    0.6940    2.3375   32.4219 O   0  0  0  0  0  0  0  0  0  0  0  0
    1.7251    6.1880   28.0929 C   0  0  2  0  0  0  0  0  0  0  0  0
    1.9366    6.4622   29.5295 N   0  0  0  0  0  0  0  0  0  0  0  0
   -0.2287    0.3408   25.3607 C   0  0  2  0  0  0  0  0  0  0  0  0
   -0.1858   -0.2274   24.0221 O   0  0  0  0  0  0  0  0  0  0  0  0
   -2.7353   -3.1092   24.2321 C   0  0  1  0  0  0  0  0  0  0  0  0
   -3.9925   -2.4391   24.1681 O   0  0  0  0  0  0  0  0  0  0  0  0
    2.4328    2.0615   30.7676 C   0  0  2  0  0  0  0  0  0  0  0  0
    3.4264    2.5046   31.6870 O   0  0  0  0  0  0  0  0  0  0  0  0
    1.7436    4.6457   27.7942 C   0  0  2  0  0  0  0  0  0  0  0  0
   -0.9434    1.6993   25.3477 C   0  0  2  0  0  0  0  0  0  0  0  0
    0.0718    2.6777   25.0511 O   0  0  0  0  0  0  0  0  0  0  0  0
   -2.4316   -3.7115   22.8267 C   0  0  2  0  0  0  0  0  0  0  0  0
   -1.3626   -4.6502   22.9563 O   0  0  0  0  0  0  0  0  0  0  0  0
    2.8497    2.3968   29.3074 C   0  0  2  0  0  0  0  0  0  0  0  0
    1.7622    2.0341   28.4043 O   0  0  0  0  0  0  0  0  0  0  0  0
    1.8226    4.3211   26.2584 C   0  0  2  0  0  0  0  0  0  0  0  0
    2.1715    2.9201   26.1106 O   0  0  0  0  0  0  0  0  0  0  0  0
   -1.6262    2.0343   26.6856 C   0  0  0  0  0  0  0  0  0  0  0  0
   -2.8002    1.2606   26.8611 O   0  0  0  0  0  0  0  0  0  0  0  0
   -2.0432   -2.5889   21.8151 C   0  0  1  0  0  0  0  0  0  0  0  0
   -0.9774   -1.7663   22.3806 O   0  0  0  0  0  0  0  0  0  0  0  0
    4.1079    1.6538   28.8052 C   0  0  0  0  0  0  0  0  0  0  0  0
    5.2873    2.3853   29.0938 O   0  0  0  0  0  0  0  0  0  0  0  0
    2.8926    5.1752   25.5100 C   0  0  1  0  0  0  0  0  0  0  0  0
    2.7728    4.9361   24.1085 O   0  0  0  0  0  0  0  0  0  0  0  0
   -1.5766   -3.1512   20.4479 C   0  0  0  0  0  0  0  0  0  0  0  0
   -0.5326   -4.1822   20.5897 N   0  0  0  0  0  0  0  0  0  0  0  0
  1  2  1  1  0  0  0
  1  7  1  0  0  0  0
  1 30  1  0  0  0  0
  3  4  1  6  0  0  0
  3  9  1  0  0  0  0
  3 39  1  0  0  0  0
  5 10  1  0  0  0  0
  5 26  1  0  0  0  0
  5 32  1  1  0  0  0
  6 12  1  0  0  0  0
  6 36  1  0  0  0  0
  6 19  1  1  0  0  0
  7  8  1  1  0  0  0
  7 14  1  0  0  0  0
  9 16  1  0  0  0  0
 10 11  1  6  0  0  0
 10 18  1  0  0  0  0
 12 13  1  6  0  0  0
 12 20  1  0  0  0  0
 14 15  1  1  0  0  0
 14 22  1  0  0  0  0
 16 17  1  1  0  0  0
 16 24  1  0  0  0  0
 18 19  1  6  0  0  0
 18 25  1  0  0  0  0
 20 21  1  6  0  0  0
 20 27  1  0  0  0  0
 22 23  1  1  0  0  0
 22 29  1  0  0  0  0
 24  2  1  6  0  0  0
 24 31  1  0  0  0  0
 25 26  1  0  0  0  0
 25 33  1  1  0  0  0
 27 28  1  1  0  0  0
 27 35  1  0  0  0  0
 29 30  1  0  0  0  0
 29 37  1  6  0  0  0
 31 32  1  1  0  0  0
 31 39  1  0  0  0  0
 33 34  1  0  0  0  0
 35 36  1  0  0  0  0
 35 41  1  6  0  0  0
 37 38  1  0  0  0  0
 39 40  1  6  0  0  0
 41 42  1  0  0  0  0
M  END
>  <CHROM.1>
128.08866069,-159.51348927,-67.88822458,-42.76608857,76.21038485,122.95986304
-170.47299415,-61.65324655,157.68349834,-46.88358804,-58.45820838,169.30940286
-73.91328807,40.72181053,-89.36142595,130.26830608,-139.92152333,-169.14702044
-50.98484168,74.81388222,54.95917630,41.64752537,0.62611434,1.52554582,26.38704774
0.64098267,1.05169751,1.54189849

>  <Name>
1fyp_lig

>  <RI>
0

>  <Rbt.Current_Directory>
/home/itssahil/PROJECTS/Mol_Feturizer/New_Systems/rnas/1fyp

>  <Rbt.Executable>
rbdock ($Id: //depot/dev/client3/rdock/2013.1/src/exe/rbdock.cxx#4 $)

>  <Rbt.Library>
libRbt.so (2013.1, Build901 2013/11/27)

>  <Rbt.Parameter_File>
/export/apps/rDock/src/rDock_2013.1_src/data/scripts/dock_solv.prm

>  <Rbt.Receptor>
prm/pocket_docking_7.prm

>  <SCORE>
-50.458

>  <SCORE.INTER>
-50.8215

>  <SCORE.INTER.CONST>
1

>  <SCORE.INTER.POLAR>
-7.89598

>  <SCORE.INTER.ROT>
14

>  <SCORE.INTER.SOLV>
18.7788

>  <SCORE.INTER.VDW>
-26.754

>  <SCORE.INTER.norm>
-1.21003

>  <SCORE.INTRA>
-0.0223064

>  <SCORE.INTRA.DIHEDRAL>
-12.0362

>  <SCORE.INTRA.DIHEDRAL.0>
48.7173

>  <SCORE.INTRA.POLAR>
0.718307

>  <SCORE.INTRA.POLAR.0>
-1.54691

>  <SCORE.INTRA.REPUL>
0.0126539

>  <SCORE.INTRA.REPUL.0>
0

>  <SCORE.INTRA.SOLV>
-0.493136

>  <SCORE.INTRA.SOLV.lig_0>
-64.052

>  <SCORE.INTRA.VDW>
3.73686

>  <SCORE.INTRA.VDW.0>
-7.0667

>  <SCORE.INTRA.norm>
-0.000531105

>  <SCORE.RESTR>
0.385771

>  <SCORE.RESTR.CAVITY>
0.385771

>  <SCORE.RESTR.norm>
0.00918503

>  <SCORE.SYSTEM>
0

>  <SCORE.SYSTEM.CONST>
0

>  <SCORE.SYSTEM.DIHEDRAL>
0

>  <SCORE.SYSTEM.SOLV>
0

>  <SCORE.SYSTEM.norm>
0

>  <SCORE.heavy>
42

>  <SCORE.norm>
-1.20138

>  <RMSD>
5.881

$$$$
1fyp_lig
 OpenBabel11021811393D
libRbt.so/2013.1/901 2013/11/27
 42 45  0  0  0  0  0  0  0  0999 V2000
    4.3075    6.2390   28.3360 C   0  0  2  0  0  0  0  0  0  0  0  0
    4.2532    4.8553   28.7883 O   0  0  0  0  0  0  0  0  0  0  0  0
    3.1041    2.3581   32.0570 C   0  0  2  0  0  0  0  0  0  0  0  0
    2.5261    1.7726   33.2808 N   0  0  0  0  0  0  0  0  0  0  0  0
    0.4296    2.6475   28.6131 C   0  0  1  0  0  0  0  0  0  0  0  0
   -3.3807    0.8474   27.1437 C   0  0  1  0  0  0  0  0  0  0  0  0
    3.0261    6.6286   27.5306 C   0  0  2  0  0  0  0  0  0  0  0  0
    1.7978    6.2734   28.2726 N   0  0  0  0  0  0  0  0  0  0  0  0
    3.8050    3.6864   32.4056 C   0  0  0  0  0  0  0  0  0  0  0  0
   -0.7374    3.3527   27.9169 C   0  0  2  0  0  0  0  0  0  0  0  0
   -1.6748    3.8034   28.8955 O   0  0  0  0  0  0  0  0  0  0  0  0
   -3.9413   -0.4198   27.8587 C   0  0  2  0  0  0  0  0  0  0  0  0
   -2.8805   -1.3971   28.2047 N   0  0  0  0  0  0  0  0  0  0  0  0
    3.0250    5.9500   26.1251 C   0  0  1  0  0  0  0  0  0  0  0  0
    1.9364    6.4374   25.3446 O   0  0  0  0  0  0  0  0  0  0  0  0
    4.4627    4.3475   31.1635 C   0  0  2  0  0  0  0  0  0  0  0  0
    5.0311    5.6432   31.5897 N   0  0  0  0  0  0  0  0  0  0  0  0
   -1.3229    2.2233   27.0648 C   0  0  2  0  0  0  0  0  0  0  0  0
   -2.2186    1.3745   27.8354 O   0  0  0  0  0  0  0  0  0  0  0  0
   -5.0691   -1.0835   27.0098 C   0  0  1  0  0  0  0  0  0  0  0  0
   -6.2371   -0.2694   27.0917 O   0  0  0  0  0  0  0  0  0  0  0  0
    4.3423    6.2180   25.3547 C   0  0  2  0  0  0  0  0  0  0  0  0
    4.3169    5.4984   24.1258 O   0  0  0  0  0  0  0  0  0  0  0  0
    3.4617    4.5261   29.9658 C   0  0  2  0  0  0  0  0  0  0  0  0
   -0.0650    1.4463   26.6520 C   0  0  2  0  0  0  0  0  0  0  0  0
    0.8652    1.5908   27.7427 O   0  0  0  0  0  0  0  0  0  0  0  0
   -4.7078   -1.2679   25.5047 C   0  0  2  0  0  0  0  0  0  0  0  0
   -3.7607   -2.3313   25.3919 O   0  0  0  0  0  0  0  0  0  0  0  0
    5.5666    5.7917   26.2135 C   0  0  2  0  0  0  0  0  0  0  0  0
    5.4988    6.4610   27.5086 O   0  0  0  0  0  0  0  0  0  0  0  0
    2.6150    3.2336   29.6785 C   0  0  2  0  0  0  0  0  0  0  0  0
    1.5135    3.5999   28.8072 O   0  0  0  0  0  0  0  0  0  0  0  0
    0.5643    1.9667   25.3475 C   0  0  0  0  0  0  0  0  0  0  0  0
    1.6824    1.1793   24.9769 O   0  0  0  0  0  0  0  0  0  0  0  0
   -4.1139    0.0477   24.9123 C   0  0  1  0  0  0  0  0  0  0  0  0
   -3.0209    0.5173   25.7592 O   0  0  0  0  0  0  0  0  0  0  0  0
    6.9414    6.1461   25.6040 C   0  0  0  0  0  0  0  0  0  0  0  0
    7.5545    5.0091   25.0204 O   0  0  0  0  0  0  0  0  0  0  0  0
    2.0248    2.5924   30.9728 C   0  0  1  0  0  0  0  0  0  0  0  0
    1.4235    1.3437   30.6336 O   0  0  0  0  0  0  0  0  0  0  0  0
   -3.5904   -0.1315   23.4642 C   0  0  0  0  0  0  0  0  0  0  0  0
   -2.2107   -0.6492   23.4241 N   0  0  0  0  0  0  0  0  0  0  0  0
  1  2  1  6  0  0  0
  1  7  1  0  0  0  0
  1 30  1  0  0  0  0
  3  4  1  1  0  0  0
  3  9  1  0  0  0  0
  3 39  1  0  0  0  0
  5 10  1  0  0  0  0
  5 26  1  0  0  0  0
  5 32  1  6  0  0  0
  6 12  1  0  0  0  0
  6 36  1  0  0  0  0
  6 19  1  1  0  0  0
  7  8  1  1  0  0  0
  7 14  1  0  0  0  0
  9 16  1  0  0  0  0
 10 11  1  1  0  0  0
 10 18  1  0  0  0  0
 12 13  1  6  0  0  0
 12 20  1  0  0  0  0
 14 15  1  6  0  0  0
 14 22  1  0  0  0  0
 16 17  1  1  0  0  0
 16 24  1  0  0  0  0
 18 19  1  1  0  0  0
 18 25  1  0  0  0  0
 20 21  1  6  0  0  0
 20 27  1  0  0  0  0
 22 23  1  6  0  0  0
 22 29  1  0  0  0  0
 24  2  1  6  0  0  0
 24 31  1  0  0  0  0
 25 26  1  0  0  0  0
 25 33  1  6  0  0  0
 27 28  1  1  0  0  0
 27 35  1  0  0  0  0
 29 30  1  0  0  0  0
 29 37  1  6  0  0  0
 31 32  1  6  0  0  0
 31 39  1  0  0  0  0
 33 34  1  0  0  0  0
 35 36  1  0  0  0  0
 35 41  1  6  0  0  0
 37 38  1  0  0  0  0
 39 40  1  6  0  0  0
 41 42  1  0  0  0  0
M  END
>  <CHROM.1>
-79.32782614,-102.25609400,169.86355324,-72.59521195,-174.85826820,171.27063658
-61.34908671,-60.67448360,144.16574131,158.65652728,56.65851113,179.43661350
-177.25730133,45.96758962,-102.32908256,-167.55024905,167.95360271,-63.62176247
-84.82412254,72.48402736,-59.48632899,-43.94292018,0.88795066,2.79201521
27.58131163,-0.10912816,-0.61905848,-1.43515245

>  <Name>
1fyp_lig

>  <RI>
0

>  <Rbt.Current_Directory>
/home/itssahil/PROJECTS/Mol_Feturizer/New_Systems/rnas/1fyp

>  <Rbt.Executable>
rbdock ($Id: //depot/dev/client3/rdock/2013.1/src/exe/rbdock.cxx#4 $)

>  <Rbt.Library>
libRbt.so (2013.1, Build901 2013/11/27)

>  <Rbt.Parameter_File>
/export/apps/rDock/src/rDock_2013.1_src/data/scripts/dock_solv.prm

>  <Rbt.Receptor>
prm/blind_docking_40.prm

>  <SCORE>
-41.4152

>  <SCORE.INTER>
-34.6516

>  <SCORE.INTER.CONST>
1

>  <SCORE.INTER.POLAR>
-4.6106

>  <SCORE.INTER.ROT>
14

>  <SCORE.INTER.SOLV>
16.3187

>  <SCORE.INTER.VDW>
-26.1053

>  <SCORE.INTER.norm>
-0.825038

>  <SCORE.INTRA>
-7.58885

>  <SCORE.INTRA.DIHEDRAL>
-23.3428

>  <SCORE.INTRA.DIHEDRAL.0>
48.7173

>  <SCORE.INTRA.POLAR>
0.388672

>  <SCORE.INTRA.POLAR.0>
-1.54691

>  <SCORE.INTRA.REPUL>
0.015674

>  <SCORE.INTRA.REPUL.0>
0

>  <SCORE.INTRA.SOLV>
-1.69852

>  <SCORE.INTRA.SOLV.lig_0>
-64.052

>  <SCORE.INTRA.VDW>
3.53195

>  <SCORE.INTRA.VDW.0>
-7.0667

>  <SCORE.INTRA.norm>
-0.180687

>  <SCORE.RESTR>
0.825289

>  <SCORE.RESTR.CAVITY>
0.825289

>  <SCORE.RESTR.norm>
0.0196497

>  <SCORE.SYSTEM>
0

>  <SCORE.SYSTEM.CONST>
0

>  <SCORE.SYSTEM.DIHEDRAL>
0

>  <SCORE.SYSTEM.SOLV>
0

>  <SCORE.SYSTEM.norm>
0

>  <SCORE.heavy>
42

>  <SCORE.norm>
-0.986076

>  <RMSD>
5.889

$$$$
1fyp_lig
 OpenBabel11021811393D
libRbt.so/2013.1/901 2013/11/27
 42 45  0  0  0  0  0  0  0  0999 V2000
   10.1365    6.6203   30.5717 C   0  0  2  0  0  0  0  0  0  0  0  0
    9.3823    6.2998   29.3672 O   0  0  0  0  0  0  0  0  0  0  0  0
    9.9964    9.2753   26.3655 C   0  0  2  0  0  0  0  0  0  0  0  0
   10.4087   10.0610   25.1877 N   0  0  0  0  0  0  0  0  0  0  0  0
    6.9294    5.4561   27.5472 C   0  0  1  0  0  0  0  0  0  0  0  0
    3.2914    4.2215   29.4255 C   0  0  1  0  0  0  0  0  0  0  0  0
    9.8670    5.5828   31.7088 C   0  0  2  0  0  0  0  0  0  0  0  0
   10.0450    4.1975   31.2240 N   0  0  0  0  0  0  0  0  0  0  0  0
   11.2487    8.7526   27.0973 C   0  0  0  0  0  0  0  0  0  0  0  0
    5.9461    6.5474   27.9784 C   0  0  2  0  0  0  0  0  0  0  0  0
    6.3131    7.0378   29.2684 O   0  0  0  0  0  0  0  0  0  0  0  0
    3.0559    3.8109   30.9111 C   0  0  2  0  0  0  0  0  0  0  0  0
    4.2911    3.3228   31.5717 N   0  0  0  0  0  0  0  0  0  0  0  0
    8.4360    5.7687   32.3036 C   0  0  1  0  0  0  0  0  0  0  0  0
    8.2627    4.9262   33.4402 O   0  0  0  0  0  0  0  0  0  0  0  0
   10.8886    7.9359   28.3685 C   0  0  2  0  0  0  0  0  0  0  0  0
   12.1472    7.4176   28.9436 N   0  0  0  0  0  0  0  0  0  0  0  0
    4.6248    5.7755   28.0322 C   0  0  2  0  0  0  0  0  0  0  0  0
    4.4700    5.0574   29.2880 O   0  0  0  0  0  0  0  0  0  0  0  0
    1.9024    2.7669   31.0229 C   0  0  1  0  0  0  0  0  0  0  0  0
    0.6629    3.4348   30.7969 O   0  0  0  0  0  0  0  0  0  0  0  0
    8.1762    7.2345   32.7326 C   0  0  2  0  0  0  0  0  0  0  0  0
    6.8287    7.3570   33.1775 O   0  0  0  0  0  0  0  0  0  0  0  0
    9.8691    6.7760   28.0797 C   0  0  2  0  0  0  0  0  0  0  0  0
    4.7788    4.7921   26.8636 C   0  0  2  0  0  0  0  0  0  0  0  0
    6.1865    4.4976   26.7770 O   0  0  0  0  0  0  0  0  0  0  0  0
    2.0121    1.5865   30.0106 C   0  0  2  0  0  0  0  0  0  0  0  0
    3.0671    0.7216   30.4341 O   0  0  0  0  0  0  0  0  0  0  0  0
    8.4509    8.2015   31.5461 C   0  0  2  0  0  0  0  0  0  0  0  0
    9.8007    7.9690   31.0424 O   0  0  0  0  0  0  0  0  0  0  0  0
    8.6502    7.2376   27.2013 C   0  0  2  0  0  0  0  0  0  0  0  0
    7.9674    6.0516   26.7179 O   0  0  0  0  0  0  0  0  0  0  0  0
    4.2740    5.3614   25.5258 C   0  0  0  0  0  0  0  0  0  0  0  0
    4.5398    4.4636   24.4624 O   0  0  0  0  0  0  0  0  0  0  0  0
    2.2948    2.1162   28.5705 C   0  0  1  0  0  0  0  0  0  0  0  0
    3.4421    3.0192   28.5965 O   0  0  0  0  0  0  0  0  0  0  0  0
    8.3633    9.7030   31.8994 C   0  0  0  0  0  0  0  0  0  0  0  0
    7.1272   10.0149   32.5193 O   0  0  0  0  0  0  0  0  0  0  0  0
    9.0777    8.0944   25.9694 C   0  0  1  0  0  0  0  0  0  0  0  0
    7.9055    8.6054   25.3365 O   0  0  0  0  0  0  0  0  0  0  0  0
    2.5717    0.9758   27.5576 C   0  0  0  0  0  0  0  0  0  0  0  0
    2.8165    1.4806   26.1944 N   0  0  0  0  0  0  0  0  0  0  0  0
  1  2  1  6  0  0  0
  1  7  1  0  0  0  0
  1 30  1  0  0  0  0
  3  4  1  6  0  0  0
  3  9  1  0  0  0  0
  3 39  1  0  0  0  0
  5 10  1  0  0  0  0
  5 26  1  0  0  0  0
  5 32  1  6  0  0  0
  6 12  1  0  0  0  0
  6 36  1  0  0  0  0
  6 19  1  1  0  0  0
  7  8  1  6  0  0  0
  7 14  1  0  0  0  0
  9 16  1  0  0  0  0
 10 11  1  1  0  0  0
 10 18  1  0  0  0  0
 12 13  1  6  0  0  0
 12 20  1  0  0  0  0
 14 15  1  1  0  0  0
 14 22  1  0  0  0  0
 16 17  1  6  0  0  0
 16 24  1  0  0  0  0
 18 19  1  1  0  0  0
 18 25  1  0  0  0  0
 20 21  1  6  0  0  0
 20 27  1  0  0  0  0
 22 23  1  6  0  0  0
 22 29  1  0  0  0  0
 24  2  1  1  0  0  0
 24 31  1  0  0  0  0
 25 26  1  0  0  0  0
 25 33  1  6  0  0  0
 27 28  1  1  0  0  0
 27 35  1  0  0  0  0
 29 30  1  0  0  0  0
 29 37  1  1  0  0  0
 31 32  1  6  0  0  0
 31 39  1  0  0  0  0
 33 34  1  0  0  0  0
 35 36  1  0  0  0  0
 35 41  1  6  0  0  0
 37 38  1  0  0  0  0
 39 40  1  1  0  0  0
 41 42  1  0  0  0  0
M  END
>  <CHROM.1>
-155.48100977,-17.98847008,65.91888408,53.96867182,-64.76891222,-73.43138730
63.95558451,-50.67324289,-176.37726565,-165.38577089,63.33621375,66.90687953
175.08441152,159.54619530,-53.46231377,87.60299879,50.18671984,-87.16415230
179.06718744,-74.22538745,-178.41227454,138.96314149,6.66451152,5.71290211
29.09441486,-0.04691631,0.65591808,1.63749200

>  <Name>
1fyp_lig

>  <RI>
0

>  <Rbt.Current_Directory>
/home/itssahil/PROJECTS/Mol_Feturizer/New_Systems/rnas/1fyp

>  <Rbt.Executable>
rbdock ($Id: //depot/dev/client3/rdock/2013.1/src/exe/rbdock.cxx#4 $)

>  <Rbt.Library>
libRbt.so (2013.1, Build901 2013/11/27)

>  <Rbt.Parameter_File>
/export/apps/rDock/src/rDock_2013.1_src/data/scripts/dock_solv.prm

>  <Rbt.Receptor>
prm/pocket_docking_8.prm

>  <SCORE>
-42.9305

>  <SCORE.INTER>
-37.5612

>  <SCORE.INTER.CONST>
1

>  <SCORE.INTER.POLAR>
-5.87183

>  <SCORE.INTER.ROT>
14

>  <SCORE.INTER.SOLV>
15.4127

>  <SCORE.INTER.VDW>
-23.539

>  <SCORE.INTER.norm>
-0.894315

>  <SCORE.INTRA>
-5.36927

>  <SCORE.INTRA.DIHEDRAL>
-26.1626

>  <SCORE.INTRA.DIHEDRAL.0>
48.7173

>  <SCORE.INTRA.POLAR>
1.06928

>  <SCORE.INTRA.POLAR.0>
-1.54691

>  <SCORE.INTRA.REPUL>
0

>  <SCORE.INTRA.REPUL.0>
0

>  <SCORE.INTRA.SOLV>
-1.09022

>  <SCORE.INTRA.SOLV.lig_0>
-64.052

>  <SCORE.INTRA.VDW>
4.62157

>  <SCORE.INTRA.VDW.0>
-7.0667

>  <SCORE.INTRA.norm>
-0.12784

>  <SCORE.RESTR>
0

>  <SCORE.RESTR.CAVITY>
0

>  <SCORE.RESTR.norm>
0

>  <SCORE.SYSTEM>
0

>  <SCORE.SYSTEM.CONST>
0

>  <SCORE.SYSTEM.DIHEDRAL>
0

>  <SCORE.SYSTEM.SOLV>
0

>  <SCORE.SYSTEM.norm>
0

>  <SCORE.heavy>
42

>  <SCORE.norm>
-1.02216

>  <RMSD>
5.899

$$$$
1fyp_lig
 OpenBabel11021811393D
libRbt.so/2013.1/901 2013/11/27
 42 45  0  0  0  0  0  0  0  0999 V2000
    4.0940    5.8131   28.3452 C   0  0  2  0  0  0  0  0  0  0  0  0
    2.6664    5.5328   28.2693 O   0  0  0  0  0  0  0  0  0  0  0  0
    2.6582    2.2542   31.0063 C   0  0  2  0  0  0  0  0  0  0  0  0
    2.3582    1.2617   32.0549 N   0  0  0  0  0  0  0  0  0  0  0  0
    0.1933    1.9032   27.5099 C   0  0  1  0  0  0  0  0  0  0  0  0
   -2.9315   -0.5264   25.7984 C   0  0  1  0  0  0  0  0  0  0  0  0
    4.5650    6.7111   27.1563 C   0  0  2  0  0  0  0  0  0  0  0  0
    3.7109    7.9100   27.0186 N   0  0  0  0  0  0  0  0  0  0  0  0
    2.6142    3.6707   31.6132 C   0  0  0  0  0  0  0  0  0  0  0  0
   -0.8301    2.0881   26.3864 C   0  0  2  0  0  0  0  0  0  0  0  0
   -2.1155    2.3511   26.9504 O   0  0  0  0  0  0  0  0  0  0  0  0
   -3.4633   -1.9279   26.2276 C   0  0  2  0  0  0  0  0  0  0  0  0
   -2.4395   -2.9929   26.0944 N   0  0  0  0  0  0  0  0  0  0  0  0
    4.5823    5.9025   25.8214 C   0  0  1  0  0  0  0  0  0  0  0  0
    5.1626    6.6844   24.7804 O   0  0  0  0  0  0  0  0  0  0  0  0
    2.9488    4.7690   30.5671 C   0  0  2  0  0  0  0  0  0  0  0  0
    2.7997    6.0823   31.2280 N   0  0  0  0  0  0  0  0  0  0  0  0
   -0.7933    0.7197   25.7005 C   0  0  2  0  0  0  0  0  0  0  0  0
   -1.6333   -0.2505   26.3859 O   0  0  0  0  0  0  0  0  0  0  0  0
   -4.7645   -2.2911   25.4478 C   0  0  1  0  0  0  0  0  0  0  0  0
   -5.8355   -1.5009   25.9598 O   0  0  0  0  0  0  0  0  0  0  0  0
    5.3875    4.5857   25.9557 C   0  0  2  0  0  0  0  0  0  0  0  0
    5.2871    3.8530   24.7384 O   0  0  0  0  0  0  0  0  0  0  0  0
    2.0595    4.6723   29.2756 C   0  0  2  0  0  0  0  0  0  0  0  0
    0.6876    0.3360   25.8267 C   0  0  2  0  0  0  0  0  0  0  0  0
    1.1462    0.9278   27.0578 O   0  0  0  0  0  0  0  0  0  0  0  0
   -4.6730   -2.0511   23.9103 C   0  0  2  0  0  0  0  0  0  0  0  0
   -3.8436   -3.0653   23.3408 O   0  0  0  0  0  0  0  0  0  0  0  0
    4.8506    3.7434   27.1476 C   0  0  2  0  0  0  0  0  0  0  0  0
    4.8615    4.5625   28.3554 O   0  0  0  0  0  0  0  0  0  0  0  0
    1.9548    3.2084   28.7133 C   0  0  2  0  0  0  0  0  0  0  0  0
    0.8678    3.1705   27.7524 O   0  0  0  0  0  0  0  0  0  0  0  0
    1.5426    0.8360   24.6487 C   0  0  0  0  0  0  0  0  0  0  0  0
    0.8817    1.8772   23.9511 O   0  0  0  0  0  0  0  0  0  0  0  0
   -4.0844   -0.6389   23.6041 C   0  0  1  0  0  0  0  0  0  0  0  0
   -2.8329   -0.4602   24.3351 O   0  0  0  0  0  0  0  0  0  0  0  0
    5.6717    2.4741   27.4667 C   0  0  0  0  0  0  0  0  0  0  0  0
    6.8303    2.3924   26.6540 O   0  0  0  0  0  0  0  0  0  0  0  0
    1.6667    2.1495   29.8225 C   0  0  1  0  0  0  0  0  0  0  0  0
    1.7591    0.8465   29.2485 O   0  0  0  0  0  0  0  0  0  0  0  0
   -3.8235   -0.4146   22.0925 C   0  0  0  0  0  0  0  0  0  0  0  0
   -5.0170   -0.6812   21.2694 N   0  0  0  0  0  0  0  0  0  0  0  0
  1  2  1  6  0  0  0
  1  7  1  0  0  0  0
  1 30  1  0  0  0  0
  3  4  1  1  0  0  0
  3  9  1  0  0  0  0
  3 39  1  0  0  0  0
  5 10  1  0  0  0  0
  5 26  1  0  0  0  0
  5 32  1  6  0  0  0
  6 12  1  0  0  0  0
  6 36  1  0  0  0  0
  6 19  1  1  0  0  0
  7  8  1  6  0  0  0
  7 14  1  0  0  0  0
  9 16  1  0  0  0  0
 10 11  1  1  0  0  0
 10 18  1  0  0  0  0
 12 13  1  6  0  0  0
 12 20  1  0  0  0  0
 14 15  1  6  0  0  0
 14 22  1  0  0  0  0
 16 17  1  1  0  0  0
 16 24  1  0  0  0  0
 18 19  1  1  0  0  0
 18 25  1  0  0  0  0
 20 21  1  1  0  0  0
 20 27  1  0  0  0  0
 22 23  1  6  0  0  0
 22 29  1  0  0  0  0
 24  2  1  6  0  0  0
 24 31  1  0  0  0  0
 25 26  1  0  0  0  0
 25 33  1  6  0  0  0
 27 28  1  6  0  0  0
 27 35  1  0  0  0  0
 29 30  1  0  0  0  0
 29 37  1  1  0  0  0
 31 32  1  6  0  0  0
 31 39  1  0  0  0  0
 33 34  1  0  0  0  0
 35 36  1  0  0  0  0
 35 41  1  6  0  0  0
 37 38  1  0  0  0  0
 39 40  1  6  0  0  0
 41 42  1  0  0  0  0
M  END
>  <CHROM.1>
178.07612782,25.57777928,-43.68746591,-62.19395314,-48.68857852,-24.19674832
176.66743338,-169.79910095,101.27820869,156.41476840,88.88080716,67.55605966
18.78575673,174.19416908,4.60597505,-154.39526478,-175.48749529,-154.94989760
53.51682610,-58.26662846,-54.54361634,-160.43574348,0.82799879,2.05221622
26.75718864,-0.32913796,-0.66974148,-1.53231860

>  <Name>
1fyp_lig

>  <RI>
0

>  <Rbt.Current_Directory>
/home/itssahil/PROJECTS/Mol_Feturizer/New_Systems/rnas/1fyp

>  <Rbt.Executable>
rbdock ($Id: //depot/dev/client3/rdock/2013.1/src/exe/rbdock.cxx#4 $)

>  <Rbt.Library>
libRbt.so (2013.1, Build901 2013/11/27)

>  <Rbt.Parameter_File>
/export/apps/rDock/src/rDock_2013.1_src/data/scripts/dock_solv.prm

>  <Rbt.Receptor>
prm/pocket_docking_7.prm

>  <SCORE>
-46.1754

>  <SCORE.INTER>
-55.3285

>  <SCORE.INTER.CONST>
1

>  <SCORE.INTER.POLAR>
-9.14122

>  <SCORE.INTER.ROT>
14

>  <SCORE.INTER.SOLV>
21.2648

>  <SCORE.INTER.VDW>
-26.4365

>  <SCORE.INTER.norm>
-1.31734

>  <SCORE.INTRA>
9.15304

>  <SCORE.INTRA.DIHEDRAL>
-13.7187

>  <SCORE.INTRA.DIHEDRAL.0>
48.7173

>  <SCORE.INTRA.POLAR>
1.26616

>  <SCORE.INTRA.POLAR.0>
-1.54691

>  <SCORE.INTRA.REPUL>
0

>  <SCORE.INTRA.REPUL.0>
0

>  <SCORE.INTRA.SOLV>
-1.13655

>  <SCORE.INTRA.SOLV.lig_0>
-64.052

>  <SCORE.INTRA.VDW>
12.2757

>  <SCORE.INTRA.VDW.0>
-7.0667

>  <SCORE.INTRA.norm>
0.217929

>  <SCORE.RESTR>
0

>  <SCORE.RESTR.CAVITY>
0

>  <SCORE.RESTR.norm>
0

>  <SCORE.SYSTEM>
0

>  <SCORE.SYSTEM.CONST>
0

>  <SCORE.SYSTEM.DIHEDRAL>
0

>  <SCORE.SYSTEM.SOLV>
0

>  <SCORE.SYSTEM.norm>
0

>  <SCORE.heavy>
42

>  <SCORE.norm>
-1.09941

>  <RMSD>
5.900

$$$$
1fyp_lig
 OpenBabel11021811393D
libRbt.so/2013.1/901 2013/11/27
 42 45  0  0  0  0  0  0  0  0999 V2000
    4.3483    4.5605   27.2433 C   0  0  2  0  0  0  0  0  0  0  0  0
    4.4018    4.5758   28.6991 O   0  0  0  0  0  0  0  0  0  0  0  0
    2.6617    2.6136   32.0700 C   0  0  2  0  0  0  0  0  0  0  0  0
    1.7651    2.0254   33.0822 N   0  0  0  0  0  0  0  0  0  0  0  0
    1.8967    1.2696   28.1516 C   0  0  1  0  0  0  0  0  0  0  0  0
   -2.2022    0.5319   26.7486 C   0  0  1  0  0  0  0  0  0  0  0  0
    5.6000    5.2557   26.6172 C   0  0  2  0  0  0  0  0  0  0  0  0
    6.8533    4.7210   27.1907 N   0  0  0  0  0  0  0  0  0  0  0  0
    2.2934    4.0955   31.8575 C   0  0  0  0  0  0  0  0  0  0  0  0
    0.9385    2.4065   27.7867 C   0  0  2  0  0  0  0  0  0  0  0  0
    0.2609    2.8549   28.9612 O   0  0  0  0  0  0  0  0  0  0  0  0
   -3.0412   -0.5307   27.5220 C   0  0  2  0  0  0  0  0  0  0  0  0
   -2.2003   -1.5912   28.1293 N   0  0  0  0  0  0  0  0  0  0  0  0
    5.5323    6.8029   26.8119 C   0  0  1  0  0  0  0  0  0  0  0  0
    6.5940    7.4347   26.1010 O   0  0  0  0  0  0  0  0  0  0  0  0
    3.2185    4.7882   30.8199 C   0  0  2  0  0  0  0  0  0  0  0  0
    2.7315    6.1707   30.6329 N   0  0  0  0  0  0  0  0  0  0  0  0
   -0.0239    1.7082   26.8221 C   0  0  2  0  0  0  0  0  0  0  0  0
   -1.0646    0.9795   27.5310 O   0  0  0  0  0  0  0  0  0  0  0  0
   -4.1476   -1.1390   26.6062 C   0  0  1  0  0  0  0  0  0  0  0  0
   -5.1719   -0.1638   26.4237 O   0  0  0  0  0  0  0  0  0  0  0  0
    4.1878    7.3883   26.3120 C   0  0  2  0  0  0  0  0  0  0  0  0
    4.1512    8.7824   26.6018 O   0  0  0  0  0  0  0  0  0  0  0  0
    3.2896    4.0151   29.4541 C   0  0  2  0  0  0  0  0  0  0  0  0
    0.9082    0.7368   26.0845 C   0  0  2  0  0  0  0  0  0  0  0  0
    1.9259    0.3664   27.0348 O   0  0  0  0  0  0  0  0  0  0  0  0
   -3.6386   -1.5807   25.2006 C   0  0  2  0  0  0  0  0  0  0  0  0
   -2.8666   -2.7731   25.3512 O   0  0  0  0  0  0  0  0  0  0  0  0
    2.9947    6.6568   26.9900 C   0  0  2  0  0  0  0  0  0  0  0  0
    3.1265    5.2203   26.7689 O   0  0  0  0  0  0  0  0  0  0  0  0
    3.5115    2.4699   29.6368 C   0  0  2  0  0  0  0  0  0  0  0  0
    3.2266    1.8201   28.3707 O   0  0  0  0  0  0  0  0  0  0  0  0
    1.5541    1.3549   24.8317 C   0  0  0  0  0  0  0  0  0  0  0  0
    0.5671    1.7231   23.8841 O   0  0  0  0  0  0  0  0  0  0  0  0
   -2.7743   -0.4583   24.5466 C   0  0  1  0  0  0  0  0  0  0  0  0
   -1.7326   -0.0355   25.4786 O   0  0  0  0  0  0  0  0  0  0  0  0
    1.6007    7.0598   26.4595 C   0  0  0  0  0  0  0  0  0  0  0  0
    1.5524    7.0033   25.0439 O   0  0  0  0  0  0  0  0  0  0  0  0
    2.5861    1.8468   30.7277 C   0  0  1  0  0  0  0  0  0  0  0  0
    2.9758    0.4909   30.9406 O   0  0  0  0  0  0  0  0  0  0  0  0
   -2.1125   -0.9098   23.2195 C   0  0  0  0  0  0  0  0  0  0  0  0
   -0.9249   -0.1052   22.8801 N   0  0  0  0  0  0  0  0  0  0  0  0
  1  2  1  1  0  0  0
  1  7  1  0  0  0  0
  1 30  1  0  0  0  0
  3  4  1  1  0  0  0
  3  9  1  0  0  0  0
  3 39  1  0  0  0  0
  5 10  1  0  0  0  0
  5 26  1  0  0  0  0
  5 32  1  6  0  0  0
  6 12  1  0  0  0  0
  6 36  1  0  0  0  0
  6 19  1  1  0  0  0
  7  8  1  1  0  0  0
  7 14  1  0  0  0  0
  9 16  1  0  0  0  0
 10 11  1  1  0  0  0
 10 18  1  0  0  0  0
 12 13  1  6  0  0  0
 12 20  1  0  0  0  0
 14 15  1  6  0  0  0
 14 22  1  0  0  0  0
 16 17  1  6  0  0  0
 16 24  1  0  0  0  0
 18 19  1  1  0  0  0
 18 25  1  0  0  0  0
 20 21  1  6  0  0  0
 20 27  1  0  0  0  0
 22 23  1  1  0  0  0
 22 29  1  0  0  0  0
 24  2  1  6  0  0  0
 24 31  1  0  0  0  0
 25 26  1  0  0  0  0
 25 33  1  6  0  0  0
 27 28  1  1  0  0  0
 27 35  1  0  0  0  0
 29 30  1  0  0  0  0
 29 37  1  6  0  0  0
 31 32  1  6  0  0  0
 31 39  1  0  0  0  0
 33 34  1  0  0  0  0
 35 36  1  0  0  0  0
 35 41  1  6  0  0  0
 37 38  1  0  0  0  0
 39 40  1  1  0  0  0
 41 42  1  0  0  0  0
M  END
>  <CHROM.1>
177.67484722,-150.75532552,166.38266430,-27.22281598,-149.01801255,65.30228826
-51.74397841,-162.57044022,166.43629555,165.23452346,151.51326941,-61.66972268
-61.83385052,-48.18802452,50.04649290,-95.22773205,78.97567954,-153.34630035
-157.55761906,-65.75917217,-56.03076871,-144.16153772,1.32102669,2.63354933
27.39682044,0.02517189,-0.79464309,-1.22048866

>  <Name>
1fyp_lig

>  <RI>
0

>  <Rbt.Current_Directory>
/home/itssahil/PROJECTS/Mol_Feturizer/New_Systems/rnas/1fyp

>  <Rbt.Executable>
rbdock ($Id: //depot/dev/client3/rdock/2013.1/src/exe/rbdock.cxx#4 $)

>  <Rbt.Library>
libRbt.so (2013.1, Build901 2013/11/27)

>  <Rbt.Parameter_File>
/export/apps/rDock/src/rDock_2013.1_src/data/scripts/dock_solv.prm

>  <Rbt.Receptor>
prm/blind_docking_60.prm

>  <SCORE>
-56.5391

>  <SCORE.INTER>
-54.179

>  <SCORE.INTER.CONST>
1

>  <SCORE.INTER.POLAR>
-7.9216

>  <SCORE.INTER.ROT>
14

>  <SCORE.INTER.SOLV>
17.6911

>  <SCORE.INTER.VDW>
-28.5443

>  <SCORE.INTER.norm>
-1.28998

>  <SCORE.INTRA>
-3.34866

>  <SCORE.INTRA.DIHEDRAL>
-19.8555

>  <SCORE.INTRA.DIHEDRAL.0>
48.7173

>  <SCORE.INTRA.POLAR>
0.83439

>  <SCORE.INTRA.POLAR.0>
-1.54691

>  <SCORE.INTRA.REPUL>
0

>  <SCORE.INTRA.REPUL.0>
0

>  <SCORE.INTRA.SOLV>
-0.0695619

>  <SCORE.INTRA.SOLV.lig_0>
-64.052

>  <SCORE.INTRA.VDW>
3.77693

>  <SCORE.INTRA.VDW.0>
-7.0667

>  <SCORE.INTRA.norm>
-0.0797299

>  <SCORE.RESTR>
0.988552

>  <SCORE.RESTR.CAVITY>
0.988552

>  <SCORE.RESTR.norm>
0.0235369

>  <SCORE.SYSTEM>
0

>  <SCORE.SYSTEM.CONST>
0

>  <SCORE.SYSTEM.DIHEDRAL>
0

>  <SCORE.SYSTEM.SOLV>
0

>  <SCORE.SYSTEM.norm>
0

>  <SCORE.heavy>
42

>  <SCORE.norm>
-1.34617

>  <RMSD>
5.914

$$$$
1fyp_lig
 OpenBabel11021811393D
libRbt.so/2013.1/901 2013/11/27
 42 45  0  0  0  0  0  0  0  0999 V2000
    3.4281    5.1620   27.5304 C   0  0  2  0  0  0  0  0  0  0  0  0
    3.3464    3.9439   28.3254 O   0  0  0  0  0  0  0  0  0  0  0  0
    2.0453    2.2438   32.0210 C   0  0  2  0  0  0  0  0  0  0  0  0
    1.5427    1.9859   33.3831 N   0  0  0  0  0  0  0  0  0  0  0  0
   -0.3696    3.0198   27.9386 C   0  0  1  0  0  0  0  0  0  0  0  0
   -1.6581   -0.4491   25.4544 C   0  0  1  0  0  0  0  0  0  0  0  0
    3.5909    4.8429   26.0093 C   0  0  2  0  0  0  0  0  0  0  0  0
    2.5681    3.8788   25.5511 N   0  0  0  0  0  0  0  0  0  0  0  0
    3.2135    3.2478   32.0870 C   0  0  0  0  0  0  0  0  0  0  0  0
    0.2214    1.6137   27.8077 C   0  0  2  0  0  0  0  0  0  0  0  0
    1.1391    1.5817   26.7139 O   0  0  0  0  0  0  0  0  0  0  0  0
   -0.3417   -1.1545   25.0064 C   0  0  2  0  0  0  0  0  0  0  0  0
    0.5847   -0.2385   24.2972 N   0  0  0  0  0  0  0  0  0  0  0  0
    5.0221    4.2994   25.7051 C   0  0  1  0  0  0  0  0  0  0  0  0
    5.2079    4.1640   24.2984 O   0  0  0  0  0  0  0  0  0  0  0  0
    3.8119    3.5462   30.6851 C   0  0  2  0  0  0  0  0  0  0  0  0
    4.8618    4.5726   30.8516 N   0  0  0  0  0  0  0  0  0  0  0  0
   -1.0255    0.7757   27.5119 C   0  0  2  0  0  0  0  0  0  0  0  0
   -1.3840    0.8202   26.1026 O   0  0  0  0  0  0  0  0  0  0  0  0
   -0.6533   -2.4207   24.1504 C   0  0  1  0  0  0  0  0  0  0  0  0
   -1.1480   -3.4416   25.0144 O   0  0  0  0  0  0  0  0  0  0  0  0
    6.1242    5.2365   26.2596 C   0  0  2  0  0  0  0  0  0  0  0  0
    7.3982    4.6411   26.0331 O   0  0  0  0  0  0  0  0  0  0  0  0
    2.7272    3.9986   29.6426 C   0  0  2  0  0  0  0  0  0  0  0  0
   -2.0936    1.4767   28.3629 C   0  0  2  0  0  0  0  0  0  0  0  0
   -1.7235    2.8688   28.3946 O   0  0  0  0  0  0  0  0  0  0  0  0
   -1.7039   -2.1842   23.0233 C   0  0  2  0  0  0  0  0  0  0  0  0
   -1.0901   -1.4213   21.9831 O   0  0  0  0  0  0  0  0  0  0  0  0
    5.9020    5.4931   27.7772 C   0  0  2  0  0  0  0  0  0  0  0  0
    4.5474    5.9954   27.9840 O   0  0  0  0  0  0  0  0  0  0  0  0
    1.4487    3.0846   29.6545 C   0  0  2  0  0  0  0  0  0  0  0  0
    0.3979    3.7687   28.9235 O   0  0  0  0  0  0  0  0  0  0  0  0
   -2.1842    0.9206   29.7951 C   0  0  0  0  0  0  0  0  0  0  0  0
   -2.2973   -0.4917   29.7823 O   0  0  0  0  0  0  0  0  0  0  0  0
   -2.9523   -1.4311   23.5789 C   0  0  1  0  0  0  0  0  0  0  0  0
   -2.5241   -0.2293   24.2895 O   0  0  0  0  0  0  0  0  0  0  0  0
    6.8589    6.5300   28.4067 C   0  0  0  0  0  0  0  0  0  0  0  0
    6.9225    6.3835   29.8152 O   0  0  0  0  0  0  0  0  0  0  0  0
    0.9291    2.7836   31.0946 C   0  0  1  0  0  0  0  0  0  0  0  0
   -0.1184    1.8183   31.0124 O   0  0  0  0  0  0  0  0  0  0  0  0
   -3.9536   -1.0303   22.4653 C   0  0  0  0  0  0  0  0  0  0  0  0
   -3.2790   -0.5132   21.2609 N   0  0  0  0  0  0  0  0  0  0  0  0
  1  2  1  1  0  0  0
  1  7  1  0  0  0  0
  1 30  1  0  0  0  0
  3  4  1  1  0  0  0
  3  9  1  0  0  0  0
  3 39  1  0  0  0  0
  5 10  1  0  0  0  0
  5 26  1  0  0  0  0
  5 32  1  1  0  0  0
  6 12  1  0  0  0  0
  6 36  1  0  0  0  0
  6 19  1  6  0  0  0
  7  8  1  1  0  0  0
  7 14  1  0  0  0  0
  9 16  1  0  0  0  0
 10 11  1  6  0  0  0
 10 18  1  0  0  0  0
 12 13  1  6  0  0  0
 12 20  1  0  0  0  0
 14 15  1  6  0  0  0
 14 22  1  0  0  0  0
 16 17  1  1  0  0  0
 16 24  1  0  0  0  0
 18 19  1  6  0  0  0
 18 25  1  0  0  0  0
 20 21  1  1  0  0  0
 20 27  1  0  0  0  0
 22 23  1  1  0  0  0
 22 29  1  0  0  0  0
 24  2  1  6  0  0  0
 24 31  1  0  0  0  0
 25 26  1  0  0  0  0
 25 33  1  1  0  0  0
 27 28  1  6  0  0  0
 27 35  1  0  0  0  0
 29 30  1  0  0  0  0
 29 37  1  6  0  0  0
 31 32  1  6  0  0  0
 31 39  1  0  0  0  0
 33 34  1  0  0  0  0
 35 36  1  0  0  0  0
 35 41  1  6  0  0  0
 37 38  1  0  0  0  0
 39 40  1  6  0  0  0
 41 42  1  0  0  0  0
M  END
>  <CHROM.1>
-158.03652736,-120.23763823,81.21846617,-51.40058334,170.58984021,49.26455410
-152.16814700,-45.50495154,131.69147372,-82.49462414,-60.65810906,-87.02943954
-50.71087797,-75.47837169,-159.81892185,133.45836143,-4.85600515,-68.69608323
-41.84209351,67.47221016,-71.74459994,-157.83932019,1.28319923,2.12366582
27.26772571,-0.60082301,-0.60960164,-1.77552016

>  <Name>
1fyp_lig

>  <RI>
0

>  <Rbt.Current_Directory>
/home/itssahil/PROJECTS/Mol_Feturizer/New_Systems/rnas/1fyp

>  <Rbt.Executable>
rbdock ($Id: //depot/dev/client3/rdock/2013.1/src/exe/rbdock.cxx#4 $)

>  <Rbt.Library>
libRbt.so (2013.1, Build901 2013/11/27)

>  <Rbt.Parameter_File>
/export/apps/rDock/src/rDock_2013.1_src/data/scripts/dock_solv.prm

>  <Rbt.Receptor>
prm/blind_docking_100.prm

>  <SCORE>
-34.7769

>  <SCORE.INTER>
-40.5775

>  <SCORE.INTER.CONST>
1

>  <SCORE.INTER.POLAR>
-6.93566

>  <SCORE.INTER.ROT>
14

>  <SCORE.INTER.SOLV>
15.0834

>  <SCORE.INTER.VDW>
-21.8939

>  <SCORE.INTER.norm>
-0.96613

>  <SCORE.INTRA>
4.7794

>  <SCORE.INTRA.DIHEDRAL>
-3.20769

>  <SCORE.INTRA.DIHEDRAL.0>
48.7173

>  <SCORE.INTRA.POLAR>
0.0401978

>  <SCORE.INTRA.POLAR.0>
-1.54691

>  <SCORE.INTRA.REPUL>
0

>  <SCORE.INTRA.REPUL.0>
0

>  <SCORE.INTRA.SOLV>
2.09055

>  <SCORE.INTRA.SOLV.lig_0>
-64.052

>  <SCORE.INTRA.VDW>
5.2013

>  <SCORE.INTRA.VDW.0>
-7.0667

>  <SCORE.INTRA.norm>
0.113795

>  <SCORE.RESTR>
1.02113

>  <SCORE.RESTR.CAVITY>
1.02113

>  <SCORE.RESTR.norm>
0.0243126

>  <SCORE.SYSTEM>
0

>  <SCORE.SYSTEM.CONST>
0

>  <SCORE.SYSTEM.DIHEDRAL>
0

>  <SCORE.SYSTEM.SOLV>
0

>  <SCORE.SYSTEM.norm>
0

>  <SCORE.heavy>
42

>  <SCORE.norm>
-0.828022

>  <RMSD>
5.919

$$$$
1fyp_lig
 OpenBabel11021811393D
libRbt.so/2013.1/901 2013/11/27
 42 45  0  0  0  0  0  0  0  0999 V2000
    3.9805    3.2281   25.8249 C   0  0  2  0  0  0  0  0  0  0  0  0
    3.2128    3.3736   27.0544 O   0  0  0  0  0  0  0  0  0  0  0  0
   -0.6870    4.0012   28.6789 C   0  0  2  0  0  0  0  0  0  0  0  0
   -2.0947    4.3598   28.9322 N   0  0  0  0  0  0  0  0  0  0  0  0
   -0.3258    1.1181   25.6518 C   0  0  1  0  0  0  0  0  0  0  0  0
   -3.3887   -1.1268   23.3742 C   0  0  1  0  0  0  0  0  0  0  0  0
    5.5047    3.4710   26.0696 C   0  0  2  0  0  0  0  0  0  0  0  0
    6.0016    2.6615   27.2025 N   0  0  0  0  0  0  0  0  0  0  0  0
    0.0849    5.2517   28.2124 C   0  0  0  0  0  0  0  0  0  0  0  0
   -0.0694    0.4302   24.3084 C   0  0  2  0  0  0  0  0  0  0  0  0
   -0.2776    1.3630   23.2473 O   0  0  0  0  0  0  0  0  0  0  0  0
   -4.6453   -1.2028   24.2941 C   0  0  2  0  0  0  0  0  0  0  0  0
   -4.2957   -1.2906   25.7330 N   0  0  0  0  0  0  0  0  0  0  0  0
    5.7938    4.9846   26.3178 C   0  0  1  0  0  0  0  0  0  0  0  0
    7.1994    5.2128   26.3808 O   0  0  0  0  0  0  0  0  0  0  0  0
    1.5866    4.9523   27.9523 C   0  0  2  0  0  0  0  0  0  0  0  0
    2.2104    6.1884   27.4359 N   0  0  0  0  0  0  0  0  0  0  0  0
   -1.1415   -0.6629   24.3062 C   0  0  2  0  0  0  0  0  0  0  0  0
   -2.4311   -0.1533   23.8660 O   0  0  0  0  0  0  0  0  0  0  0  0
   -5.5784   -2.3766   23.8644 C   0  0  1  0  0  0  0  0  0  0  0  0
   -6.2350   -2.0133   22.6518 O   0  0  0  0  0  0  0  0  0  0  0  0
    5.1997    5.8758   25.1983 C   0  0  2  0  0  0  0  0  0  0  0  0
    5.4152    7.2442   25.5297 O   0  0  0  0  0  0  0  0  0  0  0  0
    1.8069    3.7452   26.9713 C   0  0  2  0  0  0  0  0  0  0  0  0
   -1.1963   -1.0630   25.7872 C   0  0  2  0  0  0  0  0  0  0  0  0
   -0.8887    0.1316   26.5315 O   0  0  0  0  0  0  0  0  0  0  0  0
   -4.8358   -3.7272   23.6313 C   0  0  2  0  0  0  0  0  0  0  0  0
   -4.4597   -4.2637   24.9007 O   0  0  0  0  0  0  0  0  0  0  0  0
    3.6815    5.5868   25.0262 C   0  0  2  0  0  0  0  0  0  0  0  0
    3.4892    4.1577   24.8014 O   0  0  0  0  0  0  0  0  0  0  0  0
    0.9177    2.4987   27.3258 C   0  0  2  0  0  0  0  0  0  0  0  0
    0.9402    1.5913   26.1934 O   0  0  0  0  0  0  0  0  0  0  0  0
   -0.2018   -2.1812   26.1469 C   0  0  0  0  0  0  0  0  0  0  0  0
   -0.3575   -2.5803   27.4975 O   0  0  0  0  0  0  0  0  0  0  0  0
   -3.5730   -3.5183   22.7390 C   0  0  1  0  0  0  0  0  0  0  0  0
   -2.7513   -2.4469   23.2953 O   0  0  0  0  0  0  0  0  0  0  0  0
    3.0130    6.3151   23.8389 C   0  0  0  0  0  0  0  0  0  0  0  0
    3.7424    6.1208   22.6390 O   0  0  0  0  0  0  0  0  0  0  0  0
   -0.5669    2.8752   27.6239 C   0  0  1  0  0  0  0  0  0  0  0  0
   -1.2485    1.7149   28.0981 O   0  0  0  0  0  0  0  0  0  0  0  0
   -2.7123   -4.8012   22.6110 C   0  0  0  0  0  0  0  0  0  0  0  0
   -1.2867   -4.5026   22.3843 N   0  0  0  0  0  0  0  0  0  0  0  0
  1  2  1  1  0  0  0
  1  7  1  0  0  0  0
  1 30  1  0  0  0  0
  3  4  1  6  0  0  0
  3  9  1  0  0  0  0
  3 39  1  0  0  0  0
  5 10  1  0  0  0  0
  5 26  1  0  0  0  0
  5 32  1  1  0  0  0
  6 12  1  0  0  0  0
  6 36  1  0  0  0  0
  6 19  1  1  0  0  0
  7  8  1  1  0  0  0
  7 14  1  0  0  0  0
  9 16  1  0  0  0  0
 10 11  1  6  0  0  0
 10 18  1  0  0  0  0
 12 13  1  1  0  0  0
 12 20  1  0  0  0  0
 14 15  1  6  0  0  0
 14 22  1  0  0  0  0
 16 17  1  6  0  0  0
 16 24  1  0  0  0  0
 18 19  1  1  0  0  0
 18 25  1  0  0  0  0
 20 21  1  6  0  0  0
 20 27  1  0  0  0  0
 22 23  1  1  0  0  0
 22 29  1  0  0  0  0
 24  2  1  1  0  0  0
 24 31  1  0  0  0  0
 25 26  1  0  0  0  0
 25 33  1  6  0  0  0
 27 28  1  1  0  0  0
 27 35  1  0  0  0  0
 29 30  1  0  0  0  0
 29 37  1  6  0  0  0
 31 32  1  6  0  0  0
 31 39  1  0  0  0  0
 33 34  1  0  0  0  0
 35 36  1  0  0  0  0
 35 41  1  1  0  0  0
 37 38  1  0  0  0  0
 39 40  1  1  0  0  0
 41 42  1  0  0  0  0
M  END
>  <CHROM.1>
154.28574786,-129.75482443,52.92724544,-168.86503359,-168.05893937,179.85481420
55.47904423,-54.24196374,159.06692449,115.22044881,61.11191912,-59.36624656
-175.79799957,-85.90162276,50.68902582,-128.27985466,168.13283313,-61.27698675
-151.65772771,-61.79427222,-59.26234280,152.97825835,0.21912089,1.44085282
25.47783589,-0.69677437,-0.44917864,-2.39788583

>  <Name>
1fyp_lig

>  <RI>
0

>  <Rbt.Current_Directory>
/home/itssahil/PROJECTS/Mol_Feturizer/New_Systems/rnas/1fyp

>  <Rbt.Executable>
rbdock ($Id: //depot/dev/client3/rdock/2013.1/src/exe/rbdock.cxx#4 $)

>  <Rbt.Library>
libRbt.so (2013.1, Build901 2013/11/27)

>  <Rbt.Parameter_File>
/export/apps/rDock/src/rDock_2013.1_src/data/scripts/dock_solv.prm

>  <Rbt.Receptor>
prm/blind_docking_40.prm

>  <SCORE>
-35.6841

>  <SCORE.INTER>
-41.8773

>  <SCORE.INTER.CONST>
1

>  <SCORE.INTER.POLAR>
-5.52474

>  <SCORE.INTER.ROT>
14

>  <SCORE.INTER.SOLV>
18.6929

>  <SCORE.INTER.VDW>
-28.6667

>  <SCORE.INTER.norm>
-0.99708

>  <SCORE.INTRA>
6.19323

>  <SCORE.INTRA.DIHEDRAL>
-14.5433

>  <SCORE.INTRA.DIHEDRAL.0>
48.7173

>  <SCORE.INTRA.POLAR>
1.35469

>  <SCORE.INTRA.POLAR.0>
-1.54691

>  <SCORE.INTRA.REPUL>
0

>  <SCORE.INTRA.REPUL.0>
0

>  <SCORE.INTRA.SOLV>
-0.952336

>  <SCORE.INTRA.SOLV.lig_0>
-64.052

>  <SCORE.INTRA.VDW>
9.3351

>  <SCORE.INTRA.VDW.0>
-7.0667

>  <SCORE.INTRA.norm>
0.147458

>  <SCORE.RESTR>
0

>  <SCORE.RESTR.CAVITY>
0

>  <SCORE.RESTR.norm>
0

>  <SCORE.SYSTEM>
0

>  <SCORE.SYSTEM.CONST>
0

>  <SCORE.SYSTEM.DIHEDRAL>
0

>  <SCORE.SYSTEM.SOLV>
0

>  <SCORE.SYSTEM.norm>
0

>  <SCORE.heavy>
42

>  <SCORE.norm>
-0.849622

>  <RMSD>
5.919

$$$$
1fyp_lig
 OpenBabel11021811393D
libRbt.so/2013.1/901 2013/11/27
 42 45  0  0  0  0  0  0  0  0999 V2000
    4.0525    4.3459   27.0047 C   0  0  2  0  0  0  0  0  0  0  0  0
    4.2571    4.5286   28.4355 O   0  0  0  0  0  0  0  0  0  0  0  0
    3.1094    2.4492   31.9851 C   0  0  2  0  0  0  0  0  0  0  0  0
    2.3982    1.8404   33.1243 N   0  0  0  0  0  0  0  0  0  0  0  0
    1.5255    1.3850   28.2249 C   0  0  1  0  0  0  0  0  0  0  0  0
   -2.7941    0.9538   27.6046 C   0  0  1  0  0  0  0  0  0  0  0  0
    5.4108    4.1950   26.2469 C   0  0  2  0  0  0  0  0  0  0  0  0
    6.2671    3.1695   26.8800 N   0  0  0  0  0  0  0  0  0  0  0  0
    2.7796    3.9539   31.9195 C   0  0  0  0  0  0  0  0  0  0  0  0
    0.5955    2.5981   28.1401 C   0  0  2  0  0  0  0  0  0  0  0  0
    0.1918    2.9826   29.4549 O   0  0  0  0  0  0  0  0  0  0  0  0
   -3.3982   -0.3128   28.2843 C   0  0  2  0  0  0  0  0  0  0  0  0
   -2.4119   -1.4120   28.4235 N   0  0  0  0  0  0  0  0  0  0  0  0
    6.1632    5.5607   26.1768 C   0  0  1  0  0  0  0  0  0  0  0  0
    7.3181    5.4438   25.3496 O   0  0  0  0  0  0  0  0  0  0  0  0
    3.5190    4.6674   30.7547 C   0  0  2  0  0  0  0  0  0  0  0  0
    3.0730    6.0760   30.7326 N   0  0  0  0  0  0  0  0  0  0  0  0
   -0.5819    2.0352   27.3393 C   0  0  2  0  0  0  0  0  0  0  0  0
   -1.5126    1.3068   28.1876 O   0  0  0  0  0  0  0  0  0  0  0  0
   -4.6778   -0.7907   27.5311 C   0  0  1  0  0  0  0  0  0  0  0  0
   -5.7382    0.1192   27.8161 O   0  0  0  0  0  0  0  0  0  0  0  0
    5.2626    6.6863   25.6092 C   0  0  2  0  0  0  0  0  0  0  0  0
    5.9733    7.9197   25.6583 O   0  0  0  0  0  0  0  0  0  0  0  0
    3.2863    3.9699   29.3664 C   0  0  2  0  0  0  0  0  0  0  0  0
    0.1199    1.0802   26.3636 C   0  0  2  0  0  0  0  0  0  0  0  0
    1.2748    0.5778   27.0633 O   0  0  0  0  0  0  0  0  0  0  0  0
   -4.5108   -0.8758   25.9836 C   0  0  2  0  0  0  0  0  0  0  0  0
   -3.6980   -2.0095   25.6761 O   0  0  0  0  0  0  0  0  0  0  0  0
    3.9412    6.7831   26.4233 C   0  0  2  0  0  0  0  0  0  0  0  0
    3.2972    5.4737   26.4473 O   0  0  0  0  0  0  0  0  0  0  0  0
    3.4637    2.4095   29.4285 C   0  0  2  0  0  0  0  0  0  0  0  0
    2.9075    1.8432   28.2134 O   0  0  0  0  0  0  0  0  0  0  0  0
    0.5510    1.7651   25.0545 C   0  0  0  0  0  0  0  0  0  0  0  0
    1.0519    0.8161   24.1292 O   0  0  0  0  0  0  0  0  0  0  0  0
   -3.8549    0.4249   25.4248 C   0  0  1  0  0  0  0  0  0  0  0  0
   -2.6301    0.7138   26.1655 O   0  0  0  0  0  0  0  0  0  0  0  0
    2.9020    7.7766   25.8575 C   0  0  0  0  0  0  0  0  0  0  0  0
    1.6622    7.6670   26.5359 O   0  0  0  0  0  0  0  0  0  0  0  0
    2.7378    1.7625   30.6488 C   0  0  1  0  0  0  0  0  0  0  0  0
    3.0947    0.3827   30.7166 O   0  0  0  0  0  0  0  0  0  0  0  0
   -3.5207    0.3249   23.9143 C   0  0  0  0  0  0  0  0  0  0  0  0
   -2.5163   -0.7153   23.6275 N   0  0  0  0  0  0  0  0  0  0  0  0
  1  2  1  1  0  0  0
  1  7  1  0  0  0  0
  1 30  1  0  0  0  0
  3  4  1  1  0  0  0
  3  9  1  0  0  0  0
  3 39  1  0  0  0  0
  5 10  1  0  0  0  0
  5 26  1  0  0  0  0
  5 32  1  6  0  0  0
  6 12  1  0  0  0  0
  6 36  1  0  0  0  0
  6 19  1  1  0  0  0
  7  8  1  1  0  0  0
  7 14  1  0  0  0  0
  9 16  1  0  0  0  0
 10 11  1  1  0  0  0
 10 18  1  0  0  0  0
 12 13  1  6  0  0  0
 12 20  1  0  0  0  0
 14 15  1  6  0  0  0
 14 22  1  0  0  0  0
 16 17  1  6  0  0  0
 16 24  1  0  0  0  0
 18 19  1  1  0  0  0
 18 25  1  0  0  0  0
 20 21  1  6  0  0  0
 20 27  1  0  0  0  0
 22 23  1  1  0  0  0
 22 29  1  0  0  0  0
 24  2  1  6  0  0  0
 24 31  1  0  0  0  0
 25 26  1  0  0  0  0
 25 33  1  6  0  0  0
 27 28  1  1  0  0  0
 27 35  1  0  0  0  0
 29 30  1  0  0  0  0
 29 37  1  6  0  0  0
 31 32  1  6  0  0  0
 31 39  1  0  0  0  0
 33 34  1  0  0  0  0
 35 36  1  0  0  0  0
 35 41  1  6  0  0  0
 37 38  1  0  0  0  0
 39 40  1  1  0  0  0
 41 42  1  0  0  0  0
M  END
>  <CHROM.1>
-146.01081632,-163.53816647,133.84238996,-48.26320570,-164.51673058,71.49004310
62.76442131,-59.01755636,168.16692027,153.60204727,-58.63700165,-57.87506993
-173.26979574,57.20802586,171.55060098,-93.87571528,76.97700683,173.30996659
-63.56822699,63.24642286,-178.36640057,161.69321689,1.19906581,2.60583329
27.55492188,0.06729889,-0.62752399,-1.29286284

>  <Name>
1fyp_lig

>  <RI>
0

>  <Rbt.Current_Directory>
/home/itssahil/PROJECTS/Mol_Feturizer/New_Systems/rnas/1fyp

>  <Rbt.Executable>
rbdock ($Id: //depot/dev/client3/rdock/2013.1/src/exe/rbdock.cxx#4 $)

>  <Rbt.Library>
libRbt.so (2013.1, Build901 2013/11/27)

>  <Rbt.Parameter_File>
/export/apps/rDock/src/rDock_2013.1_src/data/scripts/dock_solv.prm

>  <Rbt.Receptor>
prm/pocket_docking_7.prm

>  <SCORE>
-56.2078

>  <SCORE.INTER>
-47.7132

>  <SCORE.INTER.CONST>
1

>  <SCORE.INTER.POLAR>
-5.88737

>  <SCORE.INTER.ROT>
14

>  <SCORE.INTER.SOLV>
18.4424

>  <SCORE.INTER.VDW>
-31.265

>  <SCORE.INTER.norm>
-1.13603

>  <SCORE.INTRA>
-8.553

>  <SCORE.INTRA.DIHEDRAL>
-28.482

>  <SCORE.INTRA.DIHEDRAL.0>
48.7173

>  <SCORE.INTRA.POLAR>
0.812598

>  <SCORE.INTRA.POLAR.0>
-1.54691

>  <SCORE.INTRA.REPUL>
0

>  <SCORE.INTRA.REPUL.0>
0

>  <SCORE.INTRA.SOLV>
-1.56962

>  <SCORE.INTRA.SOLV.lig_0>
-64.052

>  <SCORE.INTRA.VDW>
3.71

>  <SCORE.INTRA.VDW.0>
-7.0667

>  <SCORE.INTRA.norm>
-0.203643

>  <SCORE.RESTR>
0.0583598

>  <SCORE.RESTR.CAVITY>
0.0583598

>  <SCORE.RESTR.norm>
0.00138952

>  <SCORE.SYSTEM>
0

>  <SCORE.SYSTEM.CONST>
0

>  <SCORE.SYSTEM.DIHEDRAL>
0

>  <SCORE.SYSTEM.SOLV>
0

>  <SCORE.SYSTEM.norm>
0

>  <SCORE.heavy>
42

>  <SCORE.norm>
-1.33828

>  <RMSD>
5.921

$$$$
1fyp_lig
 OpenBabel11021811393D
libRbt.so/2013.1/901 2013/11/27
 42 45  0  0  0  0  0  0  0  0999 V2000
    4.2921    4.2523   27.2125 C   0  0  2  0  0  0  0  0  0  0  0  0
    4.7532    4.4357   28.5822 O   0  0  0  0  0  0  0  0  0  0  0  0
    3.1318    2.3901   31.9627 C   0  0  2  0  0  0  0  0  0  0  0  0
    2.3856    1.9713   33.1636 N   0  0  0  0  0  0  0  0  0  0  0  0
    1.0346    2.1696   28.0809 C   0  0  1  0  0  0  0  0  0  0  0  0
   -2.7177    0.4434   26.4514 C   0  0  1  0  0  0  0  0  0  0  0  0
    5.4866    4.2241   26.2054 C   0  0  2  0  0  0  0  0  0  0  0  0
    6.5282    3.2672   26.6354 N   0  0  0  0  0  0  0  0  0  0  0  0
    3.8087    3.7497   32.2276 C   0  0  0  0  0  0  0  0  0  0  0  0
   -0.1505    2.8055   27.3495 C   0  0  2  0  0  0  0  0  0  0  0  0
   -1.1838    3.1077   28.2878 O   0  0  0  0  0  0  0  0  0  0  0  0
   -3.4621   -0.7194   27.1760 C   0  0  2  0  0  0  0  0  0  0  0  0
   -2.5907   -1.8962   27.4125 N   0  0  0  0  0  0  0  0  0  0  0  0
    6.0995    5.6488   26.0296 C   0  0  1  0  0  0  0  0  0  0  0  0
    7.0790    5.6383   24.9942 O   0  0  0  0  0  0  0  0  0  0  0  0
    4.6378    4.2408   31.0096 C   0  0  2  0  0  0  0  0  0  0  0  0
    5.1726    5.5788   31.3374 N   0  0  0  0  0  0  0  0  0  0  0  0
   -0.5730    1.6810   26.4001 C   0  0  2  0  0  0  0  0  0  0  0  0
   -1.4281    0.7080   27.0625 O   0  0  0  0  0  0  0  0  0  0  0  0
   -4.7563   -1.1182   26.4019 C   0  0  1  0  0  0  0  0  0  0  0  0
   -5.7335   -0.0980   26.5962 O   0  0  0  0  0  0  0  0  0  0  0  0
    5.0192    6.7011   25.6751 C   0  0  2  0  0  0  0  0  0  0  0  0
    5.6248    7.9892   25.6208 O   0  0  0  0  0  0  0  0  0  0  0  0
    3.8070    4.2658   29.6764 C   0  0  2  0  0  0  0  0  0  0  0  0
    0.7759    1.0496   26.0286 C   0  0  2  0  0  0  0  0  0  0  0  0
    1.6208    1.2125   27.1842 O   0  0  0  0  0  0  0  0  0  0  0  0
   -4.5478   -1.3084   24.8689 C   0  0  2  0  0  0  0  0  0  0  0  0
   -3.8376   -2.5292   24.6550 O   0  0  0  0  0  0  0  0  0  0  0  0
    3.8759    6.6778   26.7290 C   0  0  2  0  0  0  0  0  0  0  0  0
    3.3557    5.3189   26.8403 O   0  0  0  0  0  0  0  0  0  0  0  0
    2.9782    2.9501   29.4476 C   0  0  2  0  0  0  0  0  0  0  0  0
    2.0089    3.2042   28.3976 O   0  0  0  0  0  0  0  0  0  0  0  0
    1.4298    1.7041   24.7986 C   0  0  0  0  0  0  0  0  0  0  0  0
    0.4879    1.8672   23.7527 O   0  0  0  0  0  0  0  0  0  0  0  0
   -3.7525   -0.1095   24.2651 C   0  0  1  0  0  0  0  0  0  0  0  0
   -2.5305    0.1059   25.0349 O   0  0  0  0  0  0  0  0  0  0  0  0
    2.6710    7.5869   26.3991 C   0  0  0  0  0  0  0  0  0  0  0  0
    1.9609    7.1106   25.2685 O   0  0  0  0  0  0  0  0  0  0  0  0
    2.2096    2.4853   30.7234 C   0  0  1  0  0  0  0  0  0  0  0  0
    1.6318    1.2055   30.4706 O   0  0  0  0  0  0  0  0  0  0  0  0
   -3.3802   -0.3280   22.7762 C   0  0  0  0  0  0  0  0  0  0  0  0
   -4.4583    0.0851   21.8596 N   0  0  0  0  0  0  0  0  0  0  0  0
  1  2  1  1  0  0  0
  1  7  1  0  0  0  0
  1 30  1  0  0  0  0
  3  4  1  1  0  0  0
  3  9  1  0  0  0  0
  3 39  1  0  0  0  0
  5 10  1  0  0  0  0
  5 26  1  0  0  0  0
  5 32  1  6  0  0  0
  6 12  1  0  0  0  0
  6 36  1  0  0  0  0
  6 19  1  1  0  0  0
  7  8  1  1  0  0  0
  7 14  1  0  0  0  0
  9 16  1  0  0  0  0
 10 11  1  1  0  0  0
 10 18  1  0  0  0  0
 12 13  1  6  0  0  0
 12 20  1  0  0  0  0
 14 15  1  6  0  0  0
 14 22  1  0  0  0  0
 16 17  1  1  0  0  0
 16 24  1  0  0  0  0
 18 19  1  1  0  0  0
 18 25  1  0  0  0  0
 20 21  1  6  0  0  0
 20 27  1  0  0  0  0
 22 23  1  1  0  0  0
 22 29  1  0  0  0  0
 24  2  1  6  0  0  0
 24 31  1  0  0  0  0
 25 26  1  0  0  0  0
 25 33  1  6  0  0  0
 27 28  1  1  0  0  0
 27 35  1  0  0  0  0
 29 30  1  0  0  0  0
 29 37  1  6  0  0  0
 31 32  1  6  0  0  0
 31 39  1  0  0  0  0
 33 34  1  0  0  0  0
 35 36  1  0  0  0  0
 35 41  1  6  0  0  0
 37 38  1  0  0  0  0
 39 40  1  6  0  0  0
 41 42  1  0  0  0  0
M  END
>  <CHROM.1>
-169.90783207,168.98145921,65.71886714,164.78972031,62.76476593,58.88874766
-57.45895812,-45.36620534,124.77544031,174.06703431,-57.82124661,-57.52708270
-46.42798179,67.09323274,67.78180920,-174.59170588,159.86384810,-58.76705498
85.67919439,-177.47030018,-59.82102526,8.75229854,1.14895459,2.61230950,27.14452439
-0.10120233,-0.64717564,-1.28878735

>  <Name>
1fyp_lig

>  <RI>
0

>  <Rbt.Current_Directory>
/home/itssahil/PROJECTS/Mol_Feturizer/New_Systems/rnas/1fyp

>  <Rbt.Executable>
rbdock ($Id: //depot/dev/client3/rdock/2013.1/src/exe/rbdock.cxx#4 $)

>  <Rbt.Library>
libRbt.so (2013.1, Build901 2013/11/27)

>  <Rbt.Parameter_File>
/export/apps/rDock/src/rDock_2013.1_src/data/scripts/dock_solv.prm

>  <Rbt.Receptor>
prm/blind_docking_100.prm

>  <SCORE>
-46.803

>  <SCORE.INTER>
-40.0683

>  <SCORE.INTER.CONST>
1

>  <SCORE.INTER.POLAR>
-4.9915

>  <SCORE.INTER.ROT>
14

>  <SCORE.INTER.SOLV>
16.8769

>  <SCORE.INTER.VDW>
-28.6329

>  <SCORE.INTER.norm>
-0.954008

>  <SCORE.INTRA>
-7.88383

>  <SCORE.INTRA.DIHEDRAL>
-31.8077

>  <SCORE.INTRA.DIHEDRAL.0>
48.7173

>  <SCORE.INTRA.POLAR>
1.54691

>  <SCORE.INTRA.POLAR.0>
-1.54691

>  <SCORE.INTRA.REPUL>
0

>  <SCORE.INTRA.REPUL.0>
0

>  <SCORE.INTRA.SOLV>
-3.1539

>  <SCORE.INTRA.SOLV.lig_0>
-64.052

>  <SCORE.INTRA.VDW>
4.33747

>  <SCORE.INTRA.VDW.0>
-7.0667

>  <SCORE.INTRA.norm>
-0.18771

>  <SCORE.RESTR>
1.14917

>  <SCORE.RESTR.CAVITY>
1.14917

>  <SCORE.RESTR.norm>
0.0273613

>  <SCORE.SYSTEM>
0

>  <SCORE.SYSTEM.CONST>
0

>  <SCORE.SYSTEM.DIHEDRAL>
0

>  <SCORE.SYSTEM.SOLV>
0

>  <SCORE.SYSTEM.norm>
0

>  <SCORE.heavy>
42

>  <SCORE.norm>
-1.11436

>  <RMSD>
5.933

$$$$
1fyp_lig
 OpenBabel11021811393D
libRbt.so/2013.1/901 2013/11/27
 42 45  0  0  0  0  0  0  0  0999 V2000
    3.8815    4.0544   26.6889 C   0  0  2  0  0  0  0  0  0  0  0  0
    3.9553    4.4084   28.1002 O   0  0  0  0  0  0  0  0  0  0  0  0
    2.7671    2.6506   31.8068 C   0  0  2  0  0  0  0  0  0  0  0  0
    2.0397    2.0951   32.9630 N   0  0  0  0  0  0  0  0  0  0  0  0
    1.6256    1.0741   28.0287 C   0  0  1  0  0  0  0  0  0  0  0  0
   -2.6644    0.6996   27.0849 C   0  0  1  0  0  0  0  0  0  0  0  0
    5.3043    3.9287   26.0551 C   0  0  2  0  0  0  0  0  0  0  0  0
    6.1757    3.0494   26.8633 N   0  0  0  0  0  0  0  0  0  0  0  0
    2.2505    4.0727   31.5109 C   0  0  0  0  0  0  0  0  0  0  0  0
    0.6830    2.2765   27.9321 C   0  0  2  0  0  0  0  0  0  0  0  0
    0.1706    2.5865   29.2286 O   0  0  0  0  0  0  0  0  0  0  0  0
   -3.4077   -0.5118   27.7261 C   0  0  2  0  0  0  0  0  0  0  0  0
   -2.5216   -1.6841   27.9281 N   0  0  0  0  0  0  0  0  0  0  0  0
    5.9626    5.3334   25.8832 C   0  0  1  0  0  0  0  0  0  0  0  0
    7.1866    5.2179   25.1619 O   0  0  0  0  0  0  0  0  0  0  0  0
    2.9944    4.7317   30.3172 C   0  0  2  0  0  0  0  0  0  0  0  0
    2.3716    6.0485   30.0687 N   0  0  0  0  0  0  0  0  0  0  0  0
   -0.4176    1.7391   27.0132 C   0  0  2  0  0  0  0  0  0  0  0  0
   -1.3984    0.9545   27.7474 O   0  0  0  0  0  0  0  0  0  0  0  0
   -4.6710   -0.8923   26.8940 C   0  0  1  0  0  0  0  0  0  0  0  0
   -5.6724    0.0995   27.1109 O   0  0  0  0  0  0  0  0  0  0  0  0
    5.0349    6.3157   25.1252 C   0  0  2  0  0  0  0  0  0  0  0  0
    5.6512    7.5992   25.0836 O   0  0  0  0  0  0  0  0  0  0  0  0
    2.9843    3.8390   29.0244 C   0  0  2  0  0  0  0  0  0  0  0  0
    0.3757    0.8461   26.0491 C   0  0  2  0  0  0  0  0  0  0  0  0
    1.4813    0.3247   26.8116 O   0  0  0  0  0  0  0  0  0  0  0  0
   -4.4143   -0.9991   25.3602 C   0  0  2  0  0  0  0  0  0  0  0  0
   -3.6753   -2.1947   25.1055 O   0  0  0  0  0  0  0  0  0  0  0  0
    3.6479    6.3969   25.8236 C   0  0  2  0  0  0  0  0  0  0  0  0
    3.0973    5.0514   25.9513 O   0  0  0  0  0  0  0  0  0  0  0  0
    3.3581    2.3400   29.3134 C   0  0  2  0  0  0  0  0  0  0  0  0
    2.9956    1.5520   28.1497 O   0  0  0  0  0  0  0  0  0  0  0  0
    0.8952    1.6041   24.8144 C   0  0  0  0  0  0  0  0  0  0  0  0
    2.3113    1.5858   24.7695 O   0  0  0  0  0  0  0  0  0  0  0  0
   -3.6245    0.2431   24.8429 C   0  0  1  0  0  0  0  0  0  0  0  0
   -2.4297    0.4393   25.6593 O   0  0  0  0  0  0  0  0  0  0  0  0
    2.5915    7.2375   25.0723 C   0  0  0  0  0  0  0  0  0  0  0  0
    2.2923    6.6759   23.8057 O   0  0  0  0  0  0  0  0  0  0  0  0
    2.6137    1.7553   30.5537 C   0  0  1  0  0  0  0  0  0  0  0  0
    3.1406    0.4598   30.8368 O   0  0  0  0  0  0  0  0  0  0  0  0
   -3.2049    0.1086   23.3567 C   0  0  0  0  0  0  0  0  0  0  0  0
   -4.3379    0.2959   22.4324 N   0  0  0  0  0  0  0  0  0  0  0  0
  1  2  1  1  0  0  0
  1  7  1  0  0  0  0
  1 30  1  0  0  0  0
  3  4  1  1  0  0  0
  3  9  1  0  0  0  0
  3 39  1  0  0  0  0
  5 10  1  0  0  0  0
  5 26  1  0  0  0  0
  5 32  1  6  0  0  0
  6 12  1  0  0  0  0
  6 36  1  0  0  0  0
  6 19  1  1  0  0  0
  7  8  1  1  0  0  0
  7 14  1  0  0  0  0
  9 16  1  0  0  0  0
 10 11  1  1  0  0  0
 10 18  1  0  0  0  0
 12 13  1  6  0  0  0
 12 20  1  0  0  0  0
 14 15  1  6  0  0  0
 14 22  1  0  0  0  0
 16 17  1  6  0  0  0
 16 24  1  0  0  0  0
 18 19  1  1  0  0  0
 18 25  1  0  0  0  0
 20 21  1  6  0  0  0
 20 27  1  0  0  0  0
 22 23  1  1  0  0  0
 22 29  1  0  0  0  0
 24  2  1  6  0  0  0
 24 31  1  0  0  0  0
 25 26  1  0  0  0  0
 25 33  1  6  0  0  0
 27 28  1  1  0  0  0
 27 35  1  0  0  0  0
 29 30  1  0  0  0  0
 29 37  1  6  0  0  0
 31 32  1  6  0  0  0
 31 39  1  0  0  0  0
 33 34  1  0  0  0  0
 35 36  1  0  0  0  0
 35 41  1  6  0  0  0
 37 38  1  0  0  0  0
 39 40  1  1  0  0  0
 41 42  1  0  0  0  0
M  END
>  <CHROM.1>
-143.64779319,-161.50353920,119.94787139,70.19700858,179.44571494,71.89814775
69.17676639,-38.68592030,163.64905783,160.53816991,64.43919473,-56.78333344
118.05245156,-42.54721046,62.81660033,-84.81895251,62.81080116,72.54885506
74.52950270,73.60964074,45.29634210,-31.80181170,1.13461312,2.45475552,27.12277480
0.05661810,-0.60885913,-1.27060399

>  <Name>
1fyp_lig

>  <RI>
0

>  <Rbt.Current_Directory>
/home/itssahil/PROJECTS/Mol_Feturizer/New_Systems/rnas/1fyp

>  <Rbt.Executable>
rbdock ($Id: //depot/dev/client3/rdock/2013.1/src/exe/rbdock.cxx#4 $)

>  <Rbt.Library>
libRbt.so (2013.1, Build901 2013/11/27)

>  <Rbt.Parameter_File>
/export/apps/rDock/src/rDock_2013.1_src/data/scripts/dock_solv.prm

>  <Rbt.Receptor>
prm/blind_docking_40.prm

>  <SCORE>
-51.6714

>  <SCORE.INTER>
-48.0223

>  <SCORE.INTER.CONST>
1

>  <SCORE.INTER.POLAR>
-6.01204

>  <SCORE.INTER.ROT>
14

>  <SCORE.INTER.SOLV>
18.7914

>  <SCORE.INTER.VDW>
-31.1719

>  <SCORE.INTER.norm>
-1.14339

>  <SCORE.INTRA>
-3.64904

>  <SCORE.INTRA.DIHEDRAL>
-21.1602

>  <SCORE.INTRA.DIHEDRAL.0>
48.7173

>  <SCORE.INTRA.POLAR>
0.818335

>  <SCORE.INTRA.POLAR.0>
-1.54691

>  <SCORE.INTRA.REPUL>
0.0299771

>  <SCORE.INTRA.REPUL.0>
0

>  <SCORE.INTRA.SOLV>
-0.683799

>  <SCORE.INTRA.SOLV.lig_0>
-64.052

>  <SCORE.INTRA.VDW>
4.34072

>  <SCORE.INTRA.VDW.0>
-7.0667

>  <SCORE.INTRA.norm>
-0.0868818

>  <SCORE.RESTR>
0

>  <SCORE.RESTR.CAVITY>
0

>  <SCORE.RESTR.norm>
0

>  <SCORE.SYSTEM>
0

>  <SCORE.SYSTEM.CONST>
0

>  <SCORE.SYSTEM.DIHEDRAL>
0

>  <SCORE.SYSTEM.SOLV>
0

>  <SCORE.SYSTEM.norm>
0

>  <SCORE.heavy>
42

>  <SCORE.norm>
-1.23027

>  <RMSD>
5.937

$$$$
1fyp_lig
 OpenBabel11021811393D
libRbt.so/2013.1/901 2013/11/27
 42 45  0  0  0  0  0  0  0  0999 V2000
    2.5094    4.3094   30.5193 C   0  0  2  0  0  0  0  0  0  0  0  0
    3.5059    3.4452   29.9008 O   0  0  0  0  0  0  0  0  0  0  0  0
    5.9696    6.3463   27.9633 C   0  0  2  0  0  0  0  0  0  0  0  0
    7.0737    7.1845   27.4603 N   0  0  0  0  0  0  0  0  0  0  0  0
    4.1906    1.9859   26.6268 C   0  0  1  0  0  0  0  0  0  0  0  0
    0.2868    0.7492   24.8491 C   0  0  1  0  0  0  0  0  0  0  0  0
    1.9696    3.6980   31.8523 C   0  0  2  0  0  0  0  0  0  0  0  0
    3.0772    3.3005   32.7472 N   0  0  0  0  0  0  0  0  0  0  0  0
    6.0156    6.3080   29.5039 C   0  0  0  0  0  0  0  0  0  0  0  0
    2.7832    2.1597   27.2036 C   0  0  2  0  0  0  0  0  0  0  0  0
    2.4397    1.0101   27.9782 O   0  0  0  0  0  0  0  0  0  0  0  0
   -0.8166    1.0743   25.9017 C   0  0  2  0  0  0  0  0  0  0  0  0
   -0.5568    0.4391   27.2167 N   0  0  0  0  0  0  0  0  0  0  0  0
    1.0389    2.4778   31.5676 C   0  0  1  0  0  0  0  0  0  0  0  0
    0.4301    2.0312   32.7766 O   0  0  0  0  0  0  0  0  0  0  0  0
    4.8604    5.4617   30.1054 C   0  0  2  0  0  0  0  0  0  0  0  0
    5.0442    5.4243   31.5712 N   0  0  0  0  0  0  0  0  0  0  0  0
    1.9326    2.2489   25.9336 C   0  0  2  0  0  0  0  0  0  0  0  0
    1.6161    0.9320   25.4024 O   0  0  0  0  0  0  0  0  0  0  0  0
   -2.2299    0.6981   25.3594 C   0  0  1  0  0  0  0  0  0  0  0  0
   -2.6048    1.6535   24.3693 O   0  0  0  0  0  0  0  0  0  0  0  0
   -0.0786    2.8296   30.5539 C   0  0  2  0  0  0  0  0  0  0  0  0
   -0.8324    1.6556   30.2668 O   0  0  0  0  0  0  0  0  0  0  0  0
    4.7851    4.0143   29.4993 C   0  0  2  0  0  0  0  0  0  0  0  0
    2.8621    3.0079   24.9764 C   0  0  2  0  0  0  0  0  0  0  0  0
    4.2027    2.6263   25.3409 O   0  0  0  0  0  0  0  0  0  0  0  0
   -2.3096   -0.7221   24.7217 C   0  0  2  0  0  0  0  0  0  0  0  0
   -2.2641   -1.6932   25.7684 O   0  0  0  0  0  0  0  0  0  0  0  0
    0.5377    3.4163   29.2523 C   0  0  2  0  0  0  0  0  0  0  0  0
    1.3939    4.5471   29.5961 O   0  0  0  0  0  0  0  0  0  0  0  0
    4.8907    4.0016   27.9313 C   0  0  2  0  0  0  0  0  0  0  0  0
    5.1495    2.6378   27.5073 O   0  0  0  0  0  0  0  0  0  0  0  0
    2.7037    4.5361   25.0675 C   0  0  0  0  0  0  0  0  0  0  0  0
    2.8515    4.9804   26.4048 O   0  0  0  0  0  0  0  0  0  0  0  0
   -1.1309   -0.9486   23.7248 C   0  0  1  0  0  0  0  0  0  0  0  0
    0.1346   -0.6343   24.3821 O   0  0  0  0  0  0  0  0  0  0  0  0
   -0.4917    3.9375   28.2248 C   0  0  0  0  0  0  0  0  0  0  0  0
   -0.8874    5.2662   28.5209 O   0  0  0  0  0  0  0  0  0  0  0  0
    6.0386    4.9099   27.3912 C   0  0  1  0  0  0  0  0  0  0  0  0
    5.9474    4.9679   25.9685 O   0  0  0  0  0  0  0  0  0  0  0  0
   -1.0739   -2.4012   23.1864 C   0  0  0  0  0  0  0  0  0  0  0  0
   -0.1371   -3.2476   23.9473 N   0  0  0  0  0  0  0  0  0  0  0  0
  1  2  1  6  0  0  0
  1  7  1  0  0  0  0
  1 30  1  0  0  0  0
  3  4  1  6  0  0  0
  3  9  1  0  0  0  0
  3 39  1  0  0  0  0
  5 10  1  0  0  0  0
  5 26  1  0  0  0  0
  5 32  1  1  0  0  0
  6 12  1  0  0  0  0
  6 36  1  0  0  0  0
  6 19  1  1  0  0  0
  7  8  1  1  0  0  0
  7 14  1  0  0  0  0
  9 16  1  0  0  0  0
 10 11  1  1  0  0  0
 10 18  1  0  0  0  0
 12 13  1  1  0  0  0
 12 20  1  0  0  0  0
 14 15  1  1  0  0  0
 14 22  1  0  0  0  0
 16 17  1  1  0  0  0
 16 24  1  0  0  0  0
 18 19  1  6  0  0  0
 18 25  1  0  0  0  0
 20 21  1  6  0  0  0
 20 27  1  0  0  0  0
 22 23  1  6  0  0  0
 22 29  1  0  0  0  0
 24  2  1  6  0  0  0
 24 31  1  0  0  0  0
 25 26  1  0  0  0  0
 25 33  1  1  0  0  0
 27 28  1  1  0  0  0
 27 35  1  0  0  0  0
 29 30  1  0  0  0  0
 29 37  1  6  0  0  0
 31 32  1  1  0  0  0
 31 39  1  0  0  0  0
 33 34  1  0  0  0  0
 35 36  1  0  0  0  0
 35 41  1  1  0  0  0
 37 38  1  0  0  0  0
 39 40  1  6  0  0  0
 41 42  1  0  0  0  0
M  END
>  <CHROM.1>
-129.14638006,10.35894192,-172.85189560,-78.70701295,64.31794326,-76.44842725
-64.38621181,-61.96695928,141.68836722,-57.49903786,-66.01806607,-55.98839388
53.60714764,-176.11582942,84.27849230,119.72748305,-49.58889248,173.40979324
-95.80644859,-64.66403658,-164.62241777,-123.72672907,1.90891800,2.61502485
27.60668449,0.73583632,0.57207514,1.21910449

>  <Name>
1fyp_lig

>  <RI>
0

>  <Rbt.Current_Directory>
/home/itssahil/PROJECTS/Mol_Feturizer/New_Systems/rnas/1fyp

>  <Rbt.Executable>
rbdock ($Id: //depot/dev/client3/rdock/2013.1/src/exe/rbdock.cxx#4 $)

>  <Rbt.Library>
libRbt.so (2013.1, Build901 2013/11/27)

>  <Rbt.Parameter_File>
/export/apps/rDock/src/rDock_2013.1_src/data/scripts/dock_solv.prm

>  <Rbt.Receptor>
prm/blind_docking_40.prm

>  <SCORE>
-33.9936

>  <SCORE.INTER>
-26.5471

>  <SCORE.INTER.CONST>
1

>  <SCORE.INTER.POLAR>
-3.34385

>  <SCORE.INTER.ROT>
14

>  <SCORE.INTER.SOLV>
14.5697

>  <SCORE.INTER.VDW>
-24.3418

>  <SCORE.INTER.norm>
-0.632074

>  <SCORE.INTRA>
-7.45208

>  <SCORE.INTRA.DIHEDRAL>
-11.0605

>  <SCORE.INTRA.DIHEDRAL.0>
48.7173

>  <SCORE.INTRA.POLAR>
-1.64843

>  <SCORE.INTRA.POLAR.0>
-1.54691

>  <SCORE.INTRA.REPUL>
0

>  <SCORE.INTRA.REPUL.0>
0

>  <SCORE.INTRA.SOLV>
4.20419

>  <SCORE.INTRA.SOLV.lig_0>
-64.052

>  <SCORE.INTRA.VDW>
1.58072

>  <SCORE.INTRA.VDW.0>
-7.0667

>  <SCORE.INTRA.norm>
-0.17743

>  <SCORE.RESTR>
0.00560445

>  <SCORE.RESTR.CAVITY>
0.00560445

>  <SCORE.RESTR.norm>
0.000133439

>  <SCORE.SYSTEM>
0

>  <SCORE.SYSTEM.CONST>
0

>  <SCORE.SYSTEM.DIHEDRAL>
0

>  <SCORE.SYSTEM.SOLV>
0

>  <SCORE.SYSTEM.norm>
0

>  <SCORE.heavy>
42

>  <SCORE.norm>
-0.809371

>  <RMSD>
5.937

$$$$
1fyp_lig
 OpenBabel11021811393D
libRbt.so/2013.1/901 2013/11/27
 42 45  0  0  0  0  0  0  0  0999 V2000
    3.0730    5.8841   27.9293 C   0  0  2  0  0  0  0  0  0  0  0  0
    2.5566    4.5796   28.3219 O   0  0  0  0  0  0  0  0  0  0  0  0
    2.0247    2.4629   31.9930 C   0  0  2  0  0  0  0  0  0  0  0  0
    1.6946    2.0264   33.3623 N   0  0  0  0  0  0  0  0  0  0  0  0
   -0.4721    2.8790   27.7471 C   0  0  1  0  0  0  0  0  0  0  0  0
   -1.2862    0.1649   24.4763 C   0  0  1  0  0  0  0  0  0  0  0  0
    2.3142    6.4495   26.6858 C   0  0  2  0  0  0  0  0  0  0  0  0
    0.8499    6.4039   26.8847 N   0  0  0  0  0  0  0  0  0  0  0  0
    2.8337    3.7739   32.0536 C   0  0  0  0  0  0  0  0  0  0  0  0
    0.3991    1.6330   27.5678 C   0  0  2  0  0  0  0  0  0  0  0  0
    1.5659    1.9707   26.8166 O   0  0  0  0  0  0  0  0  0  0  0  0
   -2.5437    0.9149   23.9403 C   0  0  2  0  0  0  0  0  0  0  0  0
   -3.2804    1.6320   25.0096 N   0  0  0  0  0  0  0  0  0  0  0  0
    2.7094    5.6712   25.3919 C   0  0  1  0  0  0  0  0  0  0  0  0
    2.1348    6.2966   24.2471 O   0  0  0  0  0  0  0  0  0  0  0  0
    3.2407    4.2792   30.6424 C   0  0  2  0  0  0  0  0  0  0  0  0
    3.9354    5.5728   30.8091 N   0  0  0  0  0  0  0  0  0  0  0  0
   -0.5292    0.7134   26.7697 C   0  0  2  0  0  0  0  0  0  0  0  0
   -0.4945    1.0146   25.3468 O   0  0  0  0  0  0  0  0  0  0  0  0
   -3.4807   -0.0582   23.1605 C   0  0  1  0  0  0  0  0  0  0  0  0
   -2.8749   -0.3631   21.9061 O   0  0  0  0  0  0  0  0  0  0  0  0
    4.2458    5.6119   25.2017 C   0  0  2  0  0  0  0  0  0  0  0  0
    4.5426    4.8128   24.0606 O   0  0  0  0  0  0  0  0  0  0  0  0
    2.0181    4.4063   29.6640 C   0  0  2  0  0  0  0  0  0  0  0  0
   -1.9047    1.0538   27.3600 C   0  0  2  0  0  0  0  0  0  0  0  0
   -1.8409    2.4430   27.7367 O   0  0  0  0  0  0  0  0  0  0  0  0
   -3.7659   -1.3988   23.9031 C   0  0  2  0  0  0  0  0  0  0  0  0
   -4.6570   -1.1363   24.9883 O   0  0  0  0  0  0  0  0  0  0  0  0
    4.9251    5.0260   26.4719 C   0  0  2  0  0  0  0  0  0  0  0  0
    4.5085    5.7997   27.6371 O   0  0  0  0  0  0  0  0  0  0  0  0
    1.0808    3.1449   29.6894 C   0  0  2  0  0  0  0  0  0  0  0  0
   -0.1642    3.4943   29.0302 O   0  0  0  0  0  0  0  0  0  0  0  0
   -2.2671    0.1906   28.5816 C   0  0  0  0  0  0  0  0  0  0  0  0
   -2.0646    0.9092   29.7858 O   0  0  0  0  0  0  0  0  0  0  0  0
   -2.4417   -2.0305   24.4340 C   0  0  1  0  0  0  0  0  0  0  0  0
   -1.7009   -1.0383   25.2082 O   0  0  0  0  0  0  0  0  0  0  0  0
    6.4698    5.0532   26.4524 C   0  0  0  0  0  0  0  0  0  0  0  0
    6.9828    4.3596   25.3276 O   0  0  0  0  0  0  0  0  0  0  0  0
    0.7516    2.6602   31.1355 C   0  0  1  0  0  0  0  0  0  0  0  0
    0.0448    1.4233   31.0554 O   0  0  0  0  0  0  0  0  0  0  0  0
   -2.6875   -3.2804   25.3175 C   0  0  0  0  0  0  0  0  0  0  0  0
   -2.6217   -2.9738   26.7578 N   0  0  0  0  0  0  0  0  0  0  0  0
  1  2  1  6  0  0  0
  1  7  1  0  0  0  0
  1 30  1  0  0  0  0
  3  4  1  1  0  0  0
  3  9  1  0  0  0  0
  3 39  1  0  0  0  0
  5 10  1  0  0  0  0
  5 26  1  0  0  0  0
  5 32  1  1  0  0  0
  6 12  1  0  0  0  0
  6 36  1  0  0  0  0
  6 19  1  1  0  0  0
  7  8  1  1  0  0  0
  7 14  1  0  0  0  0
  9 16  1  0  0  0  0
 10 11  1  6  0  0  0
 10 18  1  0  0  0  0
 12 13  1  1  0  0  0
 12 20  1  0  0  0  0
 14 15  1  6  0  0  0
 14 22  1  0  0  0  0
 16 17  1  1  0  0  0
 16 24  1  0  0  0  0
 18 19  1  6  0  0  0
 18 25  1  0  0  0  0
 20 21  1  6  0  0  0
 20 27  1  0  0  0  0
 22 23  1  6  0  0  0
 22 29  1  0  0  0  0
 24  2  1  6  0  0  0
 24 31  1  0  0  0  0
 25 26  1  0  0  0  0
 25 33  1  1  0  0  0
 27 28  1  1  0  0  0
 27 35  1  0  0  0  0
 29 30  1  0  0  0  0
 29 37  1  6  0  0  0
 31 32  1  1  0  0  0
 31 39  1  0  0  0  0
 33 34  1  0  0  0  0
 35 36  1  0  0  0  0
 35 41  1  1  0  0  0
 37 38  1  0  0  0  0
 39 40  1  6  0  0  0
 41 42  1  0  0  0  0
M  END
>  <CHROM.1>
-120.99600031,-77.59408074,-175.05786651,14.91711733,54.27650372,61.02705647
-85.62252175,-46.36636938,177.10707783,107.63780314,61.44798200,148.96159548
101.51356449,66.80122902,-57.18680758,111.22148584,18.18166580,-92.34928639
-99.36879342,78.22035421,61.90179000,-78.94181565,0.56670267,2.43687304,27.15175825
-0.30592152,-0.73113137,-1.52811170

>  <Name>
1fyp_lig

>  <RI>
0

>  <Rbt.Current_Directory>
/home/itssahil/PROJECTS/Mol_Feturizer/New_Systems/rnas/1fyp

>  <Rbt.Executable>
rbdock ($Id: //depot/dev/client3/rdock/2013.1/src/exe/rbdock.cxx#4 $)

>  <Rbt.Library>
libRbt.so (2013.1, Build901 2013/11/27)

>  <Rbt.Parameter_File>
/export/apps/rDock/src/rDock_2013.1_src/data/scripts/dock_solv.prm

>  <Rbt.Receptor>
prm/blind_docking_100.prm

>  <SCORE>
-41.843

>  <SCORE.INTER>
-49.3637

>  <SCORE.INTER.CONST>
1

>  <SCORE.INTER.POLAR>
-7.06042

>  <SCORE.INTER.ROT>
14

>  <SCORE.INTER.SOLV>
15.7258

>  <SCORE.INTER.VDW>
-27.5497

>  <SCORE.INTER.norm>
-1.17533

>  <SCORE.INTRA>
6.49576

>  <SCORE.INTRA.DIHEDRAL>
2.81156

>  <SCORE.INTRA.DIHEDRAL.0>
48.7173

>  <SCORE.INTRA.POLAR>
-0.0234489

>  <SCORE.INTRA.POLAR.0>
-1.54691

>  <SCORE.INTRA.REPUL>
0

>  <SCORE.INTRA.REPUL.0>
0

>  <SCORE.INTRA.SOLV>
1.74772

>  <SCORE.INTRA.SOLV.lig_0>
-64.052

>  <SCORE.INTRA.VDW>
4.29585

>  <SCORE.INTRA.VDW.0>
-7.0667

>  <SCORE.INTRA.norm>
0.154661

>  <SCORE.RESTR>
1.02498

>  <SCORE.RESTR.CAVITY>
1.02498

>  <SCORE.RESTR.norm>
0.0244043

>  <SCORE.SYSTEM>
0

>  <SCORE.SYSTEM.CONST>
0

>  <SCORE.SYSTEM.DIHEDRAL>
0

>  <SCORE.SYSTEM.SOLV>
0

>  <SCORE.SYSTEM.norm>
0

>  <SCORE.heavy>
42

>  <SCORE.norm>
-0.996262

>  <RMSD>
5.950

$$$$
1fyp_lig
 OpenBabel11021811393D
libRbt.so/2013.1/901 2013/11/27
 42 45  0  0  0  0  0  0  0  0999 V2000
    9.4880    6.9649   28.0518 C   0  0  2  0  0  0  0  0  0  0  0  0
    8.6133    7.5420   29.0638 O   0  0  0  0  0  0  0  0  0  0  0  0
    9.3198    4.3507   31.8128 C   0  0  2  0  0  0  0  0  0  0  0  0
    9.4219    3.4661   32.9882 N   0  0  0  0  0  0  0  0  0  0  0  0
    5.4937    4.8528   29.2240 C   0  0  1  0  0  0  0  0  0  0  0  0
    1.9035    2.4864   28.5472 C   0  0  1  0  0  0  0  0  0  0  0  0
   10.3876    8.0544   27.3841 C   0  0  2  0  0  0  0  0  0  0  0  0
   11.0820    8.8732   28.4005 N   0  0  0  0  0  0  0  0  0  0  0  0
    9.9792    5.7070   32.1328 C   0  0  0  0  0  0  0  0  0  0  0  0
    4.0750    4.8670   29.7993 C   0  0  2  0  0  0  0  0  0  0  0  0
    3.9430    3.8271   30.7692 O   0  0  0  0  0  0  0  0  0  0  0  0
    0.7919    2.9279   27.5469 C   0  0  2  0  0  0  0  0  0  0  0  0
    0.7329    4.3996   27.3711 N   0  0  0  0  0  0  0  0  0  0  0  0
    9.5464    8.9660   26.4368 C   0  0  1  0  0  0  0  0  0  0  0  0
   10.4026    9.8490   25.7162 O   0  0  0  0  0  0  0  0  0  0  0  0
    9.9322    6.6828   30.9253 C   0  0  2  0  0  0  0  0  0  0  0  0
   10.5131    7.9696   31.3619 N   0  0  0  0  0  0  0  0  0  0  0  0
    3.2295    4.5782   28.5559 C   0  0  2  0  0  0  0  0  0  0  0  0
    3.1618    3.1537   28.2680 O   0  0  0  0  0  0  0  0  0  0  0  0
   -0.5950    2.3508   27.9672 C   0  0  1  0  0  0  0  0  0  0  0  0
   -0.6091    0.9532   27.6841 O   0  0  0  0  0  0  0  0  0  0  0  0
    8.7249    8.1363   25.4184 C   0  0  2  0  0  0  0  0  0  0  0  0
    7.9119    9.0172   24.6492 O   0  0  0  0  0  0  0  0  0  0  0  0
    8.4823    6.8732   30.3510 C   0  0  2  0  0  0  0  0  0  0  0  0
    4.0099    5.3142   27.4579 C   0  0  2  0  0  0  0  0  0  0  0  0
    5.3957    5.2508   27.8471 O   0  0  0  0  0  0  0  0  0  0  0  0
   -0.9349    2.5464   29.4758 C   0  0  2  0  0  0  0  0  0  0  0  0
   -1.2485    3.9225   29.6960 O   0  0  0  0  0  0  0  0  0  0  0  0
    7.8472    7.0878   26.1589 C   0  0  2  0  0  0  0  0  0  0  0  0
    8.6982    6.2771   27.0241 O   0  0  0  0  0  0  0  0  0  0  0  0
    7.7187    5.5135   30.1553 C   0  0  2  0  0  0  0  0  0  0  0  0
    6.3125    5.8106   29.9533 O   0  0  0  0  0  0  0  0  0  0  0  0
    3.5746    6.7807   27.2884 C   0  0  0  0  0  0  0  0  0  0  0  0
    2.3540    6.8658   26.5739 O   0  0  0  0  0  0  0  0  0  0  0  0
    0.2661    2.1170   30.3745 C   0  0  1  0  0  0  0  0  0  0  0  0
    1.4820    2.7867   29.9210 O   0  0  0  0  0  0  0  0  0  0  0  0
    7.0921    6.1057   25.2356 C   0  0  0  0  0  0  0  0  0  0  0  0
    6.0316    6.7528   24.5529 O   0  0  0  0  0  0  0  0  0  0  0  0
    7.8475    4.5607   31.3842 C   0  0  1  0  0  0  0  0  0  0  0  0
    7.2731    3.2984   31.0487 O   0  0  0  0  0  0  0  0  0  0  0  0
    0.0383    2.4426   31.8729 C   0  0  0  0  0  0  0  0  0  0  0  0
   -1.1598    1.7787   32.4177 N   0  0  0  0  0  0  0  0  0  0  0  0
  1  2  1  1  0  0  0
  1  7  1  0  0  0  0
  1 30  1  0  0  0  0
  3  4  1  1  0  0  0
  3  9  1  0  0  0  0
  3 39  1  0  0  0  0
  5 10  1  0  0  0  0
  5 26  1  0  0  0  0
  5 32  1  1  0  0  0
  6 12  1  0  0  0  0
  6 36  1  0  0  0  0
  6 19  1  6  0  0  0
  7  8  1  1  0  0  0
  7 14  1  0  0  0  0
  9 16  1  0  0  0  0
 10 11  1  1  0  0  0
 10 18  1  0  0  0  0
 12 13  1  1  0  0  0
 12 20  1  0  0  0  0
 14 15  1  6  0  0  0
 14 22  1  0  0  0  0
 16 17  1  1  0  0  0
 16 24  1  0  0  0  0
 18 19  1  6  0  0  0
 18 25  1  0  0  0  0
 20 21  1  1  0  0  0
 20 27  1  0  0  0  0
 22 23  1  1  0  0  0
 22 29  1  0  0  0  0
 24  2  1  6  0  0  0
 24 31  1  0  0  0  0
 25 26  1  0  0  0  0
 25 33  1  1  0  0  0
 27 28  1  6  0  0  0
 27 35  1  0  0  0  0
 29 30  1  0  0  0  0
 29 37  1  6  0  0  0
 31 32  1  1  0  0  0
 31 39  1  0  0  0  0
 33 34  1  0  0  0  0
 35 36  1  0  0  0  0
 35 41  1  1  0  0  0
 37 38  1  0  0  0  0
 39 40  1  6  0  0  0
 41 42  1  0  0  0  0
M  END
>  <CHROM.1>
-134.64805839,53.89931747,-56.22490899,166.02441449,-160.28654425,124.66391122
-63.20754305,50.99276193,106.95199895,70.14435665,-58.77774357,61.68305473
-77.35754655,-72.23362916,-71.56636466,154.97340795,146.39383191,55.19645032
59.23118675,50.58173430,53.00138227,-65.14689104,5.41397757,5.30395843,28.76289120
-0.32476818,0.37887848,2.05979414

>  <Name>
1fyp_lig

>  <RI>
0

>  <Rbt.Current_Directory>
/home/itssahil/PROJECTS/Mol_Feturizer/New_Systems/rnas/1fyp

>  <Rbt.Executable>
rbdock ($Id: //depot/dev/client3/rdock/2013.1/src/exe/rbdock.cxx#4 $)

>  <Rbt.Library>
libRbt.so (2013.1, Build901 2013/11/27)

>  <Rbt.Parameter_File>
/export/apps/rDock/src/rDock_2013.1_src/data/scripts/dock_solv.prm

>  <Rbt.Receptor>
prm/pocket_docking_8.prm

>  <SCORE>
-32.2812

>  <SCORE.INTER>
-16.9114

>  <SCORE.INTER.CONST>
1

>  <SCORE.INTER.POLAR>
-1.09892

>  <SCORE.INTER.ROT>
14

>  <SCORE.INTER.SOLV>
10.9053

>  <SCORE.INTER.VDW>
-24.1797

>  <SCORE.INTER.norm>
-0.402653

>  <SCORE.INTRA>
-15.3698

>  <SCORE.INTRA.DIHEDRAL>
-20.5361

>  <SCORE.INTRA.DIHEDRAL.0>
48.7173

>  <SCORE.INTRA.POLAR>
-2.06412

>  <SCORE.INTRA.POLAR.0>
-1.54691

>  <SCORE.INTRA.REPUL>
0

>  <SCORE.INTRA.REPUL.0>
0

>  <SCORE.INTRA.SOLV>
0.814899

>  <SCORE.INTRA.SOLV.lig_0>
-64.052

>  <SCORE.INTRA.VDW>
1.50881

>  <SCORE.INTRA.VDW.0>
-7.0667

>  <SCORE.INTRA.norm>
-0.365948

>  <SCORE.RESTR>
0

>  <SCORE.RESTR.CAVITY>
0

>  <SCORE.RESTR.norm>
0

>  <SCORE.SYSTEM>
0

>  <SCORE.SYSTEM.CONST>
0

>  <SCORE.SYSTEM.DIHEDRAL>
0

>  <SCORE.SYSTEM.SOLV>
0

>  <SCORE.SYSTEM.norm>
0

>  <SCORE.heavy>
42

>  <SCORE.norm>
-0.768601

>  <RMSD>
5.953

$$$$
1fyp_lig
 OpenBabel11021811393D
libRbt.so/2013.1/901 2013/11/27
 42 45  0  0  0  0  0  0  0  0999 V2000
    7.8896    6.9855   26.7377 C   0  0  2  0  0  0  0  0  0  0  0  0
    7.5026    7.9090   27.7959 O   0  0  0  0  0  0  0  0  0  0  0  0
    9.6416    5.7301   30.7822 C   0  0  2  0  0  0  0  0  0  0  0  0
   10.2845    5.2396   32.0153 N   0  0  0  0  0  0  0  0  0  0  0  0
    5.0976    5.2676   29.4083 C   0  0  1  0  0  0  0  0  0  0  0  0
    1.8118    2.7900   28.2183 C   0  0  1  0  0  0  0  0  0  0  0  0
    8.5072    7.7403   25.5167 C   0  0  2  0  0  0  0  0  0  0  0  0
    9.5773    8.6666   25.9443 N   0  0  0  0  0  0  0  0  0  0  0  0
   10.1141    7.1692   30.4949 C   0  0  0  0  0  0  0  0  0  0  0  0
    3.8882    5.1831   30.3432 C   0  0  2  0  0  0  0  0  0  0  0  0
    4.1250    4.1894   31.3411 O   0  0  0  0  0  0  0  0  0  0  0  0
    1.4189    1.3210   28.5633 C   0  0  2  0  0  0  0  0  0  0  0  0
    2.5977    0.4641   28.8399 N   0  0  0  0  0  0  0  0  0  0  0  0
    7.4059    8.5134   24.7258 C   0  0  1  0  0  0  0  0  0  0  0  0
    7.9538    9.0638   23.5306 O   0  0  0  0  0  0  0  0  0  0  0  0
    9.4952    7.7417   29.1904 C   0  0  2  0  0  0  0  0  0  0  0  0
    9.9461    9.1423   29.0537 N   0  0  0  0  0  0  0  0  0  0  0  0
    2.7778    4.7516   29.3813 C   0  0  2  0  0  0  0  0  0  0  0  0
    2.7827    3.3135   29.1616 O   0  0  0  0  0  0  0  0  0  0  0  0
    0.5223    0.7081   27.4437 C   0  0  1  0  0  0  0  0  0  0  0  0
   -0.7756    1.2924   27.5315 O   0  0  0  0  0  0  0  0  0  0  0  0
    6.2175    7.5950   24.3456 C   0  0  2  0  0  0  0  0  0  0  0  0
    5.2098    8.3768   23.7116 O   0  0  0  0  0  0  0  0  0  0  0  0
    7.9278    7.6380   29.1623 C   0  0  2  0  0  0  0  0  0  0  0  0
    3.1599    5.4955   28.0941 C   0  0  2  0  0  0  0  0  0  0  0  0
    4.5982    5.5801   28.0980 O   0  0  0  0  0  0  0  0  0  0  0  0
    1.0629    0.9356   25.9995 C   0  0  2  0  0  0  0  0  0  0  0  0
    2.1929    0.0852   25.7983 O   0  0  0  0  0  0  0  0  0  0  0  0
    5.6501    6.8935   25.6122 C   0  0  2  0  0  0  0  0  0  0  0  0
    6.7331    6.1964   26.2985 O   0  0  0  0  0  0  0  0  0  0  0  0
    7.4005    6.2237   29.6003 C   0  0  2  0  0  0  0  0  0  0  0  0
    5.9776    6.3343   29.8639 O   0  0  0  0  0  0  0  0  0  0  0  0
    2.5473    6.9048   28.0075 C   0  0  0  0  0  0  0  0  0  0  0  0
    1.1859    6.8886   28.3997 O   0  0  0  0  0  0  0  0  0  0  0  0
    1.4670    2.4277   25.7879 C   0  0  1  0  0  0  0  0  0  0  0  0
    2.3649    2.8493   26.8596 O   0  0  0  0  0  0  0  0  0  0  0  0
    4.5530    5.8416   25.3346 C   0  0  0  0  0  0  0  0  0  0  0  0
    5.0400    4.7944   24.5126 O   0  0  0  0  0  0  0  0  0  0  0  0
    8.0981    5.6860   30.8882 C   0  0  1  0  0  0  0  0  0  0  0  0
    7.6824    4.3388   31.1072 O   0  0  0  0  0  0  0  0  0  0  0  0
    2.1596    2.6719   24.4227 C   0  0  0  0  0  0  0  0  0  0  0  0
    2.4340    4.0994   24.1777 N   0  0  0  0  0  0  0  0  0  0  0  0
  1  2  1  1  0  0  0
  1  7  1  0  0  0  0
  1 30  1  0  0  0  0
  3  4  1  1  0  0  0
  3  9  1  0  0  0  0
  3 39  1  0  0  0  0
  5 10  1  0  0  0  0
  5 26  1  0  0  0  0
  5 32  1  1  0  0  0
  6 12  1  0  0  0  0
  6 36  1  0  0  0  0
  6 19  1  1  0  0  0
  7  8  1  1  0  0  0
  7 14  1  0  0  0  0
  9 16  1  0  0  0  0
 10 11  1  1  0  0  0
 10 18  1  0  0  0  0
 12 13  1  6  0  0  0
 12 20  1  0  0  0  0
 14 15  1  6  0  0  0
 14 22  1  0  0  0  0
 16 17  1  1  0  0  0
 16 24  1  0  0  0  0
 18 19  1  6  0  0  0
 18 25  1  0  0  0  0
 20 21  1  6  0  0  0
 20 27  1  0  0  0  0
 22 23  1  1  0  0  0
 22 29  1  0  0  0  0
 24  2  1  6  0  0  0
 24 31  1  0  0  0  0
 25 26  1  0  0  0  0
 25 33  1  1  0  0  0
 27 28  1  1  0  0  0
 27 35  1  0  0  0  0
 29 30  1  0  0  0  0
 29 37  1  6  0  0  0
 31 32  1  1  0  0  0
 31 39  1  0  0  0  0
 33 34  1  0  0  0  0
 35 36  1  0  0  0  0
 35 41  1  6  0  0  0
 37 38  1  0  0  0  0
 39 40  1  6  0  0  0
 41 42  1  0  0  0  0
M  END
>  <CHROM.1>
-130.62555460,64.92102872,56.57215393,8.33578414,-174.80317476,164.07649354
-53.14551750,-129.19221750,-177.27679210,-151.83332746,65.89788734,-55.03604051
-44.17580604,169.06732358,60.46173377,138.61648712,150.88522576,-128.14596817
175.04325458,-44.86795477,-58.80249975,26.92280620,5.13050634,5.25888761
27.64876863,0.15174952,-0.63931904,-1.14174028

>  <Name>
1fyp_lig

>  <RI>
0

>  <Rbt.Current_Directory>
/home/itssahil/PROJECTS/Mol_Feturizer/New_Systems/rnas/1fyp

>  <Rbt.Executable>
rbdock ($Id: //depot/dev/client3/rdock/2013.1/src/exe/rbdock.cxx#4 $)

>  <Rbt.Library>
libRbt.so (2013.1, Build901 2013/11/27)

>  <Rbt.Parameter_File>
/export/apps/rDock/src/rDock_2013.1_src/data/scripts/dock_solv.prm

>  <Rbt.Receptor>
prm/pocket_docking_5.prm

>  <SCORE>
-56.685

>  <SCORE.INTER>
-56.2468

>  <SCORE.INTER.CONST>
1

>  <SCORE.INTER.POLAR>
-7.73334

>  <SCORE.INTER.ROT>
14

>  <SCORE.INTER.SOLV>
15.8886

>  <SCORE.INTER.VDW>
-29.9496

>  <SCORE.INTER.norm>
-1.33921

>  <SCORE.INTRA>
-0.43817

>  <SCORE.INTRA.DIHEDRAL>
-12.6402

>  <SCORE.INTRA.DIHEDRAL.0>
48.7173

>  <SCORE.INTRA.POLAR>
0.24288

>  <SCORE.INTRA.POLAR.0>
-1.54691

>  <SCORE.INTRA.REPUL>
0.0549714

>  <SCORE.INTRA.REPUL.0>
0

>  <SCORE.INTRA.SOLV>
0.265246

>  <SCORE.INTRA.SOLV.lig_0>
-64.052

>  <SCORE.INTRA.VDW>
4.64863

>  <SCORE.INTRA.VDW.0>
-7.0667

>  <SCORE.INTRA.norm>
-0.0104326

>  <SCORE.RESTR>
0

>  <SCORE.RESTR.CAVITY>
0

>  <SCORE.RESTR.norm>
0

>  <SCORE.SYSTEM>
0

>  <SCORE.SYSTEM.CONST>
0

>  <SCORE.SYSTEM.DIHEDRAL>
0

>  <SCORE.SYSTEM.SOLV>
0

>  <SCORE.SYSTEM.norm>
0

>  <SCORE.heavy>
42

>  <SCORE.norm>
-1.34964

>  <RMSD>
5.975

$$$$
1fyp_lig
 OpenBabel11021811393D
libRbt.so/2013.1/901 2013/11/27
 42 45  0  0  0  0  0  0  0  0999 V2000
    2.3144    5.8074   27.1108 C   0  0  2  0  0  0  0  0  0  0  0  0
    1.5416    4.7587   26.4586 O   0  0  0  0  0  0  0  0  0  0  0  0
    1.0189    2.3670   29.9582 C   0  0  2  0  0  0  0  0  0  0  0  0
    0.5306    1.4758   31.0269 N   0  0  0  0  0  0  0  0  0  0  0  0
    0.5096    1.4553   25.6119 C   0  0  1  0  0  0  0  0  0  0  0  0
   -2.4027   -0.8112   23.1276 C   0  0  1  0  0  0  0  0  0  0  0  0
    2.7414    6.9179   26.0977 C   0  0  2  0  0  0  0  0  0  0  0  0
    1.5845    7.4043   25.3161 N   0  0  0  0  0  0  0  0  0  0  0  0
   -0.0042    3.4965   29.7250 C   0  0  0  0  0  0  0  0  0  0  0  0
    0.6622    0.1710   24.7927 C   0  0  2  0  0  0  0  0  0  0  0  0
    0.9607    0.5030   23.4362 O   0  0  0  0  0  0  0  0  0  0  0  0
   -3.4724   -0.0773   22.2626 C   0  0  2  0  0  0  0  0  0  0  0  0
   -4.2814    0.8852   23.0496 N   0  0  0  0  0  0  0  0  0  0  0  0
    3.8606    6.3983   25.1420 C   0  0  1  0  0  0  0  0  0  0  0  0
    4.3500    7.4646   24.3325 O   0  0  0  0  0  0  0  0  0  0  0  0
    0.4597    4.4922   28.6270 C   0  0  2  0  0  0  0  0  0  0  0  0
   -0.6213    5.4798   28.4273 N   0  0  0  0  0  0  0  0  0  0  0  0
   -0.7318   -0.4494   24.9195 C   0  0  2  0  0  0  0  0  0  0  0  0
   -1.6657    0.1210   23.9609 O   0  0  0  0  0  0  0  0  0  0  0  0
   -4.3795   -1.1017   21.5137 C   0  0  1  0  0  0  0  0  0  0  0  0
   -3.6252   -1.6852   20.4535 O   0  0  0  0  0  0  0  0  0  0  0  0
    5.0500    5.7886   25.9254 C   0  0  2  0  0  0  0  0  0  0  0  0
    5.9898    5.2510   24.9998 O   0  0  0  0  0  0  0  0  0  0  0  0
    0.8423    3.7799   27.2799 C   0  0  2  0  0  0  0  0  0  0  0  0
   -1.1264   -0.0643   26.3522 C   0  0  2  0  0  0  0  0  0  0  0  0
   -0.4928    1.2038   26.6098 O   0  0  0  0  0  0  0  0  0  0  0  0
   -4.9215   -2.2510   22.4167 C   0  0  2  0  0  0  0  0  0  0  0  0
   -5.9347   -1.7180   23.2711 O   0  0  0  0  0  0  0  0  0  0  0  0
    4.5470    4.6846   26.8982 C   0  0  2  0  0  0  0  0  0  0  0  0
    3.5048    5.2408   27.7551 O   0  0  0  0  0  0  0  0  0  0  0  0
    1.7646    2.5251   27.4921 C   0  0  2  0  0  0  0  0  0  0  0  0
    1.7779    1.7609   26.2583 O   0  0  0  0  0  0  0  0  0  0  0  0
   -0.6814   -1.1005   27.3995 C   0  0  0  0  0  0  0  0  0  0  0  0
   -1.5328   -2.2330   27.3829 O   0  0  0  0  0  0  0  0  0  0  0  0
   -3.7725   -2.8754   23.2678 C   0  0  1  0  0  0  0  0  0  0  0  0
   -3.0550   -1.8177   23.9743 O   0  0  0  0  0  0  0  0  0  0  0  0
    5.6288    4.1052   27.8370 C   0  0  0  0  0  0  0  0  0  0  0  0
    5.1295    3.0077   28.5825 O   0  0  0  0  0  0  0  0  0  0  0  0
    1.2695    1.5932   28.6415 C   0  0  1  0  0  0  0  0  0  0  0  0
    2.2527    0.5851   28.8709 O   0  0  0  0  0  0  0  0  0  0  0  0
   -4.2875   -3.9125   24.2984 C   0  0  0  0  0  0  0  0  0  0  0  0
   -5.4147   -3.3998   25.0982 N   0  0  0  0  0  0  0  0  0  0  0  0
  1  2  1  6  0  0  0
  1  7  1  0  0  0  0
  1 30  1  0  0  0  0
  3  4  1  1  0  0  0
  3  9  1  0  0  0  0
  3 39  1  0  0  0  0
  5 10  1  0  0  0  0
  5 26  1  0  0  0  0
  5 32  1  1  0  0  0
  6 12  1  0  0  0  0
  6 36  1  0  0  0  0
  6 19  1  1  0  0  0
  7  8  1  6  0  0  0
  7 14  1  0  0  0  0
  9 16  1  0  0  0  0
 10 11  1  6  0  0  0
 10 18  1  0  0  0  0
 12 13  1  1  0  0  0
 12 20  1  0  0  0  0
 14 15  1  1  0  0  0
 14 22  1  0  0  0  0
 16 17  1  6  0  0  0
 16 24  1  0  0  0  0
 18 19  1  6  0  0  0
 18 25  1  0  0  0  0
 20 21  1  6  0  0  0
 20 27  1  0  0  0  0
 22 23  1  6  0  0  0
 22 29  1  0  0  0  0
 24  2  1  6  0  0  0
 24 31  1  0  0  0  0
 25 26  1  0  0  0  0
 25 33  1  1  0  0  0
 27 28  1  1  0  0  0
 27 35  1  0  0  0  0
 29 30  1  0  0  0  0
 29 37  1  1  0  0  0
 31 32  1  6  0  0  0
 31 39  1  0  0  0  0
 33 34  1  0  0  0  0
 35 36  1  0  0  0  0
 35 41  1  1  0  0  0
 37 38  1  0  0  0  0
 39 40  1  1  0  0  0
 41 42  1  0  0  0  0
M  END
>  <CHROM.1>
-168.27995948,29.76714726,-58.64074630,52.78763875,63.83056095,177.27300944
-174.45041767,-171.53442588,127.76276001,173.80636585,-92.44256652,-64.72723417
-76.77332536,66.27918085,-173.42736247,-48.47425788,-153.28951863,163.55497173
-49.50351113,64.08758580,177.84579035,-152.18951234,0.13614853,1.77809663
25.84197548,-0.05229724,-0.81582992,-1.16996030

>  <Name>
1fyp_lig

>  <RI>
0

>  <Rbt.Current_Directory>
/home/itssahil/PROJECTS/Mol_Feturizer/New_Systems/rnas/1fyp

>  <Rbt.Executable>
rbdock ($Id: //depot/dev/client3/rdock/2013.1/src/exe/rbdock.cxx#4 $)

>  <Rbt.Library>
libRbt.so (2013.1, Build901 2013/11/27)

>  <Rbt.Parameter_File>
/export/apps/rDock/src/rDock_2013.1_src/data/scripts/dock_solv.prm

>  <Rbt.Receptor>
prm/pocket_docking_5.prm

>  <SCORE>
-36.5656

>  <SCORE.INTER>
-33.3851

>  <SCORE.INTER.CONST>
1

>  <SCORE.INTER.POLAR>
-4.62044

>  <SCORE.INTER.ROT>
14

>  <SCORE.INTER.SOLV>
21.0361

>  <SCORE.INTER.VDW>
-26.8007

>  <SCORE.INTER.norm>
-0.794884

>  <SCORE.INTRA>
-3.62699

>  <SCORE.INTRA.DIHEDRAL>
-24.5586

>  <SCORE.INTRA.DIHEDRAL.0>
48.7173

>  <SCORE.INTRA.POLAR>
1.46554

>  <SCORE.INTRA.POLAR.0>
-1.54691

>  <SCORE.INTRA.REPUL>
0.23646

>  <SCORE.INTRA.REPUL.0>
0

>  <SCORE.INTRA.SOLV>
-1.73818

>  <SCORE.INTRA.SOLV.lig_0>
-64.052

>  <SCORE.INTRA.VDW>
3.35628

>  <SCORE.INTRA.VDW.0>
-7.0667

>  <SCORE.INTRA.norm>
-0.0863568

>  <SCORE.RESTR>
0.446534

>  <SCORE.RESTR.CAVITY>
0.446534

>  <SCORE.RESTR.norm>
0.0106318

>  <SCORE.SYSTEM>
0

>  <SCORE.SYSTEM.CONST>
0

>  <SCORE.SYSTEM.DIHEDRAL>
0

>  <SCORE.SYSTEM.SOLV>
0

>  <SCORE.SYSTEM.norm>
0

>  <SCORE.heavy>
42

>  <SCORE.norm>
-0.870609

>  <RMSD>
5.980

$$$$
1fyp_lig
 OpenBabel11021811393D
libRbt.so/2013.1/901 2013/11/27
 42 45  0  0  0  0  0  0  0  0999 V2000
    4.1900    5.2006   27.9501 C   0  0  2  0  0  0  0  0  0  0  0  0
    3.9471    5.4550   29.3638 O   0  0  0  0  0  0  0  0  0  0  0  0
    3.0872    2.2704   32.0767 C   0  0  2  0  0  0  0  0  0  0  0  0
    2.4670    1.2845   32.9811 N   0  0  0  0  0  0  0  0  0  0  0  0
    1.3638    2.3274   28.2407 C   0  0  1  0  0  0  0  0  0  0  0  0
   -2.8184    1.5005   26.9437 C   0  0  1  0  0  0  0  0  0  0  0  0
    5.4888    5.9147   27.4549 C   0  0  2  0  0  0  0  0  0  0  0  0
    6.6357    5.6146   28.3382 N   0  0  0  0  0  0  0  0  0  0  0  0
    2.6965    3.6933   32.5236 C   0  0  0  0  0  0  0  0  0  0  0  0
    0.4503    3.2630   27.4444 C   0  0  2  0  0  0  0  0  0  0  0  0
   -0.2794    4.0976   28.3447 O   0  0  0  0  0  0  0  0  0  0  0  0
   -3.5667    0.3659   27.7078 C   0  0  2  0  0  0  0  0  0  0  0  0
   -2.6784   -0.7690   28.0589 N   0  0  0  0  0  0  0  0  0  0  0  0
    5.2717    7.4571   27.3546 C   0  0  1  0  0  0  0  0  0  0  0  0
    6.4066    8.0753   26.7533 O   0  0  0  0  0  0  0  0  0  0  0  0
    3.3393    4.7878   31.6285 C   0  0  2  0  0  0  0  0  0  0  0  0
    2.8388    6.0995   32.0896 N   0  0  0  0  0  0  0  0  0  0  0  0
   -0.4736    2.2698   26.7343 C   0  0  2  0  0  0  0  0  0  0  0  0
   -1.5656    1.8390   27.5937 O   0  0  0  0  0  0  0  0  0  0  0  0
   -4.8132   -0.1170   26.9040 C   0  0  1  0  0  0  0  0  0  0  0  0
   -5.8233    0.8861   26.9878 O   0  0  0  0  0  0  0  0  0  0  0  0
    4.0171    7.8091   26.5164 C   0  0  2  0  0  0  0  0  0  0  0  0
    3.8222    9.2198   26.5411 O   0  0  0  0  0  0  0  0  0  0  0  0
    3.0538    4.5701   30.0990 C   0  0  2  0  0  0  0  0  0  0  0  0
    0.4761    1.1000   26.4410 C   0  0  2  0  0  0  0  0  0  0  0  0
    1.4337    1.0881   27.5175 O   0  0  0  0  0  0  0  0  0  0  0  0
   -4.5289   -0.3982   25.3973 C   0  0  2  0  0  0  0  0  0  0  0  0
   -3.7795   -1.6100   25.2950 O   0  0  0  0  0  0  0  0  0  0  0  0
    2.7677    7.0739   27.0792 C   0  0  2  0  0  0  0  0  0  0  0  0
    3.0448    5.6426   27.1462 O   0  0  0  0  0  0  0  0  0  0  0  0
    3.2945    3.0873   29.6369 C   0  0  2  0  0  0  0  0  0  0  0  0
    2.6913    2.9190   28.3276 O   0  0  0  0  0  0  0  0  0  0  0  0
    1.2007    1.2356   25.0900 C   0  0  0  0  0  0  0  0  0  0  0  0
    0.3329    1.7640   24.1023 O   0  0  0  0  0  0  0  0  0  0  0  0
   -3.7363    0.7815   24.7535 C   0  0  1  0  0  0  0  0  0  0  0  0
   -2.5571    1.0791   25.5619 O   0  0  0  0  0  0  0  0  0  0  0  0
    1.4842    7.2367   26.2347 C   0  0  0  0  0  0  0  0  0  0  0  0
    1.7679    7.1658   24.8476 O   0  0  0  0  0  0  0  0  0  0  0  0
    2.6658    2.0382   30.6057 C   0  0  1  0  0  0  0  0  0  0  0  0
    3.0789    0.7339   30.2009 O   0  0  0  0  0  0  0  0  0  0  0  0
   -3.2898    0.4793   23.3001 C   0  0  0  0  0  0  0  0  0  0  0  0
   -4.4309    0.2306   22.4005 N   0  0  0  0  0  0  0  0  0  0  0  0
  1  2  1  1  0  0  0
  1  7  1  0  0  0  0
  1 30  1  0  0  0  0
  3  4  1  1  0  0  0
  3  9  1  0  0  0  0
  3 39  1  0  0  0  0
  5 10  1  0  0  0  0
  5 26  1  0  0  0  0
  5 32  1  6  0  0  0
  6 12  1  0  0  0  0
  6 36  1  0  0  0  0
  6 19  1  1  0  0  0
  7  8  1  1  0  0  0
  7 14  1  0  0  0  0
  9 16  1  0  0  0  0
 10 11  1  1  0  0  0
 10 18  1  0  0  0  0
 12 13  1  6  0  0  0
 12 20  1  0  0  0  0
 14 15  1  6  0  0  0
 14 22  1  0  0  0  0
 16 17  1  1  0  0  0
 16 24  1  0  0  0  0
 18 19  1  1  0  0  0
 18 25  1  0  0  0  0
 20 21  1  6  0  0  0
 20 27  1  0  0  0  0
 22 23  1  1  0  0  0
 22 29  1  0  0  0  0
 24  2  1  6  0  0  0
 24 31  1  0  0  0  0
 25 26  1  0  0  0  0
 25 33  1  6  0  0  0
 27 28  1  1  0  0  0
 27 35  1  0  0  0  0
 29 30  1  0  0  0  0
 29 37  1  6  0  0  0
 31 32  1  6  0  0  0
 31 39  1  0  0  0  0
 33 34  1  0  0  0  0
 35 36  1  0  0  0  0
 35 41  1  6  0  0  0
 37 38  1  0  0  0  0
 39 40  1  6  0  0  0
 41 42  1  0  0  0  0
M  END
>  <CHROM.1>
-161.07522176,162.20094768,109.96328425,-28.87884298,176.80693760,-164.63917175
60.68117962,119.46818937,149.28438834,147.48402389,-168.04067700,60.84808691
-38.83321524,-76.34081093,40.41784402,-97.71644257,126.18107852,-148.74223845
60.76799006,-157.75646431,176.66965608,68.78642453,0.91904563,3.21231071
27.59460151,0.06932983,-0.69953948,-0.99753586

>  <Name>
1fyp_lig

>  <RI>
0

>  <Rbt.Current_Directory>
/home/itssahil/PROJECTS/Mol_Feturizer/New_Systems/rnas/1fyp

>  <Rbt.Executable>
rbdock ($Id: //depot/dev/client3/rdock/2013.1/src/exe/rbdock.cxx#4 $)

>  <Rbt.Library>
libRbt.so (2013.1, Build901 2013/11/27)

>  <Rbt.Parameter_File>
/export/apps/rDock/src/rDock_2013.1_src/data/scripts/dock_solv.prm

>  <Rbt.Receptor>
prm/pocket_docking_5.prm

>  <SCORE>
-46.2161

>  <SCORE.INTER>
-50.8452

>  <SCORE.INTER.CONST>
1

>  <SCORE.INTER.POLAR>
-6.41949

>  <SCORE.INTER.ROT>
14

>  <SCORE.INTER.SOLV>
21.3237

>  <SCORE.INTER.VDW>
-32.5398

>  <SCORE.INTER.norm>
-1.2106

>  <SCORE.INTRA>
3.48406

>  <SCORE.INTRA.DIHEDRAL>
-8.52777

>  <SCORE.INTRA.DIHEDRAL.0>
48.7173

>  <SCORE.INTRA.POLAR>
0.818542

>  <SCORE.INTRA.POLAR.0>
-1.54691

>  <SCORE.INTRA.REPUL>
0.0601724

>  <SCORE.INTRA.REPUL.0>
0

>  <SCORE.INTRA.SOLV>
-1.45009

>  <SCORE.INTRA.SOLV.lig_0>
-64.052

>  <SCORE.INTRA.VDW>
5.38909

>  <SCORE.INTRA.VDW.0>
-7.0667

>  <SCORE.INTRA.norm>
0.0829538

>  <SCORE.RESTR>
1.1451

>  <SCORE.RESTR.CAVITY>
1.1451

>  <SCORE.RESTR.norm>
0.0272642

>  <SCORE.SYSTEM>
0

>  <SCORE.SYSTEM.CONST>
0

>  <SCORE.SYSTEM.DIHEDRAL>
0

>  <SCORE.SYSTEM.SOLV>
0

>  <SCORE.SYSTEM.norm>
0

>  <SCORE.heavy>
42

>  <SCORE.norm>
-1.10038

>  <RMSD>
6.032

$$$$
1fyp_lig
 OpenBabel11021811393D
libRbt.so/2013.1/901 2013/11/27
 42 45  0  0  0  0  0  0  0  0999 V2000
    2.3326    6.1913   25.6322 C   0  0  2  0  0  0  0  0  0  0  0  0
    3.1201    5.1107   26.2104 O   0  0  0  0  0  0  0  0  0  0  0  0
    3.2465    2.1173   29.2542 C   0  0  2  0  0  0  0  0  0  0  0  0
    2.9767    1.2044   30.3804 N   0  0  0  0  0  0  0  0  0  0  0  0
    0.5840    1.5047   26.0768 C   0  0  1  0  0  0  0  0  0  0  0  0
   -3.3839   -0.3506   25.8379 C   0  0  1  0  0  0  0  0  0  0  0  0
    2.6403    6.3732   24.1109 C   0  0  2  0  0  0  0  0  0  0  0  0
    2.5432    5.0879   23.3867 N   0  0  0  0  0  0  0  0  0  0  0  0
    3.0454    3.5745   29.7156 C   0  0  0  0  0  0  0  0  0  0  0  0
   -0.7056    1.8527   25.3287 C   0  0  2  0  0  0  0  0  0  0  0  0
   -1.6081    2.5145   26.2158 O   0  0  0  0  0  0  0  0  0  0  0  0
   -4.0193   -1.1234   27.0338 C   0  0  2  0  0  0  0  0  0  0  0  0
   -3.2400   -2.3265   27.4155 N   0  0  0  0  0  0  0  0  0  0  0  0
    4.0507    7.0079   23.9008 C   0  0  1  0  0  0  0  0  0  0  0  0
    4.2520    7.3136   22.5232 O   0  0  0  0  0  0  0  0  0  0  0  0
    3.3402    4.5957   28.5831 C   0  0  2  0  0  0  0  0  0  0  0  0
    3.0407    5.9459   29.1034 N   0  0  0  0  0  0  0  0  0  0  0  0
   -1.2257    0.4664   24.9387 C   0  0  2  0  0  0  0  0  0  0  0  0
   -1.9574   -0.1617   26.0280 O   0  0  0  0  0  0  0  0  0  0  0  0
   -5.5075   -1.4825   26.7355 C   0  0  1  0  0  0  0  0  0  0  0  0
   -6.2878   -0.2922   26.8241 O   0  0  0  0  0  0  0  0  0  0  0  0
    4.2260    8.3081   24.7247 C   0  0  2  0  0  0  0  0  0  0  0  0
    5.5585    8.7847   24.5635 O   0  0  0  0  0  0  0  0  0  0  0  0
    2.5358    4.2963   27.2672 C   0  0  2  0  0  0  0  0  0  0  0  0
    0.0752   -0.2964   24.6518 C   0  0  2  0  0  0  0  0  0  0  0  0
    1.0659    0.2646   25.5348 O   0  0  0  0  0  0  0  0  0  0  0  0
   -5.7401   -2.1147   25.3297 C   0  0  2  0  0  0  0  0  0  0  0  0
   -5.2411   -3.4531   25.3453 O   0  0  0  0  0  0  0  0  0  0  0  0
    3.9174    8.0424   26.2255 C   0  0  2  0  0  0  0  0  0  0  0  0
    2.5893    7.4491   26.3430 O   0  0  0  0  0  0  0  0  0  0  0  0
    2.5907    2.7826   26.8478 C   0  0  2  0  0  0  0  0  0  0  0  0
    1.5661    2.5544   25.8456 O   0  0  0  0  0  0  0  0  0  0  0  0
    0.5380   -0.1707   23.1894 C   0  0  0  0  0  0  0  0  0  0  0  0
   -0.3678   -0.8211   22.3153 O   0  0  0  0  0  0  0  0  0  0  0  0
   -5.0199   -1.2839   24.2227 C   0  0  1  0  0  0  0  0  0  0  0  0
   -3.6203   -1.0868   24.5900 O   0  0  0  0  0  0  0  0  0  0  0  0
    3.9200    9.3015   27.1210 C   0  0  0  0  0  0  0  0  0  0  0  0
    3.5811   10.4613   26.3798 O   0  0  0  0  0  0  0  0  0  0  0  0
    2.3351    1.8106   28.0414 C   0  0  1  0  0  0  0  0  0  0  0  0
    2.5727    0.4736   27.6037 O   0  0  0  0  0  0  0  0  0  0  0  0
   -5.0866   -1.9598   22.8292 C   0  0  0  0  0  0  0  0  0  0  0  0
   -5.0988   -0.9799   21.7280 N   0  0  0  0  0  0  0  0  0  0  0  0
  1  2  1  1  0  0  0
  1  7  1  0  0  0  0
  1 30  1  0  0  0  0
  3  4  1  1  0  0  0
  3  9  1  0  0  0  0
  3 39  1  0  0  0  0
  5 10  1  0  0  0  0
  5 26  1  0  0  0  0
  5 32  1  6  0  0  0
  6 12  1  0  0  0  0
  6 36  1  0  0  0  0
  6 19  1  1  0  0  0
  7  8  1  6  0  0  0
  7 14  1  0  0  0  0
  9 16  1  0  0  0  0
 10 11  1  1  0  0  0
 10 18  1  0  0  0  0
 12 13  1  6  0  0  0
 12 20  1  0  0  0  0
 14 15  1  6  0  0  0
 14 22  1  0  0  0  0
 16 17  1  1  0  0  0
 16 24  1  0  0  0  0
 18 19  1  1  0  0  0
 18 25  1  0  0  0  0
 20 21  1  6  0  0  0
 20 27  1  0  0  0  0
 22 23  1  1  0  0  0
 22 29  1  0  0  0  0
 24  2  1  6  0  0  0
 24 31  1  0  0  0  0
 25 26  1  0  0  0  0
 25 33  1  6  0  0  0
 27 28  1  1  0  0  0
 27 35  1  0  0  0  0
 29 30  1  0  0  0  0
 29 37  1  1  0  0  0
 31 32  1  6  0  0  0
 31 39  1  0  0  0  0
 33 34  1  0  0  0  0
 35 36  1  0  0  0  0
 35 41  1  6  0  0  0
 37 38  1  0  0  0  0
 39 40  1  6  0  0  0
 41 42  1  0  0  0  0
M  END
>  <CHROM.1>
-145.77146766,-112.84365574,160.75968789,50.34477361,-54.88438438,143.07174697
53.96582996,86.51759340,112.51569937,175.90050323,-58.87869692,85.50470223
-66.84419539,-174.16206781,27.58031203,-125.07264118,153.11908496,151.90559380
149.25157572,31.62575127,-65.65082529,-119.15419389,0.33223535,2.56298319
25.82647221,0.32336542,-0.78152059,-1.02261627

>  <Name>
1fyp_lig

>  <RI>
0

>  <Rbt.Current_Directory>
/home/itssahil/PROJECTS/Mol_Feturizer/New_Systems/rnas/1fyp

>  <Rbt.Executable>
rbdock ($Id: //depot/dev/client3/rdock/2013.1/src/exe/rbdock.cxx#4 $)

>  <Rbt.Library>
libRbt.so (2013.1, Build901 2013/11/27)

>  <Rbt.Parameter_File>
/export/apps/rDock/src/rDock_2013.1_src/data/scripts/dock_solv.prm

>  <Rbt.Receptor>
prm/blind_docking_60.prm

>  <SCORE>
2.23368

>  <SCORE.INTER>
-7.44601

>  <SCORE.INTER.CONST>
1

>  <SCORE.INTER.POLAR>
-6.31084

>  <SCORE.INTER.ROT>
14

>  <SCORE.INTER.SOLV>
25.4107

>  <SCORE.INTER.VDW>
-5.33144

>  <SCORE.INTER.norm>
-0.177286

>  <SCORE.INTRA>
8.87799

>  <SCORE.INTRA.DIHEDRAL>
1.56971

>  <SCORE.INTRA.DIHEDRAL.0>
48.7173

>  <SCORE.INTRA.POLAR>
0.638078

>  <SCORE.INTRA.POLAR.0>
-1.54691

>  <SCORE.INTRA.REPUL>
0.0837838

>  <SCORE.INTRA.REPUL.0>
0

>  <SCORE.INTRA.SOLV>
-2.42026

>  <SCORE.INTRA.SOLV.lig_0>
-64.052

>  <SCORE.INTRA.VDW>
6.71489

>  <SCORE.INTRA.VDW.0>
-7.0667

>  <SCORE.INTRA.norm>
0.211381

>  <SCORE.RESTR>
0.801699

>  <SCORE.RESTR.CAVITY>
0.801699

>  <SCORE.RESTR.norm>
0.0190881

>  <SCORE.SYSTEM>
0

>  <SCORE.SYSTEM.CONST>
0

>  <SCORE.SYSTEM.DIHEDRAL>
0

>  <SCORE.SYSTEM.SOLV>
0

>  <SCORE.SYSTEM.norm>
0

>  <SCORE.heavy>
42

>  <SCORE.norm>
0.053183

>  <RMSD>
6.054

$$$$
1fyp_lig
 OpenBabel11021811393D
libRbt.so/2013.1/901 2013/11/27
 42 45  0  0  0  0  0  0  0  0999 V2000
    3.4297    5.4331   27.7139 C   0  0  2  0  0  0  0  0  0  0  0  0
    2.0771    4.9187   27.8823 O   0  0  0  0  0  0  0  0  0  0  0  0
    1.9941    2.8042   31.5921 C   0  0  2  0  0  0  0  0  0  0  0  0
    1.7584    2.3318   32.9689 N   0  0  0  0  0  0  0  0  0  0  0  0
   -0.6153    2.3597   27.5156 C   0  0  1  0  0  0  0  0  0  0  0  0
   -1.1491   -1.2768   25.0772 C   0  0  1  0  0  0  0  0  0  0  0  0
    3.6592    5.9772   26.2670 C   0  0  2  0  0  0  0  0  0  0  0  0
    2.5908    6.9200   25.8729 N   0  0  0  0  0  0  0  0  0  0  0  0
    2.5012    4.2596   31.6289 C   0  0  0  0  0  0  0  0  0  0  0  0
    0.1728    1.0685   27.7516 C   0  0  2  0  0  0  0  0  0  0  0  0
    1.4086    1.1266   27.0383 O   0  0  0  0  0  0  0  0  0  0  0  0
   -0.4747   -1.5374   23.6957 C   0  0  2  0  0  0  0  0  0  0  0  0
   -0.4041   -0.3173   22.8550 N   0  0  0  0  0  0  0  0  0  0  0  0
    3.7529    4.8052   25.2405 C   0  0  1  0  0  0  0  0  0  0  0  0
    4.1193    5.3042   23.9566 O   0  0  0  0  0  0  0  0  0  0  0  0
    2.7973    4.8150   30.2090 C   0  0  2  0  0  0  0  0  0  0  0  0
    3.1961    6.2307   30.3521 N   0  0  0  0  0  0  0  0  0  0  0  0
   -0.7647    0.0153   27.1548 C   0  0  2  0  0  0  0  0  0  0  0  0
   -0.6131   -0.0864   25.7115 O   0  0  0  0  0  0  0  0  0  0  0  0
   -1.1837   -2.7050   22.9427 C   0  0  1  0  0  0  0  0  0  0  0  0
   -0.8319   -3.9331   23.5764 O   0  0  0  0  0  0  0  0  0  0  0  0
    4.7950    3.7431   25.6721 C   0  0  2  0  0  0  0  0  0  0  0  0
    4.7657    2.6602   24.7473 O   0  0  0  0  0  0  0  0  0  0  0  0
    1.5813    4.6578   29.2267 C   0  0  2  0  0  0  0  0  0  0  0  0
   -2.1481    0.5754   27.5140 C   0  0  2  0  0  0  0  0  0  0  0  0
   -2.0085    2.0093   27.5076 O   0  0  0  0  0  0  0  0  0  0  0  0
   -2.7386   -2.5960   22.9194 C   0  0  2  0  0  0  0  0  0  0  0  0
   -3.1075   -1.5574   22.0107 O   0  0  0  0  0  0  0  0  0  0  0  0
    4.4908    3.2416   27.1122 C   0  0  2  0  0  0  0  0  0  0  0  0
    4.4157    4.3882   28.0120 O   0  0  0  0  0  0  0  0  0  0  0  0
    0.9378    3.2247   29.2747 C   0  0  2  0  0  0  0  0  0  0  0  0
   -0.3497    3.2855   28.6074 O   0  0  0  0  0  0  0  0  0  0  0  0
   -2.6534    0.0992   28.8876 C   0  0  0  0  0  0  0  0  0  0  0  0
   -2.6263   -1.3149   28.9732 O   0  0  0  0  0  0  0  0  0  0  0  0
   -3.2936   -2.2873   24.3446 C   0  0  1  0  0  0  0  0  0  0  0  0
   -2.5992   -1.1295   24.9012 O   0  0  0  0  0  0  0  0  0  0  0  0
    5.5499    2.2844   27.7031 C   0  0  0  0  0  0  0  0  0  0  0  0
    6.2909    2.9110   28.7364 O   0  0  0  0  0  0  0  0  0  0  0  0
    0.7129    2.7068   30.7292 C   0  0  1  0  0  0  0  0  0  0  0  0
    0.2897    1.3454   30.6716 O   0  0  0  0  0  0  0  0  0  0  0  0
   -4.8189   -2.0106   24.3454 C   0  0  0  0  0  0  0  0  0  0  0  0
   -5.2863   -1.4353   25.6196 N   0  0  0  0  0  0  0  0  0  0  0  0
  1  2  1  6  0  0  0
  1  7  1  0  0  0  0
  1 30  1  0  0  0  0
  3  4  1  1  0  0  0
  3  9  1  0  0  0  0
  3 39  1  0  0  0  0
  5 10  1  0  0  0  0
  5 26  1  0  0  0  0
  5 32  1  1  0  0  0
  6 12  1  0  0  0  0
  6 36  1  0  0  0  0
  6 19  1  6  0  0  0
  7  8  1  6  0  0  0
  7 14  1  0  0  0  0
  9 16  1  0  0  0  0
 10 11  1  6  0  0  0
 10 18  1  0  0  0  0
 12 13  1  6  0  0  0
 12 20  1  0  0  0  0
 14 15  1  6  0  0  0
 14 22  1  0  0  0  0
 16 17  1  1  0  0  0
 16 24  1  0  0  0  0
 18 19  1  6  0  0  0
 18 25  1  0  0  0  0
 20 21  1  1  0  0  0
 20 27  1  0  0  0  0
 22 23  1  6  0  0  0
 22 29  1  0  0  0  0
 24  2  1  6  0  0  0
 24 31  1  0  0  0  0
 25 26  1  0  0  0  0
 25 33  1  1  0  0  0
 27 28  1  6  0  0  0
 27 35  1  0  0  0  0
 29 30  1  0  0  0  0
 29 37  1  1  0  0  0
 31 32  1  1  0  0  0
 31 39  1  0  0  0  0
 33 34  1  0  0  0  0
 35 36  1  0  0  0  0
 35 41  1  6  0  0  0
 37 38  1  0  0  0  0
 39 40  1  6  0  0  0
 41 42  1  0  0  0  0
M  END
>  <CHROM.1>
-165.97247252,-8.64620654,-136.94521910,96.03713256,-72.71205890,-19.24863371
71.72872040,36.72898216,163.18579143,-158.15849017,-66.57103131,-76.06082657
-53.87127826,56.17423062,109.17471752,125.34770898,29.77667282,169.53759584
-167.42402310,-72.99252305,172.06016018,-89.15317778,0.71110879,1.73474224
26.99266153,-0.63942490,-0.65540581,-1.87848308

>  <Name>
1fyp_lig

>  <RI>
0

>  <Rbt.Current_Directory>
/home/itssahil/PROJECTS/Mol_Feturizer/New_Systems/rnas/1fyp

>  <Rbt.Executable>
rbdock ($Id: //depot/dev/client3/rdock/2013.1/src/exe/rbdock.cxx#4 $)

>  <Rbt.Library>
libRbt.so (2013.1, Build901 2013/11/27)

>  <Rbt.Parameter_File>
/export/apps/rDock/src/rDock_2013.1_src/data/scripts/dock_solv.prm

>  <Rbt.Receptor>
prm/blind_docking_100.prm

>  <SCORE>
-19.2861

>  <SCORE.INTER>
-28.2501

>  <SCORE.INTER.CONST>
1

>  <SCORE.INTER.POLAR>
-3.72249

>  <SCORE.INTER.ROT>
14

>  <SCORE.INTER.SOLV>
18.5056

>  <SCORE.INTER.VDW>
-25.527

>  <SCORE.INTER.norm>
-0.672622

>  <SCORE.INTRA>
8.18012

>  <SCORE.INTRA.DIHEDRAL>
-9.41177

>  <SCORE.INTRA.DIHEDRAL.0>
48.7173

>  <SCORE.INTRA.POLAR>
1.23428

>  <SCORE.INTRA.POLAR.0>
-1.54691

>  <SCORE.INTRA.REPUL>
0

>  <SCORE.INTRA.REPUL.0>
0

>  <SCORE.INTRA.SOLV>
-1.84794

>  <SCORE.INTRA.SOLV.lig_0>
-64.052

>  <SCORE.INTRA.VDW>
9.61344

>  <SCORE.INTRA.VDW.0>
-7.0667

>  <SCORE.INTRA.norm>
0.194765

>  <SCORE.RESTR>
0.783955

>  <SCORE.RESTR.CAVITY>
0.783955

>  <SCORE.RESTR.norm>
0.0186656

>  <SCORE.SYSTEM>
0

>  <SCORE.SYSTEM.CONST>
0

>  <SCORE.SYSTEM.DIHEDRAL>
0

>  <SCORE.SYSTEM.SOLV>
0

>  <SCORE.SYSTEM.norm>
0

>  <SCORE.heavy>
42

>  <SCORE.norm>
-0.459192

>  <RMSD>
6.056

$$$$
1fyp_lig
 OpenBabel11021811393D
libRbt.so/2013.1/901 2013/11/27
 42 45  0  0  0  0  0  0  0  0999 V2000
    3.3822    3.1901   25.9154 C   0  0  2  0  0  0  0  0  0  0  0  0
    2.7946    3.7653   27.1179 O   0  0  0  0  0  0  0  0  0  0  0  0
   -0.7947    3.8229   29.4319 C   0  0  2  0  0  0  0  0  0  0  0  0
   -2.1846    3.8688   29.9224 N   0  0  0  0  0  0  0  0  0  0  0  0
   -0.1260    0.5471   26.9177 C   0  0  1  0  0  0  0  0  0  0  0  0
   -3.4977   -1.3151   24.9489 C   0  0  1  0  0  0  0  0  0  0  0  0
    4.9169    2.9502   26.0866 C   0  0  2  0  0  0  0  0  0  0  0  0
    5.2076    2.2035   27.3290 N   0  0  0  0  0  0  0  0  0  0  0  0
   -0.5326    5.0374   28.5190 C   0  0  0  0  0  0  0  0  0  0  0  0
   -0.9438    1.3528   25.9049 C   0  0  2  0  0  0  0  0  0  0  0  0
   -1.9387    2.1130   26.5918 O   0  0  0  0  0  0  0  0  0  0  0  0
   -3.8098   -2.5514   25.8463 C   0  0  2  0  0  0  0  0  0  0  0  0
   -2.6291   -3.0096   26.6186 N   0  0  0  0  0  0  0  0  0  0  0  0
    5.6961    4.3025   26.0727 C   0  0  1  0  0  0  0  0  0  0  0  0
    7.1008    4.0606   26.0695 O   0  0  0  0  0  0  0  0  0  0  0  0
    0.9259    5.0682   27.9861 C   0  0  2  0  0  0  0  0  0  0  0  0
    1.0457    6.2172   27.0646 N   0  0  0  0  0  0  0  0  0  0  0  0
   -1.5765    0.2439   25.0596 C   0  0  2  0  0  0  0  0  0  0  0  0
   -2.7737   -0.2957   25.6858 O   0  0  0  0  0  0  0  0  0  0  0  0
   -4.4197   -3.7118   25.0010 C   0  0  1  0  0  0  0  0  0  0  0  0
   -5.7597   -3.3661   24.6567 O   0  0  0  0  0  0  0  0  0  0  0  0
    5.3410    5.1595   24.8318 C   0  0  2  0  0  0  0  0  0  0  0  0
    6.0099    6.4134   24.9257 O   0  0  0  0  0  0  0  0  0  0  0  0
    1.3485    3.7259   27.2876 C   0  0  2  0  0  0  0  0  0  0  0  0
   -0.4621   -0.8113   25.0269 C   0  0  2  0  0  0  0  0  0  0  0  0
    0.2355   -0.6892   26.2816 O   0  0  0  0  0  0  0  0  0  0  0  0
   -3.6416   -4.0180   23.6854 C   0  0  2  0  0  0  0  0  0  0  0  0
   -2.4198   -4.6765   24.0232 O   0  0  0  0  0  0  0  0  0  0  0  0
    3.8024    5.3654   24.7398 C   0  0  2  0  0  0  0  0  0  0  0  0
    3.1435    4.0634   24.7606 O   0  0  0  0  0  0  0  0  0  0  0  0
    0.9572    2.4527   28.1218 C   0  0  2  0  0  0  0  0  0  0  0  0
    1.0775    1.2925   27.2581 O   0  0  0  0  0  0  0  0  0  0  0  0
    0.5175   -0.6177   23.8558 C   0  0  0  0  0  0  0  0  0  0  0  0
    0.8873    0.7440   23.7265 O   0  0  0  0  0  0  0  0  0  0  0  0
   -3.3457   -2.7038   22.8982 C   0  0  1  0  0  0  0  0  0  0  0  0
   -2.7077   -1.7343   23.7845 O   0  0  0  0  0  0  0  0  0  0  0  0
    3.3195    6.0849   23.4606 C   0  0  0  0  0  0  0  0  0  0  0  0
    4.1070    7.2312   23.1862 O   0  0  0  0  0  0  0  0  0  0  0  0
   -0.5030    2.5085   28.6687 C   0  0  1  0  0  0  0  0  0  0  0  0
   -0.7072    1.4024   29.5465 O   0  0  0  0  0  0  0  0  0  0  0  0
   -2.4354   -2.9373   21.6653 C   0  0  0  0  0  0  0  0  0  0  0  0
   -2.3808   -1.7635   20.7752 N   0  0  0  0  0  0  0  0  0  0  0  0
  1  2  1  1  0  0  0
  1  7  1  0  0  0  0
  1 30  1  0  0  0  0
  3  4  1  6  0  0  0
  3  9  1  0  0  0  0
  3 39  1  0  0  0  0
  5 10  1  0  0  0  0
  5 26  1  0  0  0  0
  5 32  1  6  0  0  0
  6 12  1  0  0  0  0
  6 36  1  0  0  0  0
  6 19  1  1  0  0  0
  7  8  1  1  0  0  0
  7 14  1  0  0  0  0
  9 16  1  0  0  0  0
 10 11  1  1  0  0  0
 10 18  1  0  0  0  0
 12 13  1  6  0  0  0
 12 20  1  0  0  0  0
 14 15  1  6  0  0  0
 14 22  1  0  0  0  0
 16 17  1  6  0  0  0
 16 24  1  0  0  0  0
 18 19  1  1  0  0  0
 18 25  1  0  0  0  0
 20 21  1  6  0  0  0
 20 27  1  0  0  0  0
 22 23  1  1  0  0  0
 22 29  1  0  0  0  0
 24  2  1  1  0  0  0
 24 31  1  0  0  0  0
 25 26  1  0  0  0  0
 25 33  1  6  0  0  0
 27 28  1  1  0  0  0
 27 35  1  0  0  0  0
 29 30  1  0  0  0  0
 29 37  1  6  0  0  0
 31 32  1  6  0  0  0
 31 39  1  0  0  0  0
 33 34  1  0  0  0  0
 35 36  1  0  0  0  0
 35 41  1  6  0  0  0
 37 38  1  0  0  0  0
 39 40  1  1  0  0  0
 41 42  1  0  0  0  0
M  END
>  <CHROM.1>
-163.58656352,-143.26933274,-147.01155890,58.80827771,-62.85976433,49.57148185
-177.72848595,-90.49583883,177.34337370,130.70738106,-170.49640305,-59.86465380
44.89952465,169.75423978,-46.35599398,-114.60490586,74.03367214,177.89416193
168.32523607,66.31371171,71.24109561,89.37510244,0.31006898,1.46054578,25.73293074
-0.57980520,-0.61244352,-2.21801597

>  <Name>
1fyp_lig

>  <RI>
0

>  <Rbt.Current_Directory>
/home/itssahil/PROJECTS/Mol_Feturizer/New_Systems/rnas/1fyp

>  <Rbt.Executable>
rbdock ($Id: //depot/dev/client3/rdock/2013.1/src/exe/rbdock.cxx#4 $)

>  <Rbt.Library>
libRbt.so (2013.1, Build901 2013/11/27)

>  <Rbt.Parameter_File>
/export/apps/rDock/src/rDock_2013.1_src/data/scripts/dock_solv.prm

>  <Rbt.Receptor>
prm/pocket_docking_7.prm

>  <SCORE>
-35.8456

>  <SCORE.INTER>
-38.9565

>  <SCORE.INTER.CONST>
1

>  <SCORE.INTER.POLAR>
-6.66472

>  <SCORE.INTER.ROT>
14

>  <SCORE.INTER.SOLV>
19.544

>  <SCORE.INTER.VDW>
-23.2033

>  <SCORE.INTER.norm>
-0.927536

>  <SCORE.INTRA>
3.11094

>  <SCORE.INTRA.DIHEDRAL>
-19.5024

>  <SCORE.INTRA.DIHEDRAL.0>
48.7173

>  <SCORE.INTRA.POLAR>
1.33275

>  <SCORE.INTRA.POLAR.0>
-1.54691

>  <SCORE.INTRA.REPUL>
0.103662

>  <SCORE.INTRA.REPUL.0>
0

>  <SCORE.INTRA.SOLV>
0.196316

>  <SCORE.INTRA.SOLV.lig_0>
-64.052

>  <SCORE.INTRA.VDW>
7.71435

>  <SCORE.INTRA.VDW.0>
-7.0667

>  <SCORE.INTRA.norm>
0.07407

>  <SCORE.RESTR>
0

>  <SCORE.RESTR.CAVITY>
0

>  <SCORE.RESTR.norm>
0

>  <SCORE.SYSTEM>
0

>  <SCORE.SYSTEM.CONST>
0

>  <SCORE.SYSTEM.DIHEDRAL>
0

>  <SCORE.SYSTEM.SOLV>
0

>  <SCORE.SYSTEM.norm>
0

>  <SCORE.heavy>
42

>  <SCORE.norm>
-0.853466

>  <RMSD>
6.131

$$$$
1fyp_lig
 OpenBabel11021811393D
libRbt.so/2013.1/901 2013/11/27
 42 45  0  0  0  0  0  0  0  0999 V2000
    3.7127    3.3664   32.1467 C   0  0  2  0  0  0  0  0  0  0  0  0
    3.4945    3.9098   30.8127 O   0  0  0  0  0  0  0  0  0  0  0  0
    5.1402    3.8723   26.8717 C   0  0  2  0  0  0  0  0  0  0  0  0
    5.8212    3.5478   25.6047 N   0  0  0  0  0  0  0  0  0  0  0  0
    0.8626    2.4488   27.9960 C   0  0  1  0  0  0  0  0  0  0  0  0
   -3.1605    1.2539   26.5663 C   0  0  1  0  0  0  0  0  0  0  0  0
    2.4341    2.6502   32.6891 C   0  0  2  0  0  0  0  0  0  0  0  0
    1.9080    1.6768   31.7087 N   0  0  0  0  0  0  0  0  0  0  0  0
    6.1285    3.7039   28.0430 C   0  0  0  0  0  0  0  0  0  0  0  0
    0.0604    1.1532   28.1434 C   0  0  2  0  0  0  0  0  0  0  0  0
    0.2470    0.3418   26.9831 O   0  0  0  0  0  0  0  0  0  0  0  0
   -3.5297    0.1831   27.6378 C   0  0  2  0  0  0  0  0  0  0  0  0
   -2.3765   -0.6709   28.0133 N   0  0  0  0  0  0  0  0  0  0  0  0
    1.3319    3.6894   33.0653 C   0  0  1  0  0  0  0  0  0  0  0  0
    0.2378    3.0362   33.7041 O   0  0  0  0  0  0  0  0  0  0  0  0
    5.4840    4.0567   29.4113 C   0  0  2  0  0  0  0  0  0  0  0  0
    6.4840    3.7853   30.4648 N   0  0  0  0  0  0  0  0  0  0  0  0
   -1.3745    1.6807   28.2282 C   0  0  2  0  0  0  0  0  0  0  0  0
   -1.9312    1.9447   26.9103 O   0  0  0  0  0  0  0  0  0  0  0  0
   -4.7435   -0.6769   27.1687 C   0  0  1  0  0  0  0  0  0  0  0  0
   -5.9242    0.1177   27.2590 O   0  0  0  0  0  0  0  0  0  0  0  0
    1.8742    4.7859   34.0160 C   0  0  2  0  0  0  0  0  0  0  0  0
    0.8512    5.7500   34.2454 O   0  0  0  0  0  0  0  0  0  0  0  0
    4.1464    3.2759   29.6749 C   0  0  2  0  0  0  0  0  0  0  0  0
   -1.1906    2.9897   29.0086 C   0  0  2  0  0  0  0  0  0  0  0  0
    0.1119    3.4873   28.6456 O   0  0  0  0  0  0  0  0  0  0  0  0
   -4.6219   -1.2055   25.7072 C   0  0  2  0  0  0  0  0  0  0  0  0
   -3.6506   -2.2526   25.6823 O   0  0  0  0  0  0  0  0  0  0  0  0
    3.1335    5.4598   33.4009 C   0  0  2  0  0  0  0  0  0  0  0  0
    4.1149    4.4305   33.0735 O   0  0  0  0  0  0  0  0  0  0  0  0
    3.1734    3.2955   28.4408 C   0  0  2  0  0  0  0  0  0  0  0  0
    2.1501    2.2891   28.6567 O   0  0  0  0  0  0  0  0  0  0  0  0
   -1.2785    2.8002   30.5334 C   0  0  0  0  0  0  0  0  0  0  0  0
   -2.3674    1.9609   30.8761 O   0  0  0  0  0  0  0  0  0  0  0  0
   -4.2026   -0.0583   24.7364 C   0  0  1  0  0  0  0  0  0  0  0  0
   -3.0131    0.6122   25.2541 O   0  0  0  0  0  0  0  0  0  0  0  0
    3.8455    6.4712   34.3267 C   0  0  0  0  0  0  0  0  0  0  0  0
    4.3356    5.8407   35.4979 O   0  0  0  0  0  0  0  0  0  0  0  0
    3.8937    2.9819   27.0927 C   0  0  1  0  0  0  0  0  0  0  0  0
    2.9743    3.1897   26.0216 O   0  0  0  0  0  0  0  0  0  0  0  0
   -3.9122   -0.5660   23.3007 C   0  0  0  0  0  0  0  0  0  0  0  0
   -4.1273    0.4761   22.2805 N   0  0  0  0  0  0  0  0  0  0  0  0
  1  2  1  6  0  0  0
  1  7  1  0  0  0  0
  1 30  1  0  0  0  0
  3  4  1  6  0  0  0
  3  9  1  0  0  0  0
  3 39  1  0  0  0  0
  5 10  1  0  0  0  0
  5 26  1  0  0  0  0
  5 32  1  1  0  0  0
  6 12  1  0  0  0  0
  6 36  1  0  0  0  0
  6 19  1  1  0  0  0
  7  8  1  6  0  0  0
  7 14  1  0  0  0  0
  9 16  1  0  0  0  0
 10 11  1  6  0  0  0
 10 18  1  0  0  0  0
 12 13  1  6  0  0  0
 12 20  1  0  0  0  0
 14 15  1  1  0  0  0
 14 22  1  0  0  0  0
 16 17  1  1  0  0  0
 16 24  1  0  0  0  0
 18 19  1  6  0  0  0
 18 25  1  0  0  0  0
 20 21  1  6  0  0  0
 20 27  1  0  0  0  0
 22 23  1  6  0  0  0
 22 29  1  0  0  0  0
 24  2  1  1  0  0  0
 24 31  1  0  0  0  0
 25 26  1  0  0  0  0
 25 33  1  1  0  0  0
 27 28  1  1  0  0  0
 27 35  1  0  0  0  0
 29 30  1  0  0  0  0
 29 37  1  1  0  0  0
 31 32  1  1  0  0  0
 31 39  1  0  0  0  0
 33 34  1  0  0  0  0
 35 36  1  0  0  0  0
 35 41  1  6  0  0  0
 37 38  1  0  0  0  0
 39 40  1  6  0  0  0
 41 42  1  0  0  0  0
M  END
>  <CHROM.1>
-108.63513474,-94.65723276,167.87120586,-43.83939134,-63.99056862,-162.48205402
-176.89645378,136.70353341,122.81597625,-8.41657781,60.67303203,170.78128870
-44.42212025,58.08042515,62.37311130,155.04046367,168.92404606,-58.34189092
153.61995813,60.61529134,169.20739018,-54.29500744,0.60583022,2.39806478
29.05315769,0.76125715,0.32329300,1.27931771

>  <Name>
1fyp_lig

>  <RI>
0

>  <Rbt.Current_Directory>
/home/itssahil/PROJECTS/Mol_Feturizer/New_Systems/rnas/1fyp

>  <Rbt.Executable>
rbdock ($Id: //depot/dev/client3/rdock/2013.1/src/exe/rbdock.cxx#4 $)

>  <Rbt.Library>
libRbt.so (2013.1, Build901 2013/11/27)

>  <Rbt.Parameter_File>
/export/apps/rDock/src/rDock_2013.1_src/data/scripts/dock_solv.prm

>  <Rbt.Receptor>
prm/pocket_docking_8.prm

>  <SCORE>
-35.2636

>  <SCORE.INTER>
-34.3923

>  <SCORE.INTER.CONST>
1

>  <SCORE.INTER.POLAR>
-3.56338

>  <SCORE.INTER.ROT>
14

>  <SCORE.INTER.SOLV>
14.5941

>  <SCORE.INTER.VDW>
-28.8483

>  <SCORE.INTER.norm>
-0.818864

>  <SCORE.INTRA>
-0.871281

>  <SCORE.INTRA.DIHEDRAL>
-12.8839

>  <SCORE.INTRA.DIHEDRAL.0>
48.7173

>  <SCORE.INTRA.POLAR>
0.402372

>  <SCORE.INTRA.POLAR.0>
-1.54691

>  <SCORE.INTRA.REPUL>
0

>  <SCORE.INTRA.REPUL.0>
0

>  <SCORE.INTRA.SOLV>
-0.31375

>  <SCORE.INTRA.SOLV.lig_0>
-64.052

>  <SCORE.INTRA.VDW>
4.35946

>  <SCORE.INTRA.VDW.0>
-7.0667

>  <SCORE.INTRA.norm>
-0.0207448

>  <SCORE.RESTR>
0

>  <SCORE.RESTR.CAVITY>
0

>  <SCORE.RESTR.norm>
0

>  <SCORE.SYSTEM>
0

>  <SCORE.SYSTEM.CONST>
0

>  <SCORE.SYSTEM.DIHEDRAL>
0

>  <SCORE.SYSTEM.SOLV>
0

>  <SCORE.SYSTEM.norm>
0

>  <SCORE.heavy>
42

>  <SCORE.norm>
-0.839609

>  <RMSD>
6.151

$$$$
1fyp_lig
 OpenBabel11021811393D
libRbt.so/2013.1/901 2013/11/27
 42 45  0  0  0  0  0  0  0  0999 V2000
    5.1920    5.0144   24.7788 C   0  0  2  0  0  0  0  0  0  0  0  0
    3.7684    5.1487   25.0573 O   0  0  0  0  0  0  0  0  0  0  0  0
    3.8147    9.4060   24.7193 C   0  0  2  0  0  0  0  0  0  0  0  0
    3.4968   10.8335   24.5304 N   0  0  0  0  0  0  0  0  0  0  0  0
    3.2478    6.0404   28.3337 C   0  0  1  0  0  0  0  0  0  0  0  0
    3.8635    3.3150   31.7891 C   0  0  1  0  0  0  0  0  0  0  0  0
    5.7327    3.6169   25.2226 C   0  0  2  0  0  0  0  0  0  0  0  0
    4.8964    2.5229   24.6846 N   0  0  0  0  0  0  0  0  0  0  0  0
    3.3646    8.6116   23.4770 C   0  0  0  0  0  0  0  0  0  0  0  0
    2.2008    5.7079   29.3999 C   0  0  2  0  0  0  0  0  0  0  0  0
    2.2717    6.6686   30.4542 O   0  0  0  0  0  0  0  0  0  0  0  0
    2.5223    3.0217   32.5282 C   0  0  2  0  0  0  0  0  0  0  0  0
    1.8827    4.2497   33.0605 N   0  0  0  0  0  0  0  0  0  0  0  0
    5.8149    3.5208   26.7782 C   0  0  1  0  0  0  0  0  0  0  0  0
    6.4558    2.3071   27.1627 O   0  0  0  0  0  0  0  0  0  0  0  0
    3.6943    7.0984   23.5957 C   0  0  2  0  0  0  0  0  0  0  0  0
    3.1523    6.4230   22.3983 N   0  0  0  0  0  0  0  0  0  0  0  0
    2.6632    4.3273   29.8738 C   0  0  2  0  0  0  0  0  0  0  0  0
    3.7257    4.4240   30.8629 O   0  0  0  0  0  0  0  0  0  0  0  0
    2.7272    1.9571   33.6497 C   0  0  1  0  0  0  0  0  0  0  0  0
    2.9057    0.6818   33.0371 O   0  0  0  0  0  0  0  0  0  0  0  0
    6.6017    4.7080   27.3881 C   0  0  2  0  0  0  0  0  0  0  0  0
    6.5607    4.6122   28.8086 O   0  0  0  0  0  0  0  0  0  0  0  0
    3.1401    6.4553   24.9176 C   0  0  2  0  0  0  0  0  0  0  0  0
    3.1903    3.7012   28.5750 C   0  0  2  0  0  0  0  0  0  0  0  0
    3.7110    4.7930   27.7923 O   0  0  0  0  0  0  0  0  0  0  0  0
    3.9541    2.2316   34.5712 C   0  0  2  0  0  0  0  0  0  0  0  0
    3.6398    3.3278   35.4315 O   0  0  0  0  0  0  0  0  0  0  0  0
    5.9956    6.0589   26.9128 C   0  0  2  0  0  0  0  0  0  0  0  0
    5.9483    6.0750   25.4542 O   0  0  0  0  0  0  0  0  0  0  0  0
    3.4477    7.3194   26.1939 C   0  0  2  0  0  0  0  0  0  0  0  0
    2.6217    6.8282   27.2815 O   0  0  0  0  0  0  0  0  0  0  0  0
    2.1040    2.9527   27.7823 C   0  0  0  0  0  0  0  0  0  0  0  0
    1.7405    1.7493   28.4360 O   0  0  0  0  0  0  0  0  0  0  0  0
    5.2220    2.5588   33.7228 C   0  0  1  0  0  0  0  0  0  0  0  0
    4.9133    3.6205   32.7689 O   0  0  0  0  0  0  0  0  0  0  0  0
    6.7887    7.3129   27.3434 C   0  0  0  0  0  0  0  0  0  0  0  0
    6.0399    8.4963   27.1238 O   0  0  0  0  0  0  0  0  0  0  0  0
    3.1411    8.8358   25.9907 C   0  0  1  0  0  0  0  0  0  0  0  0
    3.6083    9.5555   27.1307 O   0  0  0  0  0  0  0  0  0  0  0  0
    6.4277    2.9962   34.5935 C   0  0  0  0  0  0  0  0  0  0  0  0
    6.9166    1.9116   35.4640 N   0  0  0  0  0  0  0  0  0  0  0  0
  1  2  1  1  0  0  0
  1  7  1  0  0  0  0
  1 30  1  0  0  0  0
  3  4  1  6  0  0  0
  3  9  1  0  0  0  0
  3 39  1  0  0  0  0
  5 10  1  0  0  0  0
  5 26  1  0  0  0  0
  5 32  1  6  0  0  0
  6 12  1  0  0  0  0
  6 36  1  0  0  0  0
  6 19  1  6  0  0  0
  7  8  1  1  0  0  0
  7 14  1  0  0  0  0
  9 16  1  0  0  0  0
 10 11  1  1  0  0  0
 10 18  1  0  0  0  0
 12 13  1  1  0  0  0
 12 20  1  0  0  0  0
 14 15  1  6  0  0  0
 14 22  1  0  0  0  0
 16 17  1  6  0  0  0
 16 24  1  0  0  0  0
 18 19  1  1  0  0  0
 18 25  1  0  0  0  0
 20 21  1  6  0  0  0
 20 27  1  0  0  0  0
 22 23  1  1  0  0  0
 22 29  1  0  0  0  0
 24  2  1  1  0  0  0
 24 31  1  0  0  0  0
 25 26  1  0  0  0  0
 25 33  1  6  0  0  0
 27 28  1  1  0  0  0
 27 35  1  0  0  0  0
 29 30  1  0  0  0  0
 29 37  1  6  0  0  0
 31 32  1  1  0  0  0
 31 39  1  0  0  0  0
 33 34  1  0  0  0  0
 35 36  1  0  0  0  0
 35 41  1  1  0  0  0
 37 38  1  0  0  0  0
 39 40  1  1  0  0  0
 41 42  1  0  0  0  0
M  END
>  <CHROM.1>
169.91212005,42.90525183,-153.43090933,-158.60546414,168.71166013,66.67948569
61.00294834,-54.39342410,154.45746286,-54.40712041,-71.72133721,-63.66997757
-71.57633611,65.81507850,-167.62898812,105.60247873,176.78472429,62.19604865
65.52162960,-59.79254717,-51.64906655,-77.22154199,4.11965022,5.01784941
28.58569920,-1.56651053,-1.21781002,2.07518333

>  <Name>
1fyp_lig

>  <RI>
0

>  <Rbt.Current_Directory>
/home/itssahil/PROJECTS/Mol_Feturizer/New_Systems/rnas/1fyp

>  <Rbt.Executable>
rbdock ($Id: //depot/dev/client3/rdock/2013.1/src/exe/rbdock.cxx#4 $)

>  <Rbt.Library>
libRbt.so (2013.1, Build901 2013/11/27)

>  <Rbt.Parameter_File>
/export/apps/rDock/src/rDock_2013.1_src/data/scripts/dock_solv.prm

>  <Rbt.Receptor>
prm/pocket_docking_8.prm

>  <SCORE>
-53.8799

>  <SCORE.INTER>
-41.4825

>  <SCORE.INTER.CONST>
1

>  <SCORE.INTER.POLAR>
-6.30592

>  <SCORE.INTER.ROT>
14

>  <SCORE.INTER.SOLV>
20.1744

>  <SCORE.INTER.VDW>
-26.2935

>  <SCORE.INTER.norm>
-0.98768

>  <SCORE.INTRA>
-12.6593

>  <SCORE.INTRA.DIHEDRAL>
-32.3522

>  <SCORE.INTRA.DIHEDRAL.0>
48.7173

>  <SCORE.INTRA.POLAR>
0.480392

>  <SCORE.INTRA.POLAR.0>
-1.54691

>  <SCORE.INTRA.REPUL>
0

>  <SCORE.INTRA.REPUL.0>
0

>  <SCORE.INTRA.SOLV>
1.3553

>  <SCORE.INTRA.SOLV.lig_0>
-64.052

>  <SCORE.INTRA.VDW>
1.20577

>  <SCORE.INTRA.VDW.0>
-7.0667

>  <SCORE.INTRA.norm>
-0.301413

>  <SCORE.RESTR>
0.261947

>  <SCORE.RESTR.CAVITY>
0.261947

>  <SCORE.RESTR.norm>
0.00623683

>  <SCORE.SYSTEM>
0

>  <SCORE.SYSTEM.CONST>
0

>  <SCORE.SYSTEM.DIHEDRAL>
0

>  <SCORE.SYSTEM.SOLV>
0

>  <SCORE.SYSTEM.norm>
0

>  <SCORE.heavy>
42

>  <SCORE.norm>
-1.28286

>  <RMSD>
6.203

$$$$
1fyp_lig
 OpenBabel11021811393D
libRbt.so/2013.1/901 2013/11/27
 42 45  0  0  0  0  0  0  0  0999 V2000
    2.4960    5.6610   26.6344 C   0  0  2  0  0  0  0  0  0  0  0  0
    1.7769    4.4776   26.1820 O   0  0  0  0  0  0  0  0  0  0  0  0
    1.6464    2.3119   29.8609 C   0  0  2  0  0  0  0  0  0  0  0  0
    1.2691    1.5255   31.0498 N   0  0  0  0  0  0  0  0  0  0  0  0
    0.3018    1.2912   25.7112 C   0  0  1  0  0  0  0  0  0  0  0  0
   -2.9406   -0.2134   23.1481 C   0  0  1  0  0  0  0  0  0  0  0  0
    3.0119    6.5125   25.4298 C   0  0  2  0  0  0  0  0  0  0  0  0
    1.9275    6.7858   24.4629 N   0  0  0  0  0  0  0  0  0  0  0  0
    0.7117    3.5315   29.7348 C   0  0  0  0  0  0  0  0  0  0  0  0
    0.2544    0.3056   24.5407 C   0  0  2  0  0  0  0  0  0  0  0  0
    0.2499    1.0279   23.3087 O   0  0  0  0  0  0  0  0  0  0  0  0
   -4.2658   -0.8716   23.6396 C   0  0  2  0  0  0  0  0  0  0  0  0
   -4.0689   -1.7313   24.8322 N   0  0  0  0  0  0  0  0  0  0  0  0
    4.2060    5.8028   24.7181 C   0  0  1  0  0  0  0  0  0  0  0  0
    4.7667    6.6594   23.7264 O   0  0  0  0  0  0  0  0  0  0  0  0
    1.0701    4.4231   28.5145 C   0  0  2  0  0  0  0  0  0  0  0  0
    0.0709    5.5093   28.4401 N   0  0  0  0  0  0  0  0  0  0  0  0
   -1.0845   -0.3983   24.7774 C   0  0  2  0  0  0  0  0  0  0  0  0
   -2.2002    0.3725   24.2505 O   0  0  0  0  0  0  0  0  0  0  0  0
   -4.9589   -1.6560   22.4831 C   0  0  1  0  0  0  0  0  0  0  0  0
   -5.5238   -0.7155   21.5721 O   0  0  0  0  0  0  0  0  0  0  0  0
    5.3222    5.4103   25.7182 C   0  0  2  0  0  0  0  0  0  0  0  0
    6.3347    4.6873   25.0249 O   0  0  0  0  0  0  0  0  0  0  0  0
    1.1411    3.6154   27.1689 C   0  0  2  0  0  0  0  0  0  0  0  0
   -1.1483   -0.4616   26.3099 C   0  0  2  0  0  0  0  0  0  0  0  0
   -0.4583    0.7112   26.7835 O   0  0  0  0  0  0  0  0  0  0  0  0
   -4.0010   -2.5924   21.6859 C   0  0  2  0  0  0  0  0  0  0  0  0
   -3.6920   -3.7251   22.4995 O   0  0  0  0  0  0  0  0  0  0  0  0
    4.7339    4.5547   26.8759 C   0  0  2  0  0  0  0  0  0  0  0  0
    3.6251    5.2783   27.4897 O   0  0  0  0  0  0  0  0  0  0  0  0
    1.9612    2.2810   27.2990 C   0  0  2  0  0  0  0  0  0  0  0  0
    1.6852    1.4657   26.1305 O   0  0  0  0  0  0  0  0  0  0  0  0
   -0.4954   -1.7294   26.8887 C   0  0  0  0  0  0  0  0  0  0  0  0
   -1.1585   -2.1446   28.0701 O   0  0  0  0  0  0  0  0  0  0  0  0
   -2.6927   -1.8398   21.2907 C   0  0  1  0  0  0  0  0  0  0  0  0
   -2.1076   -1.2180   22.4754 O   0  0  0  0  0  0  0  0  0  0  0  0
    5.7298    4.2262   28.0106 C   0  0  0  0  0  0  0  0  0  0  0  0
    5.1663    3.3204   28.9441 O   0  0  0  0  0  0  0  0  0  0  0  0
    1.5874    1.4584   28.5711 C   0  0  1  0  0  0  0  0  0  0  0  0
    2.4940    0.3635   28.6927 O   0  0  0  0  0  0  0  0  0  0  0  0
   -1.6405   -2.7722   20.6373 C   0  0  0  0  0  0  0  0  0  0  0  0
   -1.8958   -2.9908   19.2020 N   0  0  0  0  0  0  0  0  0  0  0  0
  1  2  1  6  0  0  0
  1  7  1  0  0  0  0
  1 30  1  0  0  0  0
  3  4  1  1  0  0  0
  3  9  1  0  0  0  0
  3 39  1  0  0  0  0
  5 10  1  0  0  0  0
  5 26  1  0  0  0  0
  5 32  1  1  0  0  0
  6 12  1  0  0  0  0
  6 36  1  0  0  0  0
  6 19  1  1  0  0  0
  7  8  1  6  0  0  0
  7 14  1  0  0  0  0
  9 16  1  0  0  0  0
 10 11  1  6  0  0  0
 10 18  1  0  0  0  0
 12 13  1  1  0  0  0
 12 20  1  0  0  0  0
 14 15  1  6  0  0  0
 14 22  1  0  0  0  0
 16 17  1  6  0  0  0
 16 24  1  0  0  0  0
 18 19  1  1  0  0  0
 18 25  1  0  0  0  0
 20 21  1  6  0  0  0
 20 27  1  0  0  0  0
 22 23  1  6  0  0  0
 22 29  1  0  0  0  0
 24  2  1  6  0  0  0
 24 31  1  0  0  0  0
 25 26  1  0  0  0  0
 25 33  1  1  0  0  0
 27 28  1  1  0  0  0
 27 35  1  0  0  0  0
 29 30  1  0  0  0  0
 29 37  1  1  0  0  0
 31 32  1  6  0  0  0
 31 39  1  0  0  0  0
 33 34  1  0  0  0  0
 35 36  1  0  0  0  0
 35 41  1  1  0  0  0
 37 38  1  0  0  0  0
 39 40  1  1  0  0  0
 41 42  1  0  0  0  0
M  END
>  <CHROM.1>
-175.64274973,15.37579414,-57.69403209,74.04209944,-73.74616850,-67.32810321
-67.51237572,-63.20383298,114.72083929,100.34182532,-169.71630771,-54.80133457
-147.39867108,56.02188576,-173.21560544,-47.14127876,-175.25935096,-71.06284018
82.07755046,-61.26527175,179.86667786,-170.40956990,0.46035726,1.61470829
25.53176200,-0.32687352,-0.81878856,-1.40202956

>  <Name>
1fyp_lig

>  <RI>
0

>  <Rbt.Current_Directory>
/home/itssahil/PROJECTS/Mol_Feturizer/New_Systems/rnas/1fyp

>  <Rbt.Executable>
rbdock ($Id: //depot/dev/client3/rdock/2013.1/src/exe/rbdock.cxx#4 $)

>  <Rbt.Library>
libRbt.so (2013.1, Build901 2013/11/27)

>  <Rbt.Parameter_File>
/export/apps/rDock/src/rDock_2013.1_src/data/scripts/dock_solv.prm

>  <Rbt.Receptor>
prm/blind_docking_100.prm

>  <SCORE>
-29.4887

>  <SCORE.INTER>
-27.2644

>  <SCORE.INTER.CONST>
1

>  <SCORE.INTER.POLAR>
-2.87778

>  <SCORE.INTER.ROT>
14

>  <SCORE.INTER.SOLV>
21.5045

>  <SCORE.INTER.VDW>
-28.6852

>  <SCORE.INTER.norm>
-0.649153

>  <SCORE.INTRA>
-2.22423

>  <SCORE.INTRA.DIHEDRAL>
-21.0198

>  <SCORE.INTRA.DIHEDRAL.0>
48.7173

>  <SCORE.INTRA.POLAR>
1.36286

>  <SCORE.INTRA.POLAR.0>
-1.54691

>  <SCORE.INTRA.REPUL>
0

>  <SCORE.INTRA.REPUL.0>
0

>  <SCORE.INTRA.SOLV>
-2.61711

>  <SCORE.INTRA.SOLV.lig_0>
-64.052

>  <SCORE.INTRA.VDW>
4.96051

>  <SCORE.INTRA.VDW.0>
-7.0667

>  <SCORE.INTRA.norm>
-0.0529579

>  <SCORE.RESTR>
0

>  <SCORE.RESTR.CAVITY>
0

>  <SCORE.RESTR.norm>
0

>  <SCORE.SYSTEM>
0

>  <SCORE.SYSTEM.CONST>
0

>  <SCORE.SYSTEM.DIHEDRAL>
0

>  <SCORE.SYSTEM.SOLV>
0

>  <SCORE.SYSTEM.norm>
0

>  <SCORE.heavy>
42

>  <SCORE.norm>
-0.702111

>  <RMSD>
6.266

$$$$
1fyp_lig
 OpenBabel11021811393D
libRbt.so/2013.1/901 2013/11/27
 42 45  0  0  0  0  0  0  0  0999 V2000
    5.1537    3.2754   28.0186 C   0  0  2  0  0  0  0  0  0  0  0  0
    4.3999    4.4300   28.4889 O   0  0  0  0  0  0  0  0  0  0  0  0
    5.9251    4.0765   32.4625 C   0  0  2  0  0  0  0  0  0  0  0  0
    6.3065    4.2640   33.8745 N   0  0  0  0  0  0  0  0  0  0  0  0
    1.8546    2.9810   29.7025 C   0  0  1  0  0  0  0  0  0  0  0  0
   -1.4988    0.8011   27.9912 C   0  0  1  0  0  0  0  0  0  0  0  0
    5.9073    3.5880   26.6858 C   0  0  2  0  0  0  0  0  0  0  0  0
    6.6970    4.8330   26.7955 N   0  0  0  0  0  0  0  0  0  0  0  0
    6.3995    5.2895   31.6376 C   0  0  0  0  0  0  0  0  0  0  0  0
    0.3716    2.8420   30.0562 C   0  0  2  0  0  0  0  0  0  0  0  0
    0.1553    1.5995   30.7263 O   0  0  0  0  0  0  0  0  0  0  0  0
   -1.2643   -0.6973   27.6293 C   0  0  2  0  0  0  0  0  0  0  0  0
   -0.3434   -0.8701   26.4794 N   0  0  0  0  0  0  0  0  0  0  0  0
    4.9075    3.6845   25.4911 C   0  0  1  0  0  0  0  0  0  0  0  0
    5.6197    3.8109   24.2629 O   0  0  0  0  0  0  0  0  0  0  0  0
    6.0540    5.1465   30.1301 C   0  0  2  0  0  0  0  0  0  0  0  0
    6.4765    6.3888   29.4504 N   0  0  0  0  0  0  0  0  0  0  0  0
   -0.2829    2.8485   28.6720 C   0  0  2  0  0  0  0  0  0  0  0  0
   -0.2469    1.5330   28.0517 O   0  0  0  0  0  0  0  0  0  0  0  0
   -2.6202   -1.4287   27.3851 C   0  0  1  0  0  0  0  0  0  0  0  0
   -3.2646   -1.6210   28.6426 O   0  0  0  0  0  0  0  0  0  0  0  0
    3.9921    2.4377   25.4036 C   0  0  2  0  0  0  0  0  0  0  0  0
    3.0455    2.6282   24.3565 O   0  0  0  0  0  0  0  0  0  0  0  0
    4.5330    4.8438   29.8790 C   0  0  2  0  0  0  0  0  0  0  0  0
    0.6063    3.8336   27.9003 C   0  0  2  0  0  0  0  0  0  0  0  0
    1.9275    3.6945   28.4578 O   0  0  0  0  0  0  0  0  0  0  0  0
   -3.5992   -0.6583   26.4481 C   0  0  2  0  0  0  0  0  0  0  0  0
   -3.1119   -0.7495   25.1084 O   0  0  0  0  0  0  0  0  0  0  0  0
    3.2682    2.2027   26.7598 C   0  0  2  0  0  0  0  0  0  0  0  0
    4.2623    2.1260   27.8255 O   0  0  0  0  0  0  0  0  0  0  0  0
    3.9721    3.7121   30.8144 C   0  0  2  0  0  0  0  0  0  0  0  0
    2.5228    3.7464   30.7453 O   0  0  0  0  0  0  0  0  0  0  0  0
    0.1330    5.2933   28.0187 C   0  0  0  0  0  0  0  0  0  0  0  0
    0.8212    6.1235   27.0996 O   0  0  0  0  0  0  0  0  0  0  0  0
   -3.7162    0.8370   26.8782 C   0  0  1  0  0  0  0  0  0  0  0  0
   -2.3822    1.4196   26.9950 O   0  0  0  0  0  0  0  0  0  0  0  0
    2.4380    0.9018   26.8351 C   0  0  0  0  0  0  0  0  0  0  0  0
    1.5210    0.8131   25.7577 O   0  0  0  0  0  0  0  0  0  0  0  0
    4.3968    3.8887   32.3054 C   0  0  1  0  0  0  0  0  0  0  0  0
    3.9893    2.7346   33.0387 O   0  0  0  0  0  0  0  0  0  0  0  0
   -4.5516    1.6820   25.8827 C   0  0  0  0  0  0  0  0  0  0  0  0
   -4.0284    1.6110   24.5064 N   0  0  0  0  0  0  0  0  0  0  0  0
  1  2  1  6  0  0  0
  1  7  1  0  0  0  0
  1 30  1  0  0  0  0
  3  4  1  1  0  0  0
  3  9  1  0  0  0  0
  3 39  1  0  0  0  0
  5 10  1  0  0  0  0
  5 26  1  0  0  0  0
  5 32  1  1  0  0  0
  6 12  1  0  0  0  0
  6 36  1  0  0  0  0
  6 19  1  6  0  0  0
  7  8  1  1  0  0  0
  7 14  1  0  0  0  0
  9 16  1  0  0  0  0
 10 11  1  6  0  0  0
 10 18  1  0  0  0  0
 12 13  1  6  0  0  0
 12 20  1  0  0  0  0
 14 15  1  6  0  0  0
 14 22  1  0  0  0  0
 16 17  1  6  0  0  0
 16 24  1  0  0  0  0
 18 19  1  6  0  0  0
 18 25  1  0  0  0  0
 20 21  1  1  0  0  0
 20 27  1  0  0  0  0
 22 23  1  6  0  0  0
 22 29  1  0  0  0  0
 24  2  1  6  0  0  0
 24 31  1  0  0  0  0
 25 26  1  0  0  0  0
 25 33  1  1  0  0  0
 27 28  1  6  0  0  0
 27 35  1  0  0  0  0
 29 30  1  0  0  0  0
 29 37  1  6  0  0  0
 31 32  1  1  0  0  0
 31 39  1  0  0  0  0
 33 34  1  0  0  0  0
 35 36  1  0  0  0  0
 35 41  1  6  0  0  0
 37 38  1  0  0  0  0
 39 40  1  1  0  0  0
 41 42  1  0  0  0  0
M  END
>  <CHROM.1>
-131.15118438,58.17012903,-55.04519615,-25.00135635,176.17146621,165.36093784
-61.88880366,-77.92121672,106.58169406,-166.26633967,-76.72040695,-168.57427939
-168.98165790,-177.14385233,-53.35573335,87.71547766,164.08404957,171.19175886
-55.93658973,-175.42005003,176.76080561,-120.29234525,1.80745102,2.60980147
28.14867443,-0.38092197,-0.46069616,-1.62431448

>  <Name>
1fyp_lig

>  <RI>
0

>  <Rbt.Current_Directory>
/home/itssahil/PROJECTS/Mol_Feturizer/New_Systems/rnas/1fyp

>  <Rbt.Executable>
rbdock ($Id: //depot/dev/client3/rdock/2013.1/src/exe/rbdock.cxx#4 $)

>  <Rbt.Library>
libRbt.so (2013.1, Build901 2013/11/27)

>  <Rbt.Parameter_File>
/export/apps/rDock/src/rDock_2013.1_src/data/scripts/dock_solv.prm

>  <Rbt.Receptor>
prm/pocket_docking_6.prm

>  <SCORE>
-59.6033

>  <SCORE.INTER>
-42.9424

>  <SCORE.INTER.CONST>
1

>  <SCORE.INTER.POLAR>
-4.97252

>  <SCORE.INTER.ROT>
14

>  <SCORE.INTER.SOLV>
17.5204

>  <SCORE.INTER.VDW>
-30.8267

>  <SCORE.INTER.norm>
-1.02244

>  <SCORE.INTRA>
-16.6609

>  <SCORE.INTRA.DIHEDRAL>
-22.1816

>  <SCORE.INTRA.DIHEDRAL.0>
48.7173

>  <SCORE.INTRA.POLAR>
-2.24506

>  <SCORE.INTRA.POLAR.0>
-1.54691

>  <SCORE.INTRA.REPUL>
0

>  <SCORE.INTRA.REPUL.0>
0

>  <SCORE.INTRA.SOLV>
1.06562

>  <SCORE.INTRA.SOLV.lig_0>
-64.052

>  <SCORE.INTRA.VDW>
1.53036

>  <SCORE.INTRA.VDW.0>
-7.0667

>  <SCORE.INTRA.norm>
-0.396687

>  <SCORE.RESTR>
0

>  <SCORE.RESTR.CAVITY>
0

>  <SCORE.RESTR.norm>
0

>  <SCORE.SYSTEM>
0

>  <SCORE.SYSTEM.CONST>
0

>  <SCORE.SYSTEM.DIHEDRAL>
0

>  <SCORE.SYSTEM.SOLV>
0

>  <SCORE.SYSTEM.norm>
0

>  <SCORE.heavy>
42

>  <SCORE.norm>
-1.41913

>  <RMSD>
6.267

$$$$
1fyp_lig
 OpenBabel11021811393D
libRbt.so/2013.1/901 2013/11/27
 42 45  0  0  0  0  0  0  0  0999 V2000
    2.5321    3.6157   30.1623 C   0  0  2  0  0  0  0  0  0  0  0  0
    3.1189    2.4490   29.5168 O   0  0  0  0  0  0  0  0  0  0  0  0
    4.3361    4.6691   26.0773 C   0  0  2  0  0  0  0  0  0  0  0  0
    4.9633    5.1655   24.8385 N   0  0  0  0  0  0  0  0  0  0  0  0
    0.7080    1.6637   26.4223 C   0  0  1  0  0  0  0  0  0  0  0  0
   -3.2228    0.9162   25.1953 C   0  0  1  0  0  0  0  0  0  0  0  0
    2.8375    3.6362   31.6948 C   0  0  2  0  0  0  0  0  0  0  0  0
    4.2807    3.4512   31.9565 N   0  0  0  0  0  0  0  0  0  0  0  0
    5.4332    4.3036   27.0969 C   0  0  0  0  0  0  0  0  0  0  0  0
    0.5633    1.1876   24.9745 C   0  0  2  0  0  0  0  0  0  0  0  0
    0.5324    2.3173   24.1015 O   0  0  0  0  0  0  0  0  0  0  0  0
   -3.6849    1.3935   26.6060 C   0  0  2  0  0  0  0  0  0  0  0  0
   -2.6421    1.2032   27.6436 N   0  0  0  0  0  0  0  0  0  0  0  0
    2.0075    2.5457   32.4418 C   0  0  1  0  0  0  0  0  0  0  0  0
    2.1746    2.6801   33.8509 O   0  0  0  0  0  0  0  0  0  0  0  0
    4.8416    3.7971   28.4407 C   0  0  2  0  0  0  0  0  0  0  0  0
    5.9693    3.4006   29.3095 N   0  0  0  0  0  0  0  0  0  0  0  0
   -0.7923    0.4767   25.0121 C   0  0  2  0  0  0  0  0  0  0  0  0
   -1.8970    1.4136   24.8765 O   0  0  0  0  0  0  0  0  0  0  0  0
   -5.0238    0.7054   27.0143 C   0  0  1  0  0  0  0  0  0  0  0  0
   -6.0808    1.2795   26.2483 O   0  0  0  0  0  0  0  0  0  0  0  0
    0.4968    2.6455   32.1130 C   0  0  2  0  0  0  0  0  0  0  0  0
   -0.1893    1.5710   32.7482 O   0  0  0  0  0  0  0  0  0  0  0  0
    3.8207    2.6180   28.2518 C   0  0  2  0  0  0  0  0  0  0  0  0
   -0.7870   -0.1524   26.4123 C   0  0  2  0  0  0  0  0  0  0  0  0
   -0.0256    0.7429   27.2457 O   0  0  0  0  0  0  0  0  0  0  0  0
   -5.0410   -0.8371   26.7899 C   0  0  2  0  0  0  0  0  0  0  0  0
   -4.2224   -1.4503   27.7872 O   0  0  0  0  0  0  0  0  0  0  0  0
    0.2748    2.6033   30.5745 C   0  0  2  0  0  0  0  0  0  0  0  0
    1.0811    3.6450   29.9462 O   0  0  0  0  0  0  0  0  0  0  0  0
    2.7758    2.8908   27.1098 C   0  0  2  0  0  0  0  0  0  0  0  0
    2.1156    1.6376   26.7933 O   0  0  0  0  0  0  0  0  0  0  0  0
   -0.1633   -1.5592   26.4390 C   0  0  0  0  0  0  0  0  0  0  0  0
   -0.4117   -2.1984   27.6789 O   0  0  0  0  0  0  0  0  0  0  0  0
   -4.5144   -1.1955   25.3655 C   0  0  1  0  0  0  0  0  0  0  0  0
   -3.2230   -0.5510   25.1435 O   0  0  0  0  0  0  0  0  0  0  0  0
   -1.1836    2.8403   30.1228 C   0  0  0  0  0  0  0  0  0  0  0  0
   -2.1013    2.1805   30.9783 O   0  0  0  0  0  0  0  0  0  0  0  0
    3.4299    3.4441   25.8058 C   0  0  1  0  0  0  0  0  0  0  0  0
    2.3960    3.8191   24.8969 O   0  0  0  0  0  0  0  0  0  0  0  0
   -4.3605   -2.7231   25.1517 C   0  0  0  0  0  0  0  0  0  0  0  0
   -3.4467   -3.0472   24.0413 N   0  0  0  0  0  0  0  0  0  0  0  0
  1  2  1  1  0  0  0
  1  7  1  0  0  0  0
  1 30  1  0  0  0  0
  3  4  1  6  0  0  0
  3  9  1  0  0  0  0
  3 39  1  0  0  0  0
  5 10  1  0  0  0  0
  5 26  1  0  0  0  0
  5 32  1  1  0  0  0
  6 12  1  0  0  0  0
  6 36  1  0  0  0  0
  6 19  1  1  0  0  0
  7  8  1  6  0  0  0
  7 14  1  0  0  0  0
  9 16  1  0  0  0  0
 10 11  1  6  0  0  0
 10 18  1  0  0  0  0
 12 13  1  1  0  0  0
 12 20  1  0  0  0  0
 14 15  1  1  0  0  0
 14 22  1  0  0  0  0
 16 17  1  1  0  0  0
 16 24  1  0  0  0  0
 18 19  1  1  0  0  0
 18 25  1  0  0  0  0
 20 21  1  6  0  0  0
 20 27  1  0  0  0  0
 22 23  1  1  0  0  0
 22 29  1  0  0  0  0
 24  2  1  1  0  0  0
 24 31  1  0  0  0  0
 25 26  1  0  0  0  0
 25 33  1  6  0  0  0
 27 28  1  1  0  0  0
 27 35  1  0  0  0  0
 29 30  1  0  0  0  0
 29 37  1  1  0  0  0
 31 32  1  6  0  0  0
 31 39  1  0  0  0  0
 33 34  1  0  0  0  0
 35 36  1  0  0  0  0
 35 41  1  1  0  0  0
 37 38  1  0  0  0  0
 39 40  1  6  0  0  0
 41 42  1  0  0  0  0
M  END
>  <CHROM.1>
-135.30234035,50.02789157,66.74624413,-82.75344386,64.31108605,59.46827128
67.63649123,-133.62393701,-166.51649877,102.01583138,76.63225887,-171.91546168
-168.65609991,62.60881718,-40.33285949,144.84768801,115.80468681,177.23850190
-159.75638318,-175.06922591,56.22300297,40.37208134,0.16292848,1.62940252
27.74905143,0.45365522,0.47053107,1.46563697

>  <Name>
1fyp_lig

>  <RI>
0

>  <Rbt.Current_Directory>
/home/itssahil/PROJECTS/Mol_Feturizer/New_Systems/rnas/1fyp

>  <Rbt.Executable>
rbdock ($Id: //depot/dev/client3/rdock/2013.1/src/exe/rbdock.cxx#4 $)

>  <Rbt.Library>
libRbt.so (2013.1, Build901 2013/11/27)

>  <Rbt.Parameter_File>
/export/apps/rDock/src/rDock_2013.1_src/data/scripts/dock_solv.prm

>  <Rbt.Receptor>
prm/blind_docking_40.prm

>  <SCORE>
-40.2059

>  <SCORE.INTER>
-36.3896

>  <SCORE.INTER.CONST>
1

>  <SCORE.INTER.POLAR>
-5.17012

>  <SCORE.INTER.ROT>
14

>  <SCORE.INTER.SOLV>
18.1126

>  <SCORE.INTER.VDW>
-25.9969

>  <SCORE.INTER.norm>
-0.866419

>  <SCORE.INTRA>
-4.68683

>  <SCORE.INTRA.DIHEDRAL>
-14.7017

>  <SCORE.INTRA.DIHEDRAL.0>
48.7173

>  <SCORE.INTRA.POLAR>
-1.2047

>  <SCORE.INTRA.POLAR.0>
-1.54691

>  <SCORE.INTRA.REPUL>
0

>  <SCORE.INTRA.REPUL.0>
0

>  <SCORE.INTRA.SOLV>
1.67753

>  <SCORE.INTRA.SOLV.lig_0>
-64.052

>  <SCORE.INTRA.VDW>
5.92126

>  <SCORE.INTRA.VDW.0>
-7.0667

>  <SCORE.INTRA.norm>
-0.111591

>  <SCORE.RESTR>
0.870467

>  <SCORE.RESTR.CAVITY>
0.870467

>  <SCORE.RESTR.norm>
0.0207254

>  <SCORE.SYSTEM>
0

>  <SCORE.SYSTEM.CONST>
0

>  <SCORE.SYSTEM.DIHEDRAL>
0

>  <SCORE.SYSTEM.SOLV>
0

>  <SCORE.SYSTEM.norm>
0

>  <SCORE.heavy>
42

>  <SCORE.norm>
-0.957284

>  <RMSD>
6.283

$$$$
1fyp_lig
 OpenBabel11021811393D
libRbt.so/2013.1/901 2013/11/27
 42 45  0  0  0  0  0  0  0  0999 V2000
    2.1521    5.0336   27.7822 C   0  0  2  0  0  0  0  0  0  0  0  0
    0.8504    4.5467   27.3452 O   0  0  0  0  0  0  0  0  0  0  0  0
   -0.1385    2.5755   31.0027 C   0  0  2  0  0  0  0  0  0  0  0  0
   -0.7128    1.7346   32.0692 N   0  0  0  0  0  0  0  0  0  0  0  0
    0.9373    1.3937   26.6479 C   0  0  1  0  0  0  0  0  0  0  0  0
   -1.5375   -0.6693   23.6507 C   0  0  1  0  0  0  0  0  0  0  0  0
    2.3538    6.5386   27.4128 C   0  0  2  0  0  0  0  0  0  0  0  0
    1.2092    7.3592   27.8625 N   0  0  0  0  0  0  0  0  0  0  0  0
   -1.2667    3.3618   30.3058 C   0  0  0  0  0  0  0  0  0  0  0  0
    1.1557   -0.0721   26.2638 C   0  0  2  0  0  0  0  0  0  0  0  0
    2.1403   -0.1535   25.2325 O   0  0  0  0  0  0  0  0  0  0  0  0
   -2.6446    0.3857   23.3466 C   0  0  2  0  0  0  0  0  0  0  0  0
   -2.9785    1.2201   24.5267 N   0  0  0  0  0  0  0  0  0  0  0  0
    2.5724    6.7098   25.8769 C   0  0  1  0  0  0  0  0  0  0  0  0
    2.9119    8.0611   25.5762 O   0  0  0  0  0  0  0  0  0  0  0  0
   -0.7288    4.2927   29.1849 C   0  0  2  0  0  0  0  0  0  0  0  0
   -1.8906    4.9325   28.5333 N   0  0  0  0  0  0  0  0  0  0  0  0
   -0.2284   -0.4696   25.7437 C   0  0  2  0  0  0  0  0  0  0  0  0
   -0.4182   -0.0732   24.3568 O   0  0  0  0  0  0  0  0  0  0  0  0
   -3.9166   -0.2979   22.7571 C   0  0  1  0  0  0  0  0  0  0  0  0
   -3.6382   -0.6939   21.4157 O   0  0  0  0  0  0  0  0  0  0  0  0
    3.7013    5.7891   25.3494 C   0  0  2  0  0  0  0  0  0  0  0  0
    3.7875    5.9232   23.9340 O   0  0  0  0  0  0  0  0  0  0  0  0
    0.1692    3.5354   28.1417 C   0  0  2  0  0  0  0  0  0  0  0  0
   -1.1602    0.3291   26.6657 C   0  0  2  0  0  0  0  0  0  0  0  0
   -0.4488    1.5374   26.9969 O   0  0  0  0  0  0  0  0  0  0  0  0
   -4.3883   -1.5551   23.5488 C   0  0  2  0  0  0  0  0  0  0  0  0
   -4.9791   -1.1239   24.7759 O   0  0  0  0  0  0  0  0  0  0  0  0
    3.4214    4.3110   25.7433 C   0  0  2  0  0  0  0  0  0  0  0  0
    3.2257    4.2297   27.1872 O   0  0  0  0  0  0  0  0  0  0  0  0
    1.2361    2.6003   28.8180 C   0  0  2  0  0  0  0  0  0  0  0  0
    1.7678    1.7124   27.8005 O   0  0  0  0  0  0  0  0  0  0  0  0
   -1.5362   -0.4323   27.9493 C   0  0  0  0  0  0  0  0  0  0  0  0
   -2.7703    0.0313   28.4684 O   0  0  0  0  0  0  0  0  0  0  0  0
   -3.1893   -2.5116   23.8350 C   0  0  1  0  0  0  0  0  0  0  0  0
   -2.1004   -1.7613   24.4545 O   0  0  0  0  0  0  0  0  0  0  0  0
    4.5549    3.3209   25.3942 C   0  0  0  0  0  0  0  0  0  0  0  0
    4.0869    1.9828   25.3909 O   0  0  0  0  0  0  0  0  0  0  0  0
    0.6407    1.7291   29.9674 C   0  0  1  0  0  0  0  0  0  0  0  0
    1.7070    1.0482   30.6270 O   0  0  0  0  0  0  0  0  0  0  0  0
   -3.5761   -3.6960   24.7574 C   0  0  0  0  0  0  0  0  0  0  0  0
   -3.1058   -4.9923   24.2365 N   0  0  0  0  0  0  0  0  0  0  0  0
  1  2  1  6  0  0  0
  1  7  1  0  0  0  0
  1 30  1  0  0  0  0
  3  4  1  1  0  0  0
  3  9  1  0  0  0  0
  3 39  1  0  0  0  0
  5 10  1  0  0  0  0
  5 26  1  0  0  0  0
  5 32  1  1  0  0  0
  6 12  1  0  0  0  0
  6 36  1  0  0  0  0
  6 19  1  1  0  0  0
  7  8  1  6  0  0  0
  7 14  1  0  0  0  0
  9 16  1  0  0  0  0
 10 11  1  6  0  0  0
 10 18  1  0  0  0  0
 12 13  1  1  0  0  0
 12 20  1  0  0  0  0
 14 15  1  1  0  0  0
 14 22  1  0  0  0  0
 16 17  1  6  0  0  0
 16 24  1  0  0  0  0
 18 19  1  6  0  0  0
 18 25  1  0  0  0  0
 20 21  1  6  0  0  0
 20 27  1  0  0  0  0
 22 23  1  6  0  0  0
 22 29  1  0  0  0  0
 24  2  1  1  0  0  0
 24 31  1  0  0  0  0
 25 26  1  0  0  0  0
 25 33  1  1  0  0  0
 27 28  1  1  0  0  0
 27 35  1  0  0  0  0
 29 30  1  0  0  0  0
 29 37  1  1  0  0  0
 31 32  1  6  0  0  0
 31 39  1  0  0  0  0
 33 34  1  0  0  0  0
 35 36  1  0  0  0  0
 35 41  1  1  0  0  0
 37 38  1  0  0  0  0
 39 40  1  1  0  0  0
 41 42  1  0  0  0  0
M  END
>  <CHROM.1>
-146.78121073,90.45883938,-179.91740429,136.20814588,68.15947503,81.79371119
68.42210220,-39.80231242,165.32544874,111.03107661,-169.13930629,162.76625667
-155.05471107,-41.24677203,-161.85222429,-26.38489518,-142.41820875,59.83564270
132.13986792,57.77625083,29.79045823,87.64194533,-0.06255241,1.84899698,26.43758123
0.48834023,0.84985075,1.36508356

>  <Name>
1fyp_lig

>  <RI>
0

>  <Rbt.Current_Directory>
/home/itssahil/PROJECTS/Mol_Feturizer/New_Systems/rnas/1fyp

>  <Rbt.Executable>
rbdock ($Id: //depot/dev/client3/rdock/2013.1/src/exe/rbdock.cxx#4 $)

>  <Rbt.Library>
libRbt.so (2013.1, Build901 2013/11/27)

>  <Rbt.Parameter_File>
/export/apps/rDock/src/rDock_2013.1_src/data/scripts/dock_solv.prm

>  <Rbt.Receptor>
prm/blind_docking_100.prm

>  <SCORE>
-24.3748

>  <SCORE.INTER>
-33.6683

>  <SCORE.INTER.CONST>
1

>  <SCORE.INTER.POLAR>
-5.80336

>  <SCORE.INTER.ROT>
14

>  <SCORE.INTER.SOLV>
20.5404

>  <SCORE.INTER.VDW>
-22.8811

>  <SCORE.INTER.norm>
-0.801626

>  <SCORE.INTRA>
8.91368

>  <SCORE.INTRA.DIHEDRAL>
-3.29054

>  <SCORE.INTRA.DIHEDRAL.0>
48.7173

>  <SCORE.INTRA.POLAR>
0.286146

>  <SCORE.INTRA.POLAR.0>
-1.54691

>  <SCORE.INTRA.REPUL>
0

>  <SCORE.INTRA.REPUL.0>
0

>  <SCORE.INTRA.SOLV>
-1.36627

>  <SCORE.INTRA.SOLV.lig_0>
-64.052

>  <SCORE.INTRA.VDW>
10.2692

>  <SCORE.INTRA.VDW.0>
-7.0667

>  <SCORE.INTRA.norm>
0.212231

>  <SCORE.RESTR>
0.379756

>  <SCORE.RESTR.CAVITY>
0.379756

>  <SCORE.RESTR.norm>
0.00904181

>  <SCORE.SYSTEM>
0

>  <SCORE.SYSTEM.CONST>
0

>  <SCORE.SYSTEM.DIHEDRAL>
0

>  <SCORE.SYSTEM.SOLV>
0

>  <SCORE.SYSTEM.norm>
0

>  <SCORE.heavy>
42

>  <SCORE.norm>
-0.580353

>  <RMSD>
6.365

$$$$
1fyp_lig
 OpenBabel11021811393D
libRbt.so/2013.1/901 2013/11/27
 42 45  0  0  0  0  0  0  0  0999 V2000
    3.1551    3.3685   25.2393 C   0  0  2  0  0  0  0  0  0  0  0  0
    2.6532    3.3513   26.6068 O   0  0  0  0  0  0  0  0  0  0  0  0
   -0.8073    3.7861   29.0719 C   0  0  2  0  0  0  0  0  0  0  0  0
   -2.1297    4.0959   29.6461 N   0  0  0  0  0  0  0  0  0  0  0  0
   -0.9653    0.7998   26.0510 C   0  0  1  0  0  0  0  0  0  0  0  0
   -4.2464   -1.7260   24.8839 C   0  0  1  0  0  0  0  0  0  0  0  0
    4.7174    3.3661   25.2029 C   0  0  2  0  0  0  0  0  0  0  0  0
    5.2718    2.2859   26.0464 N   0  0  0  0  0  0  0  0  0  0  0  0
   -0.1653    5.0808   28.5348 C   0  0  0  0  0  0  0  0  0  0  0  0
   -1.5874    1.0018   24.6668 C   0  0  2  0  0  0  0  0  0  0  0  0
   -2.5694    2.0367   24.7314 O   0  0  0  0  0  0  0  0  0  0  0  0
   -4.3192   -2.1474   23.3845 C   0  0  2  0  0  0  0  0  0  0  0  0
   -4.7381   -1.0345   22.4978 N   0  0  0  0  0  0  0  0  0  0  0  0
    5.2862    4.7489   25.6508 C   0  0  1  0  0  0  0  0  0  0  0  0
    6.6985    4.7843   25.4614 O   0  0  0  0  0  0  0  0  0  0  0  0
    1.2469    4.8327   27.9377 C   0  0  2  0  0  0  0  0  0  0  0  0
    1.7338    6.1128   27.3829 N   0  0  0  0  0  0  0  0  0  0  0  0
   -2.2335   -0.3626   24.4112 C   0  0  2  0  0  0  0  0  0  0  0  0
   -3.5378   -0.4697   25.0466 O   0  0  0  0  0  0  0  0  0  0  0  0
   -5.2377   -3.3948   23.2019 C   0  0  1  0  0  0  0  0  0  0  0  0
   -4.5517   -4.5403   23.7027 O   0  0  0  0  0  0  0  0  0  0  0  0
    4.6530    5.9176   24.8549 C   0  0  2  0  0  0  0  0  0  0  0  0
    5.1418    7.1513   25.3724 O   0  0  0  0  0  0  0  0  0  0  0  0
    1.2596    3.6956   26.8537 C   0  0  2  0  0  0  0  0  0  0  0  0
   -1.2319   -1.3215   25.0698 C   0  0  2  0  0  0  0  0  0  0  0  0
   -0.6626   -0.5988   26.1786 O   0  0  0  0  0  0  0  0  0  0  0  0
   -6.6091   -3.2882   23.9354 C   0  0  2  0  0  0  0  0  0  0  0  0
   -7.4336   -2.3632   23.2246 O   0  0  0  0  0  0  0  0  0  0  0  0
    3.1020    5.8595   24.9518 C   0  0  2  0  0  0  0  0  0  0  0  0
    2.6450    4.5421   24.5213 O   0  0  0  0  0  0  0  0  0  0  0  0
    0.4787    2.4093   27.3074 C   0  0  2  0  0  0  0  0  0  0  0  0
    0.2631    1.5764   26.1385 O   0  0  0  0  0  0  0  0  0  0  0  0
   -0.1193   -1.7828   24.1117 C   0  0  0  0  0  0  0  0  0  0  0  0
   -0.1826   -3.1825   23.9008 O   0  0  0  0  0  0  0  0  0  0  0  0
   -6.4137   -2.8139   25.4089 C   0  0  1  0  0  0  0  0  0  0  0  0
   -5.6033   -1.5993   25.4299 O   0  0  0  0  0  0  0  0  0  0  0  0
    2.3582    6.8933   24.0771 C   0  0  0  0  0  0  0  0  0  0  0  0
    1.7716    6.2800   22.9416 O   0  0  0  0  0  0  0  0  0  0  0  0
   -0.9092    2.7324   27.9429 C   0  0  1  0  0  0  0  0  0  0  0  0
   -1.4622    1.5292   28.4742 O   0  0  0  0  0  0  0  0  0  0  0  0
   -7.7572   -2.5379   26.1314 C   0  0  0  0  0  0  0  0  0  0  0  0
   -8.5296   -3.7698   26.3740 N   0  0  0  0  0  0  0  0  0  0  0  0
  1  2  1  1  0  0  0
  1  7  1  0  0  0  0
  1 30  1  0  0  0  0
  3  4  1  6  0  0  0
  3  9  1  0  0  0  0
  3 39  1  0  0  0  0
  5 10  1  0  0  0  0
  5 26  1  0  0  0  0
  5 32  1  6  0  0  0
  6 12  1  0  0  0  0
  6 36  1  0  0  0  0
  6 19  1  6  0  0  0
  7  8  1  1  0  0  0
  7 14  1  0  0  0  0
  9 16  1  0  0  0  0
 10 11  1  1  0  0  0
 10 18  1  0  0  0  0
 12 13  1  6  0  0  0
 12 20  1  0  0  0  0
 14 15  1  6  0  0  0
 14 22  1  0  0  0  0
 16 17  1  6  0  0  0
 16 24  1  0  0  0  0
 18 19  1  1  0  0  0
 18 25  1  0  0  0  0
 20 21  1  1  0  0  0
 20 27  1  0  0  0  0
 22 23  1  1  0  0  0
 22 29  1  0  0  0  0
 24  2  1  1  0  0  0
 24 31  1  0  0  0  0
 25 26  1  0  0  0  0
 25 33  1  6  0  0  0
 27 28  1  6  0  0  0
 27 35  1  0  0  0  0
 29 30  1  0  0  0  0
 29 37  1  6  0  0  0
 31 32  1  6  0  0  0
 31 39  1  0  0  0  0
 33 34  1  0  0  0  0
 35 36  1  0  0  0  0
 35 41  1  6  0  0  0
 37 38  1  0  0  0  0
 39 40  1  1  0  0  0
 41 42  1  0  0  0  0
M  END
>  <CHROM.1>
164.27762980,-126.63776245,-14.20793944,36.46709985,111.89243060,-138.99952895
75.78566150,39.42760289,-179.51533892,-50.94873742,-170.92278316,74.75390125
-116.55988296,-66.21254400,105.53346328,-145.74328153,132.10867666,-174.53688166
68.56678907,60.70750286,65.07552257,-60.43690220,-0.75758849,1.45665937,25.51577289
-0.58287538,-0.42094109,-2.42937980

>  <Name>
1fyp_lig

>  <RI>
0

>  <Rbt.Current_Directory>
/home/itssahil/PROJECTS/Mol_Feturizer/New_Systems/rnas/1fyp

>  <Rbt.Executable>
rbdock ($Id: //depot/dev/client3/rdock/2013.1/src/exe/rbdock.cxx#4 $)

>  <Rbt.Library>
libRbt.so (2013.1, Build901 2013/11/27)

>  <Rbt.Parameter_File>
/export/apps/rDock/src/rDock_2013.1_src/data/scripts/dock_solv.prm

>  <Rbt.Receptor>
prm/pocket_docking_8.prm

>  <SCORE>
-29.5302

>  <SCORE.INTER>
-39.1007

>  <SCORE.INTER.CONST>
1

>  <SCORE.INTER.POLAR>
-5.77776

>  <SCORE.INTER.ROT>
14

>  <SCORE.INTER.SOLV>
19.3188

>  <SCORE.INTER.VDW>
-26.1809

>  <SCORE.INTER.norm>
-0.930969

>  <SCORE.INTRA>
9.57052

>  <SCORE.INTRA.DIHEDRAL>
-3.86208

>  <SCORE.INTRA.DIHEDRAL.0>
48.7173

>  <SCORE.INTRA.POLAR>
1.54592

>  <SCORE.INTRA.POLAR.0>
-1.54691

>  <SCORE.INTRA.REPUL>
0

>  <SCORE.INTRA.REPUL.0>
0

>  <SCORE.INTRA.SOLV>
-2.03158

>  <SCORE.INTRA.SOLV.lig_0>
-64.052

>  <SCORE.INTRA.VDW>
7.26122

>  <SCORE.INTRA.VDW.0>
-7.0667

>  <SCORE.INTRA.norm>
0.227869

>  <SCORE.RESTR>
0

>  <SCORE.RESTR.CAVITY>
0

>  <SCORE.RESTR.norm>
0

>  <SCORE.SYSTEM>
0

>  <SCORE.SYSTEM.CONST>
0

>  <SCORE.SYSTEM.DIHEDRAL>
0

>  <SCORE.SYSTEM.SOLV>
0

>  <SCORE.SYSTEM.norm>
0

>  <SCORE.heavy>
42

>  <SCORE.norm>
-0.703099

>  <RMSD>
6.387

$$$$
1fyp_lig
 OpenBabel11021811393D
libRbt.so/2013.1/901 2013/11/27
 42 45  0  0  0  0  0  0  0  0999 V2000
    3.0766    3.6738   25.3017 C   0  0  2  0  0  0  0  0  0  0  0  0
    2.6082    3.7079   26.6807 O   0  0  0  0  0  0  0  0  0  0  0  0
   -0.8639    3.7849   29.1666 C   0  0  2  0  0  0  0  0  0  0  0  0
   -2.2038    3.9699   29.7538 N   0  0  0  0  0  0  0  0  0  0  0  0
   -0.8256    0.9366   26.0240 C   0  0  1  0  0  0  0  0  0  0  0  0
   -4.2309   -1.3423   24.3055 C   0  0  1  0  0  0  0  0  0  0  0  0
    4.6375    3.6813   25.2270 C   0  0  2  0  0  0  0  0  0  0  0  0
    5.2211    2.6398   26.0991 N   0  0  0  0  0  0  0  0  0  0  0  0
   -0.3284    5.1436   28.6724 C   0  0  0  0  0  0  0  0  0  0  0  0
   -1.4618    1.1900   24.6548 C   0  0  2  0  0  0  0  0  0  0  0  0
   -2.4937    2.1690   24.7819 O   0  0  0  0  0  0  0  0  0  0  0  0
   -5.5875   -1.4462   25.0670 C   0  0  2  0  0  0  0  0  0  0  0  0
   -5.4104   -1.5953   26.5322 N   0  0  0  0  0  0  0  0  0  0  0  0
    5.2057    5.0850   25.6053 C   0  0  1  0  0  0  0  0  0  0  0  0
    6.6126    5.1229   25.3800 O   0  0  0  0  0  0  0  0  0  0  0  0
    1.0960    5.0279   28.0642 C   0  0  2  0  0  0  0  0  0  0  0  0
    1.4778    6.3605   27.5523 N   0  0  0  0  0  0  0  0  0  0  0  0
   -2.0402   -0.1871   24.3180 C   0  0  2  0  0  0  0  0  0  0  0  0
   -3.3354   -0.3969   24.9465 O   0  0  0  0  0  0  0  0  0  0  0  0
   -6.4665   -2.5944   24.4822 C   0  0  1  0  0  0  0  0  0  0  0  0
   -6.9744   -2.1769   23.2167 O   0  0  0  0  0  0  0  0  0  0  0  0
    4.5438    6.2162   24.7791 C   0  0  2  0  0  0  0  0  0  0  0  0
    5.0349    7.4732   25.2347 O   0  0  0  0  0  0  0  0  0  0  0  0
    1.1930    3.9326   26.9421 C   0  0  2  0  0  0  0  0  0  0  0  0
   -0.9899   -1.1326   24.9173 C   0  0  2  0  0  0  0  0  0  0  0  0
   -0.4533   -0.4503   26.0672 O   0  0  0  0  0  0  0  0  0  0  0  0
   -5.7053   -3.9399   24.2824 C   0  0  2  0  0  0  0  0  0  0  0  0
   -5.4831   -4.5306   25.5640 O   0  0  0  0  0  0  0  0  0  0  0  0
    2.9962    6.1508   24.9163 C   0  0  2  0  0  0  0  0  0  0  0  0
    2.5396    4.8139   24.5501 O   0  0  0  0  0  0  0  0  0  0  0  0
    0.5180    2.5742   27.3534 C   0  0  2  0  0  0  0  0  0  0  0  0
    0.3630    1.7668   26.1574 O   0  0  0  0  0  0  0  0  0  0  0  0
    0.1409   -1.4797   23.9327 C   0  0  0  0  0  0  0  0  0  0  0  0
   -0.3762   -2.0973   22.7670 O   0  0  0  0  0  0  0  0  0  0  0  0
   -4.3455   -3.7044   23.5546 C   0  0  1  0  0  0  0  0  0  0  0  0
   -3.5922   -2.6629   24.2476 O   0  0  0  0  0  0  0  0  0  0  0  0
    2.2229    7.1432   24.0195 C   0  0  0  0  0  0  0  0  0  0  0  0
    2.3118    6.7787   22.6525 O   0  0  0  0  0  0  0  0  0  0  0  0
   -0.8879    2.7651   28.0026 C   0  0  1  0  0  0  0  0  0  0  0  0
   -1.3419    1.5048   28.4938 O   0  0  0  0  0  0  0  0  0  0  0  0
   -3.4792   -4.9875   23.4759 C   0  0  0  0  0  0  0  0  0  0  0  0
   -2.0865   -4.7036   23.0850 N   0  0  0  0  0  0  0  0  0  0  0  0
  1  2  1  1  0  0  0
  1  7  1  0  0  0  0
  1 30  1  0  0  0  0
  3  4  1  6  0  0  0
  3  9  1  0  0  0  0
  3 39  1  0  0  0  0
  5 10  1  0  0  0  0
  5 26  1  0  0  0  0
  5 32  1  6  0  0  0
  6 12  1  0  0  0  0
  6 36  1  0  0  0  0
  6 19  1  1  0  0  0
  7  8  1  1  0  0  0
  7 14  1  0  0  0  0
  9 16  1  0  0  0  0
 10 11  1  1  0  0  0
 10 18  1  0  0  0  0
 12 13  1  1  0  0  0
 12 20  1  0  0  0  0
 14 15  1  6  0  0  0
 14 22  1  0  0  0  0
 16 17  1  6  0  0  0
 16 24  1  0  0  0  0
 18 19  1  1  0  0  0
 18 25  1  0  0  0  0
 20 21  1  6  0  0  0
 20 27  1  0  0  0  0
 22 23  1  1  0  0  0
 22 29  1  0  0  0  0
 24  2  1  1  0  0  0
 24 31  1  0  0  0  0
 25 26  1  0  0  0  0
 25 33  1  6  0  0  0
 27 28  1  1  0  0  0
 27 35  1  0  0  0  0
 29 30  1  0  0  0  0
 29 37  1  6  0  0  0
 31 32  1  6  0  0  0
 31 39  1  0  0  0  0
 33 34  1  0  0  0  0
 35 36  1  0  0  0  0
 35 41  1  1  0  0  0
 37 38  1  0  0  0  0
 39 40  1  1  0  0  0
 41 42  1  0  0  0  0
M  END
>  <CHROM.1>
169.76336435,-132.91917047,103.75948332,64.32261732,-46.19601786,-57.25453443
68.66730160,-28.87332168,154.61253983,-178.85879953,-162.64485095,68.34487801
-59.05156605,-179.79846358,70.00300336,-143.49574946,129.95962256,63.15799999
-166.42822162,173.38495168,-58.28490815,131.66513711,-0.44691926,1.52300099
25.48116113,-0.68461078,-0.48590166,-2.46187726

>  <Name>
1fyp_lig

>  <RI>
0

>  <Rbt.Current_Directory>
/home/itssahil/PROJECTS/Mol_Feturizer/New_Systems/rnas/1fyp

>  <Rbt.Executable>
rbdock ($Id: //depot/dev/client3/rdock/2013.1/src/exe/rbdock.cxx#4 $)

>  <Rbt.Library>
libRbt.so (2013.1, Build901 2013/11/27)

>  <Rbt.Parameter_File>
/export/apps/rDock/src/rDock_2013.1_src/data/scripts/dock_solv.prm

>  <Rbt.Receptor>
prm/blind_docking_80.prm

>  <SCORE>
-34.9096

>  <SCORE.INTER>
-33.9473

>  <SCORE.INTER.CONST>
1

>  <SCORE.INTER.POLAR>
-6.43432

>  <SCORE.INTER.ROT>
14

>  <SCORE.INTER.SOLV>
19.4821

>  <SCORE.INTER.VDW>
-20.6111

>  <SCORE.INTER.norm>
-0.808269

>  <SCORE.INTRA>
-1.44342

>  <SCORE.INTRA.DIHEDRAL>
-17.7742

>  <SCORE.INTRA.DIHEDRAL.0>
48.7173

>  <SCORE.INTRA.POLAR>
0.759722

>  <SCORE.INTRA.POLAR.0>
-1.54691

>  <SCORE.INTRA.REPUL>
0

>  <SCORE.INTRA.REPUL.0>
0

>  <SCORE.INTRA.SOLV>
-0.973694

>  <SCORE.INTRA.SOLV.lig_0>
-64.052

>  <SCORE.INTRA.VDW>
5.34748

>  <SCORE.INTRA.VDW.0>
-7.0667

>  <SCORE.INTRA.norm>
-0.0343671

>  <SCORE.RESTR>
0.481141

>  <SCORE.RESTR.CAVITY>
0.481141

>  <SCORE.RESTR.norm>
0.0114557

>  <SCORE.SYSTEM>
0

>  <SCORE.SYSTEM.CONST>
0

>  <SCORE.SYSTEM.DIHEDRAL>
0

>  <SCORE.SYSTEM.SOLV>
0

>  <SCORE.SYSTEM.norm>
0

>  <SCORE.heavy>
42

>  <SCORE.norm>
-0.83118

>  <RMSD>
6.450

$$$$
1fyp_lig
 OpenBabel11021811393D
libRbt.so/2013.1/901 2013/11/27
 42 45  0  0  0  0  0  0  0  0999 V2000
    1.6818    5.5366   27.3829 C   0  0  2  0  0  0  0  0  0  0  0  0
    0.6200    4.6747   26.8806 O   0  0  0  0  0  0  0  0  0  0  0  0
    0.4161    2.4455   30.5178 C   0  0  2  0  0  0  0  0  0  0  0  0
    0.0680    1.5364   31.6255 N   0  0  0  0  0  0  0  0  0  0  0  0
    0.4272    1.5983   25.9512 C   0  0  1  0  0  0  0  0  0  0  0  0
   -2.0071   -0.4068   22.8008 C   0  0  1  0  0  0  0  0  0  0  0  0
    2.1533    6.5563   26.2967 C   0  0  2  0  0  0  0  0  0  0  0  0
    1.0067    7.2772   25.7041 N   0  0  0  0  0  0  0  0  0  0  0  0
   -0.8099    3.3081   30.1576 C   0  0  0  0  0  0  0  0  0  0  0  0
    0.6781    0.3039   25.1732 C   0  0  2  0  0  0  0  0  0  0  0  0
    1.3447    0.6058   23.9468 O   0  0  0  0  0  0  0  0  0  0  0  0
   -3.5487   -0.4479   23.0311 C   0  0  2  0  0  0  0  0  0  0  0  0
   -3.9084   -0.6603   24.4544 N   0  0  0  0  0  0  0  0  0  0  0  0
    2.9771    5.8396   25.1814 C   0  0  1  0  0  0  0  0  0  0  0  0
    3.5330    6.8000   24.2867 O   0  0  0  0  0  0  0  0  0  0  0  0
   -0.5062    4.3119   29.0120 C   0  0  2  0  0  0  0  0  0  0  0  0
   -1.7602    5.0257   28.6930 N   0  0  0  0  0  0  0  0  0  0  0  0
   -0.7483   -0.1931   24.9230 C   0  0  2  0  0  0  0  0  0  0  0  0
   -1.3505    0.4540   23.7675 O   0  0  0  0  0  0  0  0  0  0  0  0
   -4.2197   -1.5141   22.1113 C   0  0  1  0  0  0  0  0  0  0  0  0
   -4.2263   -1.0194   20.7738 O   0  0  0  0  0  0  0  0  0  0  0  0
    4.1309    4.9912   25.7724 C   0  0  2  0  0  0  0  0  0  0  0  0
    4.7825    4.2923   24.7162 O   0  0  0  0  0  0  0  0  0  0  0  0
    0.0997    3.6192   27.7387 C   0  0  2  0  0  0  0  0  0  0  0  0
   -1.4667    0.2279   26.2127 C   0  0  2  0  0  0  0  0  0  0  0  0
   -0.8169    1.4368   26.6510 O   0  0  0  0  0  0  0  0  0  0  0  0
   -3.5042   -2.8990   22.1155 C   0  0  2  0  0  0  0  0  0  0  0  0
   -3.7786   -3.5482   23.3580 O   0  0  0  0  0  0  0  0  0  0  0  0
    3.5807    3.9938   26.8311 C   0  0  2  0  0  0  0  0  0  0  0  0
    2.8227    4.7327   27.8357 O   0  0  0  0  0  0  0  0  0  0  0  0
    1.2555    2.6113   28.0825 C   0  0  2  0  0  0  0  0  0  0  0  0
    1.5058    1.7943   26.9093 O   0  0  0  0  0  0  0  0  0  0  0  0
   -1.3971   -0.8408   27.3180 C   0  0  0  0  0  0  0  0  0  0  0  0
   -0.1231   -1.4604   27.3420 O   0  0  0  0  0  0  0  0  0  0  0  0
   -1.9651   -2.7280   21.9252 C   0  0  1  0  0  0  0  0  0  0  0  0
   -1.4550   -1.7638   22.8961 O   0  0  0  0  0  0  0  0  0  0  0  0
    4.6615    3.1941   27.5923 C   0  0  0  0  0  0  0  0  0  0  0  0
    5.4330    2.3997   26.7074 O   0  0  0  0  0  0  0  0  0  0  0  0
    0.9047    1.6660   29.2732 C   0  0  1  0  0  0  0  0  0  0  0  0
    2.0660    0.9126   29.6190 O   0  0  0  0  0  0  0  0  0  0  0  0
   -1.1911   -4.0619   22.0829 C   0  0  0  0  0  0  0  0  0  0  0  0
    0.0829   -4.0649   21.3413 N   0  0  0  0  0  0  0  0  0  0  0  0
  1  2  1  6  0  0  0
  1  7  1  0  0  0  0
  1 30  1  0  0  0  0
  3  4  1  1  0  0  0
  3  9  1  0  0  0  0
  3 39  1  0  0  0  0
  5 10  1  0  0  0  0
  5 26  1  0  0  0  0
  5 32  1  1  0  0  0
  6 12  1  0  0  0  0
  6 36  1  0  0  0  0
  6 19  1  1  0  0  0
  7  8  1  6  0  0  0
  7 14  1  0  0  0  0
  9 16  1  0  0  0  0
 10 11  1  6  0  0  0
 10 18  1  0  0  0  0
 12 13  1  1  0  0  0
 12 20  1  0  0  0  0
 14 15  1  6  0  0  0
 14 22  1  0  0  0  0
 16 17  1  6  0  0  0
 16 24  1  0  0  0  0
 18 19  1  6  0  0  0
 18 25  1  0  0  0  0
 20 21  1  6  0  0  0
 20 27  1  0  0  0  0
 22 23  1  6  0  0  0
 22 29  1  0  0  0  0
 24  2  1  6  0  0  0
 24 31  1  0  0  0  0
 25 26  1  0  0  0  0
 25 33  1  1  0  0  0
 27 28  1  1  0  0  0
 27 35  1  0  0  0  0
 29 30  1  0  0  0  0
 29 37  1  1  0  0  0
 31 32  1  6  0  0  0
 31 39  1  0  0  0  0
 33 34  1  0  0  0  0
 35 36  1  0  0  0  0
 35 41  1  1  0  0  0
 37 38  1  0  0  0  0
 39 40  1  1  0  0  0
 41 42  1  0  0  0  0
M  END
>  <CHROM.1>
177.16513898,61.14219562,-170.65354237,145.93564441,-47.12917820,157.28309710
-57.25625676,-43.08665968,132.07546941,97.97682544,67.21540858,70.73662763
39.20522264,64.56977189,-60.95111160,-25.63495668,-156.11400284,-68.46041544
153.99326662,-66.43700445,175.01133618,-34.98714578,0.19847181,1.56653864
25.80805665,-0.73456818,-0.81275646,-1.85271115

>  <Name>
1fyp_lig

>  <RI>
0

>  <Rbt.Current_Directory>
/home/itssahil/PROJECTS/Mol_Feturizer/New_Systems/rnas/1fyp

>  <Rbt.Executable>
rbdock ($Id: //depot/dev/client3/rdock/2013.1/src/exe/rbdock.cxx#4 $)

>  <Rbt.Library>
libRbt.so (2013.1, Build901 2013/11/27)

>  <Rbt.Parameter_File>
/export/apps/rDock/src/rDock_2013.1_src/data/scripts/dock_solv.prm

>  <Rbt.Receptor>
prm/blind_docking_100.prm

>  <SCORE>
-40.401

>  <SCORE.INTER>
-40.5578

>  <SCORE.INTER.CONST>
1

>  <SCORE.INTER.POLAR>
-6.1078

>  <SCORE.INTER.ROT>
14

>  <SCORE.INTER.SOLV>
22.8508

>  <SCORE.INTER.VDW>
-27.2295

>  <SCORE.INTER.norm>
-0.965663

>  <SCORE.INTRA>
0.156787

>  <SCORE.INTRA.DIHEDRAL>
-20.1519

>  <SCORE.INTRA.DIHEDRAL.0>
48.7173

>  <SCORE.INTRA.POLAR>
1.35811

>  <SCORE.INTRA.POLAR.0>
-1.54691

>  <SCORE.INTRA.REPUL>
0

>  <SCORE.INTRA.REPUL.0>
0

>  <SCORE.INTRA.SOLV>
-1.09846

>  <SCORE.INTRA.SOLV.lig_0>
-64.052

>  <SCORE.INTRA.VDW>
6.16441

>  <SCORE.INTRA.VDW.0>
-7.0667

>  <SCORE.INTRA.norm>
0.00373302

>  <SCORE.RESTR>
0

>  <SCORE.RESTR.CAVITY>
0

>  <SCORE.RESTR.norm>
0

>  <SCORE.SYSTEM>
0

>  <SCORE.SYSTEM.CONST>
0

>  <SCORE.SYSTEM.DIHEDRAL>
0

>  <SCORE.SYSTEM.SOLV>
0

>  <SCORE.SYSTEM.norm>
0

>  <SCORE.heavy>
42

>  <SCORE.norm>
-0.96193

>  <RMSD>
6.509

$$$$
1fyp_lig
 OpenBabel11021811393D
libRbt.so/2013.1/901 2013/11/27
 42 45  0  0  0  0  0  0  0  0999 V2000
   10.9100    7.7174   31.9096 C   0  0  2  0  0  0  0  0  0  0  0  0
   10.7670    6.3404   31.4560 O   0  0  0  0  0  0  0  0  0  0  0  0
    9.6031    7.5115   27.5171 C   0  0  2  0  0  0  0  0  0  0  0  0
    9.2837    7.5907   26.0797 N   0  0  0  0  0  0  0  0  0  0  0  0
    6.6659    5.7058   30.4635 C   0  0  1  0  0  0  0  0  0  0  0  0
    2.9227    4.8233   29.2764 C   0  0  1  0  0  0  0  0  0  0  0  0
   11.7060    7.7982   33.2519 C   0  0  2  0  0  0  0  0  0  0  0  0
   12.9753    7.0447   33.1688 N   0  0  0  0  0  0  0  0  0  0  0  0
   11.0441    6.9928   27.6944 C   0  0  0  0  0  0  0  0  0  0  0  0
    5.9113    4.4243   30.1003 C   0  0  2  0  0  0  0  0  0  0  0  0
    5.5510    4.4579   28.7188 O   0  0  0  0  0  0  0  0  0  0  0  0
    2.4731    5.9512   28.2982 C   0  0  2  0  0  0  0  0  0  0  0  0
    1.8400    7.0957   28.9979 N   0  0  0  0  0  0  0  0  0  0  0  0
   10.8429    7.2754   34.4426 C   0  0  1  0  0  0  0  0  0  0  0  0
   11.5192    7.5020   35.6768 O   0  0  0  0  0  0  0  0  0  0  0  0
   11.4592    6.9097   29.1888 C   0  0  2  0  0  0  0  0  0  0  0  0
   12.8167    6.3290   29.2487 N   0  0  0  0  0  0  0  0  0  0  0  0
    4.6759    4.5222   30.9996 C   0  0  2  0  0  0  0  0  0  0  0  0
    3.6460    5.3652   30.4121 O   0  0  0  0  0  0  0  0  0  0  0  0
    1.5415    5.3817   27.1842 C   0  0  1  0  0  0  0  0  0  0  0  0
    2.3351    4.6252   26.2724 O   0  0  0  0  0  0  0  0  0  0  0  0
    9.4611    7.9733   34.5027 C   0  0  2  0  0  0  0  0  0  0  0  0
    8.6899    7.3888   35.5479 O   0  0  0  0  0  0  0  0  0  0  0  0
   10.4435    6.0854   30.0590 C   0  0  2  0  0  0  0  0  0  0  0  0
    5.2501    5.1742   32.2652 C   0  0  2  0  0  0  0  0  0  0  0  0
    6.3185    6.0315   31.8188 O   0  0  0  0  0  0  0  0  0  0  0  0
    0.4008    4.4625   27.7168 C   0  0  2  0  0  0  0  0  0  0  0  0
   -0.5795    5.2803   28.3579 O   0  0  0  0  0  0  0  0  0  0  0  0
    8.7270    7.8366   33.1387 C   0  0  2  0  0  0  0  0  0  0  0  0
    9.5923    8.3408   32.0772 O   0  0  0  0  0  0  0  0  0  0  0  0
    8.9464    6.4817   29.7911 C   0  0  2  0  0  0  0  0  0  0  0  0
    8.0975    5.4573   30.3713 O   0  0  0  0  0  0  0  0  0  0  0  0
    5.7835    4.1498   33.2824 C   0  0  0  0  0  0  0  0  0  0  0  0
    6.6934    3.2543   32.6675 O   0  0  0  0  0  0  0  0  0  0  0  0
    0.9623    3.4077   28.7201 C   0  0  1  0  0  0  0  0  0  0  0  0
    1.7483    4.0807   29.7505 O   0  0  0  0  0  0  0  0  0  0  0  0
    7.3987    8.6190   33.0355 C   0  0  0  0  0  0  0  0  0  0  0  0
    6.4755    8.1991   34.0259 O   0  0  0  0  0  0  0  0  0  0  0  0
    8.6095    6.5959   28.2719 C   0  0  1  0  0  0  0  0  0  0  0  0
    7.2903    7.1215   28.1324 O   0  0  0  0  0  0  0  0  0  0  0  0
   -0.1548    2.5749   29.3997 C   0  0  0  0  0  0  0  0  0  0  0  0
   -1.2033    3.4209   29.9977 N   0  0  0  0  0  0  0  0  0  0  0  0
  1  2  1  1  0  0  0
  1  7  1  0  0  0  0
  1 30  1  0  0  0  0
  3  4  1  6  0  0  0
  3  9  1  0  0  0  0
  3 39  1  0  0  0  0
  5 10  1  0  0  0  0
  5 26  1  0  0  0  0
  5 32  1  1  0  0  0
  6 12  1  0  0  0  0
  6 36  1  0  0  0  0
  6 19  1  1  0  0  0
  7  8  1  6  0  0  0
  7 14  1  0  0  0  0
  9 16  1  0  0  0  0
 10 11  1  6  0  0  0
 10 18  1  0  0  0  0
 12 13  1  1  0  0  0
 12 20  1  0  0  0  0
 14 15  1  1  0  0  0
 14 22  1  0  0  0  0
 16 17  1  6  0  0  0
 16 24  1  0  0  0  0
 18 19  1  6  0  0  0
 18 25  1  0  0  0  0
 20 21  1  6  0  0  0
 20 27  1  0  0  0  0
 22 23  1  1  0  0  0
 22 29  1  0  0  0  0
 24  2  1  1  0  0  0
 24 31  1  0  0  0  0
 25 26  1  0  0  0  0
 25 33  1  1  0  0  0
 27 28  1  1  0  0  0
 27 35  1  0  0  0  0
 29 30  1  0  0  0  0
 29 37  1  1  0  0  0
 31 32  1  6  0  0  0
 31 39  1  0  0  0  0
 33 34  1  0  0  0  0
 35 36  1  0  0  0  0
 35 41  1  1  0  0  0
 37 38  1  0  0  0  0
 39 40  1  1  0  0  0
 41 42  1  0  0  0  0
M  END
>  <CHROM.1>
-160.81838681,50.53261383,-41.61671135,178.52722245,-48.64209029,-153.73133900
58.52947959,85.02858357,72.48703655,-148.98761829,178.66610243,-173.62902197
52.30054400,44.56174904,-59.29119204,169.42363701,139.17632926,-63.10116208
-51.52366625,-165.73573135,58.91472376,137.60627212,6.62223306,6.03238856
30.57017735,-0.34926697,-0.26992486,-1.60993923

>  <Name>
1fyp_lig

>  <RI>
0

>  <Rbt.Current_Directory>
/home/itssahil/PROJECTS/Mol_Feturizer/New_Systems/rnas/1fyp

>  <Rbt.Executable>
rbdock ($Id: //depot/dev/client3/rdock/2013.1/src/exe/rbdock.cxx#4 $)

>  <Rbt.Library>
libRbt.so (2013.1, Build901 2013/11/27)

>  <Rbt.Parameter_File>
/export/apps/rDock/src/rDock_2013.1_src/data/scripts/dock_solv.prm

>  <Rbt.Receptor>
prm/pocket_docking_8.prm

>  <SCORE>
-36.9892

>  <SCORE.INTER>
-27.7609

>  <SCORE.INTER.CONST>
1

>  <SCORE.INTER.POLAR>
-4.05907

>  <SCORE.INTER.ROT>
14

>  <SCORE.INTER.SOLV>
12.0484

>  <SCORE.INTER.VDW>
-21.9265

>  <SCORE.INTER.norm>
-0.660974

>  <SCORE.INTRA>
-9.22834

>  <SCORE.INTRA.DIHEDRAL>
-28.1635

>  <SCORE.INTRA.DIHEDRAL.0>
48.7173

>  <SCORE.INTRA.POLAR>
-0.120399

>  <SCORE.INTRA.POLAR.0>
-1.54691

>  <SCORE.INTRA.REPUL>
0

>  <SCORE.INTRA.REPUL.0>
0

>  <SCORE.INTRA.SOLV>
1.31582

>  <SCORE.INTRA.SOLV.lig_0>
-64.052

>  <SCORE.INTRA.VDW>
4.60486

>  <SCORE.INTRA.VDW.0>
-7.0667

>  <SCORE.INTRA.norm>
-0.219722

>  <SCORE.RESTR>
0

>  <SCORE.RESTR.CAVITY>
0

>  <SCORE.RESTR.norm>
0

>  <SCORE.SYSTEM>
0

>  <SCORE.SYSTEM.CONST>
0

>  <SCORE.SYSTEM.DIHEDRAL>
0

>  <SCORE.SYSTEM.SOLV>
0

>  <SCORE.SYSTEM.norm>
0

>  <SCORE.heavy>
42

>  <SCORE.norm>
-0.880696

>  <RMSD>
6.523

$$$$
1fyp_lig
 OpenBabel11021811393D
libRbt.so/2013.1/901 2013/11/27
 42 45  0  0  0  0  0  0  0  0999 V2000
    1.8390    5.2649   27.4360 C   0  0  2  0  0  0  0  0  0  0  0  0
    0.7963    4.3491   26.9929 O   0  0  0  0  0  0  0  0  0  0  0  0
    0.4302    2.5585   30.8530 C   0  0  2  0  0  0  0  0  0  0  0  0
    0.0334    1.7826   32.0426 N   0  0  0  0  0  0  0  0  0  0  0  0
    0.6668    0.5317   27.0107 C   0  0  1  0  0  0  0  0  0  0  0  0
   -3.0153   -1.2088   25.1884 C   0  0  1  0  0  0  0  0  0  0  0  0
    2.2413    6.2649   26.3045 C   0  0  2  0  0  0  0  0  0  0  0  0
    1.0522    6.9239   25.7235 N   0  0  0  0  0  0  0  0  0  0  0  0
   -0.7795    3.3646   30.3394 C   0  0  0  0  0  0  0  0  0  0  0  0
   -0.5564    1.2809   26.4757 C   0  0  2  0  0  0  0  0  0  0  0  0
   -1.5085    1.4516   27.5262 O   0  0  0  0  0  0  0  0  0  0  0  0
   -3.7419   -2.4034   25.8786 C   0  0  2  0  0  0  0  0  0  0  0  0
   -2.7998   -3.4385   26.3697 N   0  0  0  0  0  0  0  0  0  0  0  0
    3.0592    5.5423   25.1887 C   0  0  1  0  0  0  0  0  0  0  0  0
    3.5533    6.4924   24.2479 O   0  0  0  0  0  0  0  0  0  0  0  0
   -0.4254    4.2298   29.0991 C   0  0  2  0  0  0  0  0  0  0  0  0
   -1.6647    4.8928   28.6425 N   0  0  0  0  0  0  0  0  0  0  0  0
   -1.0742    0.3136   25.4077 C   0  0  2  0  0  0  0  0  0  0  0  0
   -1.8974   -0.7378   25.9852 O   0  0  0  0  0  0  0  0  0  0  0  0
   -4.8193   -3.0193   24.9337 C   0  0  1  0  0  0  0  0  0  0  0  0
   -5.9253   -2.1221   24.8614 O   0  0  0  0  0  0  0  0  0  0  0  0
    4.2601    4.7563   25.7720 C   0  0  2  0  0  0  0  0  0  0  0  0
    4.9071    4.0472   24.7196 O   0  0  0  0  0  0  0  0  0  0  0  0
    0.2391    3.3974   27.9443 C   0  0  2  0  0  0  0  0  0  0  0  0
    0.2285   -0.2697   24.8429 C   0  0  2  0  0  0  0  0  0  0  0  0
    1.1622   -0.2883   25.9401 O   0  0  0  0  0  0  0  0  0  0  0  0
   -4.3147   -3.2893   23.4837 C   0  0  2  0  0  0  0  0  0  0  0  0
   -3.4429   -4.4207   23.5095 O   0  0  0  0  0  0  0  0  0  0  0  0
    3.7777    3.7748   26.8776 C   0  0  2  0  0  0  0  0  0  0  0  0
    3.0215    4.5183   27.8802 O   0  0  0  0  0  0  0  0  0  0  0  0
    1.3797    2.4445   28.4554 C   0  0  2  0  0  0  0  0  0  0  0  0
    1.6846    1.4979   27.3984 O   0  0  0  0  0  0  0  0  0  0  0  0
    0.8011    0.5528   23.6749 C   0  0  0  0  0  0  0  0  0  0  0  0
    1.4281    1.7323   24.1473 O   0  0  0  0  0  0  0  0  0  0  0  0
   -3.5646   -2.0439   22.9174 C   0  0  1  0  0  0  0  0  0  0  0  0
   -2.5359   -1.6190   23.8628 O   0  0  0  0  0  0  0  0  0  0  0  0
    4.9087    3.0404   27.6315 C   0  0  0  0  0  0  0  0  0  0  0  0
    5.8067    3.9575   28.2330 O   0  0  0  0  0  0  0  0  0  0  0  0
    0.9764    1.6424   29.7315 C   0  0  1  0  0  0  0  0  0  0  0  0
    2.1220    0.9427   30.2152 O   0  0  0  0  0  0  0  0  0  0  0  0
   -2.9048   -2.3177   21.5415 C   0  0  0  0  0  0  0  0  0  0  0  0
   -3.8914   -2.6662   20.5032 N   0  0  0  0  0  0  0  0  0  0  0  0
  1  2  1  6  0  0  0
  1  7  1  0  0  0  0
  1 30  1  0  0  0  0
  3  4  1  1  0  0  0
  3  9  1  0  0  0  0
  3 39  1  0  0  0  0
  5 10  1  0  0  0  0
  5 26  1  0  0  0  0
  5 32  1  6  0  0  0
  6 12  1  0  0  0  0
  6 36  1  0  0  0  0
  6 19  1  1  0  0  0
  7  8  1  6  0  0  0
  7 14  1  0  0  0  0
  9 16  1  0  0  0  0
 10 11  1  1  0  0  0
 10 18  1  0  0  0  0
 12 13  1  6  0  0  0
 12 20  1  0  0  0  0
 14 15  1  6  0  0  0
 14 22  1  0  0  0  0
 16 17  1  6  0  0  0
 16 24  1  0  0  0  0
 18 19  1  1  0  0  0
 18 25  1  0  0  0  0
 20 21  1  6  0  0  0
 20 27  1  0  0  0  0
 22 23  1  6  0  0  0
 22 29  1  0  0  0  0
 24  2  1  6  0  0  0
 24 31  1  0  0  0  0
 25 26  1  0  0  0  0
 25 33  1  6  0  0  0
 27 28  1  1  0  0  0
 27 35  1  0  0  0  0
 29 30  1  0  0  0  0
 29 37  1  1  0  0  0
 31 32  1  6  0  0  0
 31 39  1  0  0  0  0
 33 34  1  0  0  0  0
 35 36  1  0  0  0  0
 35 41  1  6  0  0  0
 37 38  1  0  0  0  0
 39 40  1  1  0  0  0
 41 42  1  0  0  0  0
M  END
>  <CHROM.1>
-176.31212328,61.55504135,-40.91704623,49.27011031,-57.50866849,28.06126305
-52.29486366,59.26308061,145.26855347,175.70435177,60.51485023,74.72910914
76.33059220,173.73468793,57.39213384,-65.87149917,61.99189204,-178.85993891
61.85656830,69.88237101,-55.24904858,-148.88902067,0.05492131,1.47259349
26.31094334,-0.49658747,-0.77416307,-1.76524298

>  <Name>
1fyp_lig

>  <RI>
0

>  <Rbt.Current_Directory>
/home/itssahil/PROJECTS/Mol_Feturizer/New_Systems/rnas/1fyp

>  <Rbt.Executable>
rbdock ($Id: //depot/dev/client3/rdock/2013.1/src/exe/rbdock.cxx#4 $)

>  <Rbt.Library>
libRbt.so (2013.1, Build901 2013/11/27)

>  <Rbt.Parameter_File>
/export/apps/rDock/src/rDock_2013.1_src/data/scripts/dock_solv.prm

>  <Rbt.Receptor>
prm/blind_docking_80.prm

>  <SCORE>
-40.5311

>  <SCORE.INTER>
-32.733

>  <SCORE.INTER.CONST>
1

>  <SCORE.INTER.POLAR>
-6.48719

>  <SCORE.INTER.ROT>
14

>  <SCORE.INTER.SOLV>
19.4558

>  <SCORE.INTER.VDW>
-19.6167

>  <SCORE.INTER.norm>
-0.779357

>  <SCORE.INTRA>
-7.79812

>  <SCORE.INTRA.DIHEDRAL>
-36.8159

>  <SCORE.INTRA.DIHEDRAL.0>
48.7173

>  <SCORE.INTRA.POLAR>
1.38142

>  <SCORE.INTRA.POLAR.0>
-1.54691

>  <SCORE.INTRA.REPUL>
0.152866

>  <SCORE.INTRA.REPUL.0>
0

>  <SCORE.INTRA.SOLV>
-0.545851

>  <SCORE.INTRA.SOLV.lig_0>
-64.052

>  <SCORE.INTRA.VDW>
5.4216

>  <SCORE.INTRA.VDW.0>
-7.0667

>  <SCORE.INTRA.norm>
-0.18567

>  <SCORE.RESTR>
0

>  <SCORE.RESTR.CAVITY>
0

>  <SCORE.RESTR.norm>
0

>  <SCORE.SYSTEM>
0

>  <SCORE.SYSTEM.CONST>
0

>  <SCORE.SYSTEM.DIHEDRAL>
0

>  <SCORE.SYSTEM.SOLV>
0

>  <SCORE.SYSTEM.norm>
0

>  <SCORE.heavy>
42

>  <SCORE.norm>
-0.965027

>  <RMSD>
6.563

$$$$
1fyp_lig
 OpenBabel11021811393D
libRbt.so/2013.1/901 2013/11/27
 42 45  0  0  0  0  0  0  0  0999 V2000
    4.4551    4.4724   29.9325 C   0  0  2  0  0  0  0  0  0  0  0  0
    3.7253    3.3091   30.4187 O   0  0  0  0  0  0  0  0  0  0  0  0
    1.5101    1.8325   33.7584 C   0  0  2  0  0  0  0  0  0  0  0  0
    0.7072    1.6573   34.9827 N   0  0  0  0  0  0  0  0  0  0  0  0
   -0.2720    2.7247   29.5660 C   0  0  1  0  0  0  0  0  0  0  0  0
   -2.5475    0.8138   26.5643 C   0  0  1  0  0  0  0  0  0  0  0  0
    3.4872    5.6429   29.5650 C   0  0  2  0  0  0  0  0  0  0  0  0
    2.5456    5.9268   30.6689 N   0  0  0  0  0  0  0  0  0  0  0  0
    2.7299    2.7231   34.0680 C   0  0  0  0  0  0  0  0  0  0  0  0
   -0.6045    3.5706   28.3341 C   0  0  2  0  0  0  0  0  0  0  0  0
   -1.7732    4.3498   28.5916 O   0  0  0  0  0  0  0  0  0  0  0  0
   -2.7762   -0.4437   27.4573 C   0  0  2  0  0  0  0  0  0  0  0  0
   -1.7207   -0.6141   28.4855 N   0  0  0  0  0  0  0  0  0  0  0  0
    2.7035    5.3255   28.2531 C   0  0  1  0  0  0  0  0  0  0  0  0
    1.9466    6.4624   27.8452 O   0  0  0  0  0  0  0  0  0  0  0  0
    3.6384    2.9285   32.8251 C   0  0  2  0  0  0  0  0  0  0  0  0
    4.7240    3.8552   33.2076 N   0  0  0  0  0  0  0  0  0  0  0  0
   -0.8749    2.4949   27.2786 C   0  0  2  0  0  0  0  0  0  0  0  0
   -2.2335    1.9822   27.3662 O   0  0  0  0  0  0  0  0  0  0  0  0
   -2.9281   -1.7262   26.5825 C   0  0  1  0  0  0  0  0  0  0  0  0
   -4.2041   -1.6928   25.9466 O   0  0  0  0  0  0  0  0  0  0  0  0
    3.6538    4.9257   27.0967 C   0  0  2  0  0  0  0  0  0  0  0  0
    2.8760    4.5598   25.9610 O   0  0  0  0  0  0  0  0  0  0  0  0
    2.8490    3.4549   31.5729 C   0  0  2  0  0  0  0  0  0  0  0  0
    0.1382    1.4069   27.6612 C   0  0  2  0  0  0  0  0  0  0  0  0
    0.2848    1.4881   29.0922 O   0  0  0  0  0  0  0  0  0  0  0  0
   -1.8372   -1.8770   25.4793 C   0  0  2  0  0  0  0  0  0  0  0  0
   -0.6059   -2.2418   26.1050 O   0  0  0  0  0  0  0  0  0  0  0  0
    4.5714    3.7487   27.5339 C   0  0  2  0  0  0  0  0  0  0  0  0
    5.2669    4.1158   28.7633 O   0  0  0  0  0  0  0  0  0  0  0  0
    1.5142    2.6662   31.3154 C   0  0  2  0  0  0  0  0  0  0  0  0
    0.7143    3.4278   30.3739 O   0  0  0  0  0  0  0  0  0  0  0  0
    1.5054    1.5889   26.9782 C   0  0  0  0  0  0  0  0  0  0  0  0
    2.3260    0.4515   27.1794 O   0  0  0  0  0  0  0  0  0  0  0  0
   -1.6643   -0.5450   24.6854 C   0  0  1  0  0  0  0  0  0  0  0  0
   -1.4540    0.5584   25.6186 O   0  0  0  0  0  0  0  0  0  0  0  0
    5.6604    3.3600   26.5091 C   0  0  0  0  0  0  0  0  0  0  0  0
    6.5318    2.3724   27.0334 O   0  0  0  0  0  0  0  0  0  0  0  0
    0.6740    2.4518   32.6126 C   0  0  1  0  0  0  0  0  0  0  0  0
   -0.4212    1.5878   32.3127 O   0  0  0  0  0  0  0  0  0  0  0  0
   -0.4807   -0.5941   23.6855 C   0  0  0  0  0  0  0  0  0  0  0  0
   -0.2612   -1.9453   23.1385 N   0  0  0  0  0  0  0  0  0  0  0  0
  1  2  1  6  0  0  0
  1  7  1  0  0  0  0
  1 30  1  0  0  0  0
  3  4  1  1  0  0  0
  3  9  1  0  0  0  0
  3 39  1  0  0  0  0
  5 10  1  0  0  0  0
  5 26  1  0  0  0  0
  5 32  1  1  0  0  0
  6 12  1  0  0  0  0
  6 36  1  0  0  0  0
  6 19  1  1  0  0  0
  7  8  1  1  0  0  0
  7 14  1  0  0  0  0
  9 16  1  0  0  0  0
 10 11  1  1  0  0  0
 10 18  1  0  0  0  0
 12 13  1  1  0  0  0
 12 20  1  0  0  0  0
 14 15  1  6  0  0  0
 14 22  1  0  0  0  0
 16 17  1  1  0  0  0
 16 24  1  0  0  0  0
 18 19  1  1  0  0  0
 18 25  1  0  0  0  0
 20 21  1  6  0  0  0
 20 27  1  0  0  0  0
 22 23  1  6  0  0  0
 22 29  1  0  0  0  0
 24  2  1  6  0  0  0
 24 31  1  0  0  0  0
 25 26  1  0  0  0  0
 25 33  1  6  0  0  0
 27 28  1  1  0  0  0
 27 35  1  0  0  0  0
 29 30  1  0  0  0  0
 29 37  1  6  0  0  0
 31 32  1  6  0  0  0
 31 39  1  0  0  0  0
 33 34  1  0  0  0  0
 35 36  1  0  0  0  0
 35 41  1  6  0  0  0
 37 38  1  0  0  0  0
 39 40  1  6  0  0  0
 41 42  1  0  0  0  0
M  END
>  <CHROM.1>
-57.30109404,-99.52560346,-51.04633124,153.94712441,60.02351044,172.89385292
56.28842871,-175.93552168,-170.48267388,110.49331956,-70.50389643,64.45020107
-170.14065775,59.33980604,174.31863880,155.60020455,-159.14997933,-174.19432741
31.80344390,-178.42512215,168.37894776,24.22855879,1.05086321,2.14738475
28.60818283,-0.75193968,-0.60866148,-1.75663790

>  <Name>
1fyp_lig

>  <RI>
0

>  <Rbt.Current_Directory>
/home/itssahil/PROJECTS/Mol_Feturizer/New_Systems/rnas/1fyp

>  <Rbt.Executable>
rbdock ($Id: //depot/dev/client3/rdock/2013.1/src/exe/rbdock.cxx#4 $)

>  <Rbt.Library>
libRbt.so (2013.1, Build901 2013/11/27)

>  <Rbt.Parameter_File>
/export/apps/rDock/src/rDock_2013.1_src/data/scripts/dock_solv.prm

>  <Rbt.Receptor>
prm/pocket_docking_8.prm

>  <SCORE>
-45.4081

>  <SCORE.INTER>
-38.2723

>  <SCORE.INTER.CONST>
1

>  <SCORE.INTER.POLAR>
-4.75443

>  <SCORE.INTER.ROT>
14

>  <SCORE.INTER.SOLV>
16.4531

>  <SCORE.INTER.VDW>
-28.0844

>  <SCORE.INTER.norm>
-0.911244

>  <SCORE.INTRA>
-7.13583

>  <SCORE.INTRA.DIHEDRAL>
-23.9845

>  <SCORE.INTRA.DIHEDRAL.0>
48.7173

>  <SCORE.INTRA.POLAR>
0.524115

>  <SCORE.INTRA.POLAR.0>
-1.54691

>  <SCORE.INTRA.REPUL>
0.013385

>  <SCORE.INTRA.REPUL.0>
0

>  <SCORE.INTRA.SOLV>
-0.00292056

>  <SCORE.INTRA.SOLV.lig_0>
-64.052

>  <SCORE.INTRA.VDW>
3.00899

>  <SCORE.INTRA.VDW.0>
-7.0667

>  <SCORE.INTRA.norm>
-0.169901

>  <SCORE.RESTR>
0

>  <SCORE.RESTR.CAVITY>
0

>  <SCORE.RESTR.norm>
0

>  <SCORE.SYSTEM>
0

>  <SCORE.SYSTEM.CONST>
0

>  <SCORE.SYSTEM.DIHEDRAL>
0

>  <SCORE.SYSTEM.SOLV>
0

>  <SCORE.SYSTEM.norm>
0

>  <SCORE.heavy>
42

>  <SCORE.norm>
-1.08114

>  <RMSD>
6.575

$$$$
1fyp_lig
 OpenBabel11021811393D
libRbt.so/2013.1/901 2013/11/27
 42 45  0  0  0  0  0  0  0  0999 V2000
    2.4203    3.5049   27.1691 C   0  0  2  0  0  0  0  0  0  0  0  0
    2.3836    2.9431   28.5128 O   0  0  0  0  0  0  0  0  0  0  0  0
   -0.4600    1.7194   31.4551 C   0  0  2  0  0  0  0  0  0  0  0  0
   -1.5586    1.6185   32.4336 N   0  0  0  0  0  0  0  0  0  0  0  0
   -0.8759    1.1968   26.8198 C   0  0  1  0  0  0  0  0  0  0  0  0
   -2.7636   -0.7829   23.3123 C   0  0  1  0  0  0  0  0  0  0  0  0
    3.3115    2.6470   26.2142 C   0  0  2  0  0  0  0  0  0  0  0  0
    2.9376    1.2178   26.2717 N   0  0  0  0  0  0  0  0  0  0  0  0
    0.4263    2.9322   31.8023 C   0  0  0  0  0  0  0  0  0  0  0  0
   -1.6129    1.7719   25.6075 C   0  0  2  0  0  0  0  0  0  0  0  0
   -3.0183    1.7759   25.8612 O   0  0  0  0  0  0  0  0  0  0  0  0
   -4.3155   -0.7293   23.4533 C   0  0  2  0  0  0  0  0  0  0  0  0
   -4.8009   -1.3980   24.6852 N   0  0  0  0  0  0  0  0  0  0  0  0
    4.8240    2.8251   26.5557 C   0  0  1  0  0  0  0  0  0  0  0  0
    5.6290    2.1660   25.5814 O   0  0  0  0  0  0  0  0  0  0  0  0
    1.6239    3.0839   30.8250 C   0  0  2  0  0  0  0  0  0  0  0  0
    2.3559    4.3130   31.1954 N   0  0  0  0  0  0  0  0  0  0  0  0
   -1.2484    0.7656   24.5125 C   0  0  2  0  0  0  0  0  0  0  0  0
   -2.1065   -0.4086   24.5512 O   0  0  0  0  0  0  0  0  0  0  0  0
   -5.0092   -1.3090   22.1822 C   0  0  1  0  0  0  0  0  0  0  0  0
   -4.8682   -0.3683   21.1198 O   0  0  0  0  0  0  0  0  0  0  0  0
    5.2321    4.3189   26.6029 C   0  0  2  0  0  0  0  0  0  0  0  0
    6.5938    4.4164   27.0092 O   0  0  0  0  0  0  0  0  0  0  0  0
    1.1815    3.1116   29.3178 C   0  0  2  0  0  0  0  0  0  0  0  0
    0.1934    0.3929   24.8849 C   0  0  2  0  0  0  0  0  0  0  0  0
    0.2675    0.4844   26.3209 O   0  0  0  0  0  0  0  0  0  0  0  0
   -4.4263   -2.6740   21.7056 C   0  0  2  0  0  0  0  0  0  0  0  0
   -4.8533   -3.6917   22.6126 O   0  0  0  0  0  0  0  0  0  0  0  0
    4.3112    5.0998   27.5829 C   0  0  2  0  0  0  0  0  0  0  0  0
    2.9183    4.8847   27.2044 O   0  0  0  0  0  0  0  0  0  0  0  0
    0.1536    1.9774   28.9611 C   0  0  2  0  0  0  0  0  0  0  0  0
   -0.4364    2.2917   27.6729 O   0  0  0  0  0  0  0  0  0  0  0  0
    1.2409    1.3185   24.2411 C   0  0  0  0  0  0  0  0  0  0  0  0
    0.8529    2.6765   24.3546 O   0  0  0  0  0  0  0  0  0  0  0  0
   -2.8679   -2.6215   21.6494 C   0  0  1  0  0  0  0  0  0  0  0  0
   -2.3472   -2.1363   22.9246 O   0  0  0  0  0  0  0  0  0  0  0  0
    4.5330    6.6287   27.6025 C   0  0  0  0  0  0  0  0  0  0  0  0
    5.7934    6.9591   28.1609 O   0  0  0  0  0  0  0  0  0  0  0  0
   -0.9954    1.8460   30.0085 C   0  0  1  0  0  0  0  0  0  0  0  0
   -1.7730    0.6916   29.6946 O   0  0  0  0  0  0  0  0  0  0  0  0
   -2.2340   -4.0012   21.3365 C   0  0  0  0  0  0  0  0  0  0  0  0
   -0.7713   -4.0034   21.5195 N   0  0  0  0  0  0  0  0  0  0  0  0
  1  2  1  1  0  0  0
  1  7  1  0  0  0  0
  1 30  1  0  0  0  0
  3  4  1  1  0  0  0
  3  9  1  0  0  0  0
  3 39  1  0  0  0  0
  5 10  1  0  0  0  0
  5 26  1  0  0  0  0
  5 32  1  1  0  0  0
  6 12  1  0  0  0  0
  6 36  1  0  0  0  0
  6 19  1  1  0  0  0
  7  8  1  1  0  0  0
  7 14  1  0  0  0  0
  9 16  1  0  0  0  0
 10 11  1  1  0  0  0
 10 18  1  0  0  0  0
 12 13  1  1  0  0  0
 12 20  1  0  0  0  0
 14 15  1  6  0  0  0
 14 22  1  0  0  0  0
 16 17  1  1  0  0  0
 16 24  1  0  0  0  0
 18 19  1  1  0  0  0
 18 25  1  0  0  0  0
 20 21  1  6  0  0  0
 20 27  1  0  0  0  0
 22 23  1  1  0  0  0
 22 29  1  0  0  0  0
 24  2  1  6  0  0  0
 24 31  1  0  0  0  0
 25 26  1  0  0  0  0
 25 33  1  6  0  0  0
 27 28  1  1  0  0  0
 27 35  1  0  0  0  0
 29 30  1  0  0  0  0
 29 37  1  6  0  0  0
 31 32  1  6  0  0  0
 31 39  1  0  0  0  0
 33 34  1  0  0  0  0
 35 36  1  0  0  0  0
 35 41  1  1  0  0  0
 37 38  1  0  0  0  0
 39 40  1  6  0  0  0
 41 42  1  0  0  0  0
M  END
>  <CHROM.1>
-148.56515658,-152.54063807,-60.25294109,-165.06329678,179.54186254,162.90872844
61.15286391,-166.40936661,127.51212967,-118.54163310,-59.33776179,-45.95483917
44.78216595,176.88776538,-68.22185842,150.23961920,173.09450218,62.29801553
-169.80745249,-153.58840263,51.86481979,44.51794234,0.15067645,1.37245668
26.21794684,-0.77275395,-0.47578287,-1.93681406

>  <Name>
1fyp_lig

>  <RI>
0

>  <Rbt.Current_Directory>
/home/itssahil/PROJECTS/Mol_Feturizer/New_Systems/rnas/1fyp

>  <Rbt.Executable>
rbdock ($Id: //depot/dev/client3/rdock/2013.1/src/exe/rbdock.cxx#4 $)

>  <Rbt.Library>
libRbt.so (2013.1, Build901 2013/11/27)

>  <Rbt.Parameter_File>
/export/apps/rDock/src/rDock_2013.1_src/data/scripts/dock_solv.prm

>  <Rbt.Receptor>
prm/blind_docking_100.prm

>  <SCORE>
-35.8748

>  <SCORE.INTER>
-35.4059

>  <SCORE.INTER.CONST>
1

>  <SCORE.INTER.POLAR>
-4.77176

>  <SCORE.INTER.ROT>
14

>  <SCORE.INTER.SOLV>
16.8152

>  <SCORE.INTER.VDW>
-26.2364

>  <SCORE.INTER.norm>
-0.842997

>  <SCORE.INTRA>
-0.83625

>  <SCORE.INTRA.DIHEDRAL>
-16.5252

>  <SCORE.INTRA.DIHEDRAL.0>
48.7173

>  <SCORE.INTRA.POLAR>
1.07307

>  <SCORE.INTRA.POLAR.0>
-1.54691

>  <SCORE.INTRA.REPUL>
0.226871

>  <SCORE.INTRA.REPUL.0>
0

>  <SCORE.INTRA.SOLV>
-0.158865

>  <SCORE.INTRA.SOLV.lig_0>
-64.052

>  <SCORE.INTRA.VDW>
2.723

>  <SCORE.INTRA.VDW.0>
-7.0667

>  <SCORE.INTRA.norm>
-0.0199107

>  <SCORE.RESTR>
0.36732

>  <SCORE.RESTR.CAVITY>
0.36732

>  <SCORE.RESTR.norm>
0.00874571

>  <SCORE.SYSTEM>
0

>  <SCORE.SYSTEM.CONST>
0

>  <SCORE.SYSTEM.DIHEDRAL>
0

>  <SCORE.SYSTEM.SOLV>
0

>  <SCORE.SYSTEM.norm>
0

>  <SCORE.heavy>
42

>  <SCORE.norm>
-0.854162

>  <RMSD>
6.708

$$$$
1fyp_lig
 OpenBabel11021811393D
libRbt.so/2013.1/901 2013/11/27
 42 45  0  0  0  0  0  0  0  0999 V2000
    9.9668    5.7676   32.1983 C   0  0  2  0  0  0  0  0  0  0  0  0
    9.1592    6.4653   31.2067 O   0  0  0  0  0  0  0  0  0  0  0  0
    9.0378    7.3068   27.0212 C   0  0  2  0  0  0  0  0  0  0  0  0
    9.1510    7.2910   25.5510 N   0  0  0  0  0  0  0  0  0  0  0  0
    5.6901    5.1003   29.2002 C   0  0  1  0  0  0  0  0  0  0  0  0
    3.0726    5.4908   28.0428 C   0  0  1  0  0  0  0  0  0  0  0  0
    9.4876    4.2928   32.3918 C   0  0  2  0  0  0  0  0  0  0  0  0
    9.3687    3.5930   31.0950 N   0  0  0  0  0  0  0  0  0  0  0  0
   10.4269    7.0657   27.6452 C   0  0  0  0  0  0  0  0  0  0  0  0
    5.1485    3.6701   29.2708 C   0  0  2  0  0  0  0  0  0  0  0  0
    5.1127    3.1081   27.9584 O   0  0  0  0  0  0  0  0  0  0  0  0
    1.7816    6.3495   27.8782 C   0  0  2  0  0  0  0  0  0  0  0  0
    0.6211    5.5528   27.4105 N   0  0  0  0  0  0  0  0  0  0  0  0
    8.1293    4.2456   33.1591 C   0  0  1  0  0  0  0  0  0  0  0  0
    7.7852    2.8971   33.4672 O   0  0  0  0  0  0  0  0  0  0  0  0
   10.3873    7.0965   29.1975 C   0  0  2  0  0  0  0  0  0  0  0  0
   11.7432    6.7763   29.6901 N   0  0  0  0  0  0  0  0  0  0  0  0
    3.7364    3.8961   29.8177 C   0  0  2  0  0  0  0  0  0  0  0  0
    2.8016    4.2609   28.7642 O   0  0  0  0  0  0  0  0  0  0  0  0
    2.0428    7.5724   26.9459 C   0  0  1  0  0  0  0  0  0  0  0  0
    2.8317    8.5242   27.6568 O   0  0  0  0  0  0  0  0  0  0  0  0
    8.1850    5.0538   34.4797 C   0  0  2  0  0  0  0  0  0  0  0  0
    6.8946    5.0491   35.0826 O   0  0  0  0  0  0  0  0  0  0  0  0
    9.3128    6.1213   29.7997 C   0  0  2  0  0  0  0  0  0  0  0  0
    3.9489    5.0717   30.7816 C   0  0  2  0  0  0  0  0  0  0  0  0
    5.0156    5.8586   30.2170 O   0  0  0  0  0  0  0  0  0  0  0  0
    2.7841    7.2163   25.6217 C   0  0  2  0  0  0  0  0  0  0  0  0
    1.8712    6.5357   24.7591 O   0  0  0  0  0  0  0  0  0  0  0  0
    8.6544    6.5102   34.2024 C   0  0  2  0  0  0  0  0  0  0  0  0
    9.9238    6.4748   33.4832 O   0  0  0  0  0  0  0  0  0  0  0  0
    7.9184    6.2296   29.0827 C   0  0  2  0  0  0  0  0  0  0  0  0
    7.1204    5.0814   29.4716 O   0  0  0  0  0  0  0  0  0  0  0  0
    4.3190    4.6238   32.2067 C   0  0  0  0  0  0  0  0  0  0  0  0
    4.0957    5.6678   33.1383 O   0  0  0  0  0  0  0  0  0  0  0  0
    4.0274    6.3180   25.9072 C   0  0  1  0  0  0  0  0  0  0  0  0
    3.6288    5.1733   26.7217 O   0  0  0  0  0  0  0  0  0  0  0  0
    8.8858    7.3688   35.4659 C   0  0  0  0  0  0  0  0  0  0  0  0
   10.0829    6.9979   36.1284 O   0  0  0  0  0  0  0  0  0  0  0  0
    8.0335    6.2431   27.5267 C   0  0  1  0  0  0  0  0  0  0  0  0
    6.7467    6.5142   26.9734 O   0  0  0  0  0  0  0  0  0  0  0  0
    4.7047    5.8046   24.6107 C   0  0  0  0  0  0  0  0  0  0  0  0
    5.7249    4.7748   24.8780 N   0  0  0  0  0  0  0  0  0  0  0  0
  1  2  1  6  0  0  0
  1  7  1  0  0  0  0
  1 30  1  0  0  0  0
  3  4  1  6  0  0  0
  3  9  1  0  0  0  0
  3 39  1  0  0  0  0
  5 10  1  0  0  0  0
  5 26  1  0  0  0  0
  5 32  1  1  0  0  0
  6 12  1  0  0  0  0
  6 36  1  0  0  0  0
  6 19  1  6  0  0  0
  7  8  1  6  0  0  0
  7 14  1  0  0  0  0
  9 16  1  0  0  0  0
 10 11  1  6  0  0  0
 10 18  1  0  0  0  0
 12 13  1  6  0  0  0
 12 20  1  0  0  0  0
 14 15  1  1  0  0  0
 14 22  1  0  0  0  0
 16 17  1  1  0  0  0
 16 24  1  0  0  0  0
 18 19  1  6  0  0  0
 18 25  1  0  0  0  0
 20 21  1  1  0  0  0
 20 27  1  0  0  0  0
 22 23  1  6  0  0  0
 22 29  1  0  0  0  0
 24  2  1  1  0  0  0
 24 31  1  0  0  0  0
 25 26  1  0  0  0  0
 25 33  1  1  0  0  0
 27 28  1  6  0  0  0
 27 35  1  0  0  0  0
 29 30  1  0  0  0  0
 29 37  1  1  0  0  0
 31 32  1  6  0  0  0
 31 39  1  0  0  0  0
 33 34  1  0  0  0  0
 35 36  1  0  0  0  0
 35 41  1  6  0  0  0
 37 38  1  0  0  0  0
 39 40  1  6  0  0  0
 41 42  1  0  0  0  0
M  END
>  <CHROM.1>
-72.17751523,-92.42276172,-157.52214265,169.50602478,-61.73801021,176.75169579
58.06598929,-63.59200945,-61.70799700,-134.45264158,-46.10946442,176.32051961
-161.60007707,176.40333445,74.49603976,165.77483292,162.12106696,-54.64238421
-169.97258444,74.11644807,140.76919985,-169.72391357,6.39866177,5.72871414
29.67753970,-0.85202685,-0.15929895,-1.39238211

>  <Name>
1fyp_lig

>  <RI>
0

>  <Rbt.Current_Directory>
/home/itssahil/PROJECTS/Mol_Feturizer/New_Systems/rnas/1fyp

>  <Rbt.Executable>
rbdock ($Id: //depot/dev/client3/rdock/2013.1/src/exe/rbdock.cxx#4 $)

>  <Rbt.Library>
libRbt.so (2013.1, Build901 2013/11/27)

>  <Rbt.Parameter_File>
/export/apps/rDock/src/rDock_2013.1_src/data/scripts/dock_solv.prm

>  <Rbt.Receptor>
prm/pocket_docking_6.prm

>  <SCORE>
-41.1412

>  <SCORE.INTER>
-28.7783

>  <SCORE.INTER.CONST>
1

>  <SCORE.INTER.POLAR>
-4.74384

>  <SCORE.INTER.ROT>
14

>  <SCORE.INTER.SOLV>
13.3121

>  <SCORE.INTER.VDW>
-20.7434

>  <SCORE.INTER.norm>
-0.685198

>  <SCORE.INTRA>
-12.9226

>  <SCORE.INTRA.DIHEDRAL>
-23.8809

>  <SCORE.INTRA.DIHEDRAL.0>
48.7173

>  <SCORE.INTRA.POLAR>
-1.23762

>  <SCORE.INTRA.POLAR.0>
-1.54691

>  <SCORE.INTRA.REPUL>
0.00769087

>  <SCORE.INTRA.REPUL.0>
0

>  <SCORE.INTRA.SOLV>
0.983181

>  <SCORE.INTRA.SOLV.lig_0>
-64.052

>  <SCORE.INTRA.VDW>
2.6957

>  <SCORE.INTRA.VDW.0>
-7.0667

>  <SCORE.INTRA.norm>
-0.307681

>  <SCORE.RESTR>
0.559692

>  <SCORE.RESTR.CAVITY>
0.559692

>  <SCORE.RESTR.norm>
0.013326

>  <SCORE.SYSTEM>
0

>  <SCORE.SYSTEM.CONST>
0

>  <SCORE.SYSTEM.DIHEDRAL>
0

>  <SCORE.SYSTEM.SOLV>
0

>  <SCORE.SYSTEM.norm>
0

>  <SCORE.heavy>
42

>  <SCORE.norm>
-0.979553

>  <RMSD>
6.746

$$$$
1fyp_lig
 OpenBabel11021811393D
libRbt.so/2013.1/901 2013/11/27
 42 45  0  0  0  0  0  0  0  0999 V2000
    8.4204    7.2577   28.4930 C   0  0  2  0  0  0  0  0  0  0  0  0
    8.0366    5.8530   28.4487 O   0  0  0  0  0  0  0  0  0  0  0  0
    5.2481    3.6566   30.8236 C   0  0  2  0  0  0  0  0  0  0  0  0
    4.0566    3.1125   31.5011 N   0  0  0  0  0  0  0  0  0  0  0  0
    5.0980    4.4198   26.5301 C   0  0  1  0  0  0  0  0  0  0  0  0
    3.3269    6.2118   25.1715 C   0  0  1  0  0  0  0  0  0  0  0  0
    9.4807    7.5962   27.3960 C   0  0  2  0  0  0  0  0  0  0  0  0
    9.0462    7.1206   26.0653 N   0  0  0  0  0  0  0  0  0  0  0  0
    5.3259    5.1772   31.0653 C   0  0  0  0  0  0  0  0  0  0  0  0
    4.5682    3.5104   25.4183 C   0  0  2  0  0  0  0  0  0  0  0  0
    5.1058    3.9286   24.1631 O   0  0  0  0  0  0  0  0  0  0  0  0
    2.4081    7.0470   26.1146 C   0  0  2  0  0  0  0  0  0  0  0  0
    1.0193    7.1604   25.6059 N   0  0  0  0  0  0  0  0  0  0  0  0
   10.8715    6.9889   27.7606 C   0  0  1  0  0  0  0  0  0  0  0  0
   11.8609    7.4371   26.8377 O   0  0  0  0  0  0  0  0  0  0  0  0
    6.5764    5.8149   30.4005 C   0  0  2  0  0  0  0  0  0  0  0  0
    6.5111    7.2743   30.6226 N   0  0  0  0  0  0  0  0  0  0  0  0
    3.0611    3.7703   25.4920 C   0  0  2  0  0  0  0  0  0  0  0  0
    2.6849    4.9744   24.7672 O   0  0  0  0  0  0  0  0  0  0  0  0
    3.0270    8.4517   26.3921 C   0  0  1  0  0  0  0  0  0  0  0  0
    4.1351    8.2924   27.2755 O   0  0  0  0  0  0  0  0  0  0  0  0
   11.3163    7.3852   29.1908 C   0  0  2  0  0  0  0  0  0  0  0  0
   12.5419    6.7267   29.4958 O   0  0  0  0  0  0  0  0  0  0  0  0
    6.6961    5.4718   28.8720 C   0  0  2  0  0  0  0  0  0  0  0  0
    2.8400    3.9566   26.9996 C   0  0  2  0  0  0  0  0  0  0  0  0
    4.0528    4.5455   27.5077 O   0  0  0  0  0  0  0  0  0  0  0  0
    3.5248    9.1917   25.1136 C   0  0  2  0  0  0  0  0  0  0  0  0
    2.3867    9.6481   24.3809 O   0  0  0  0  0  0  0  0  0  0  0  0
   10.2180    7.0034   30.2234 C   0  0  2  0  0  0  0  0  0  0  0  0
    8.9507    7.6022   29.8171 O   0  0  0  0  0  0  0  0  0  0  0  0
    6.4687    3.9468   28.5678 C   0  0  2  0  0  0  0  0  0  0  0  0
    6.2649    3.7970   27.1386 O   0  0  0  0  0  0  0  0  0  0  0  0
    2.5451    2.6364   27.7335 C   0  0  0  0  0  0  0  0  0  0  0  0
    1.3630    2.0347   27.2353 O   0  0  0  0  0  0  0  0  0  0  0  0
    4.3918    8.2443   24.2275 C   0  0  1  0  0  0  0  0  0  0  0  0
    3.6651    7.0018   23.9813 O   0  0  0  0  0  0  0  0  0  0  0  0
   10.4905    7.4820   31.6670 C   0  0  0  0  0  0  0  0  0  0  0  0
    9.6451    6.8245   32.5956 O   0  0  0  0  0  0  0  0  0  0  0  0
    5.2262    3.3577   29.3052 C   0  0  1  0  0  0  0  0  0  0  0  0
    5.2014    1.9450   29.1066 O   0  0  0  0  0  0  0  0  0  0  0  0
    4.7765    8.8829   22.8683 C   0  0  0  0  0  0  0  0  0  0  0  0
    5.8830    9.8489   22.9930 N   0  0  0  0  0  0  0  0  0  0  0  0
  1  2  1  1  0  0  0
  1  7  1  0  0  0  0
  1 30  1  0  0  0  0
  3  4  1  1  0  0  0
  3  9  1  0  0  0  0
  3 39  1  0  0  0  0
  5 10  1  0  0  0  0
  5 26  1  0  0  0  0
  5 32  1  1  0  0  0
  6 12  1  0  0  0  0
  6 36  1  0  0  0  0
  6 19  1  6  0  0  0
  7  8  1  6  0  0  0
  7 14  1  0  0  0  0
  9 16  1  0  0  0  0
 10 11  1  6  0  0  0
 10 18  1  0  0  0  0
 12 13  1  6  0  0  0
 12 20  1  0  0  0  0
 14 15  1  6  0  0  0
 14 22  1  0  0  0  0
 16 17  1  6  0  0  0
 16 24  1  0  0  0  0
 18 19  1  6  0  0  0
 18 25  1  0  0  0  0
 20 21  1  1  0  0  0
 20 27  1  0  0  0  0
 22 23  1  1  0  0  0
 22 29  1  0  0  0  0
 24  2  1  1  0  0  0
 24 31  1  0  0  0  0
 25 26  1  0  0  0  0
 25 33  1  1  0  0  0
 27 28  1  6  0  0  0
 27 35  1  0  0  0  0
 29 30  1  0  0  0  0
 29 37  1  1  0  0  0
 31 32  1  6  0  0  0
 31 39  1  0  0  0  0
 33 34  1  0  0  0  0
 35 36  1  0  0  0  0
 35 41  1  6  0  0  0
 37 38  1  0  0  0  0
 39 40  1  1  0  0  0
 41 42  1  0  0  0  0
M  END
>  <CHROM.1>
-150.40234224,-64.17273817,-62.13907404,175.00332564,93.80614255,-161.90370969
-61.87301775,44.28704730,-57.48902006,-98.97054005,60.98656324,179.50519070
-61.02875191,-46.37252060,-165.21260052,-63.85388073,-143.69071274,-58.02159644
78.07192020,-176.28975910,-69.57260198,-19.26869514,5.92165189,6.01901732
27.50282927,-0.32475767,-0.46532367,-0.82824302

>  <Name>
1fyp_lig

>  <RI>
0

>  <Rbt.Current_Directory>
/home/itssahil/PROJECTS/Mol_Feturizer/New_Systems/rnas/1fyp

>  <Rbt.Executable>
rbdock ($Id: //depot/dev/client3/rdock/2013.1/src/exe/rbdock.cxx#4 $)

>  <Rbt.Library>
libRbt.so (2013.1, Build901 2013/11/27)

>  <Rbt.Parameter_File>
/export/apps/rDock/src/rDock_2013.1_src/data/scripts/dock_solv.prm

>  <Rbt.Receptor>
prm/pocket_docking_5.prm

>  <SCORE>
-32.6636

>  <SCORE.INTER>
-33.3058

>  <SCORE.INTER.CONST>
1

>  <SCORE.INTER.POLAR>
-7.40813

>  <SCORE.INTER.ROT>
14

>  <SCORE.INTER.SOLV>
18.5201

>  <SCORE.INTER.VDW>
-16.6168

>  <SCORE.INTER.norm>
-0.792995

>  <SCORE.INTRA>
0.642216

>  <SCORE.INTRA.DIHEDRAL>
-24.1406

>  <SCORE.INTRA.DIHEDRAL.0>
48.7173

>  <SCORE.INTRA.POLAR>
0.581973

>  <SCORE.INTRA.POLAR.0>
-1.54691

>  <SCORE.INTRA.REPUL>
0.229603

>  <SCORE.INTRA.REPUL.0>
0

>  <SCORE.INTRA.SOLV>
-0.692883

>  <SCORE.INTRA.SOLV.lig_0>
-64.052

>  <SCORE.INTRA.VDW>
9.93223

>  <SCORE.INTRA.VDW.0>
-7.0667

>  <SCORE.INTRA.norm>
0.0152908

>  <SCORE.RESTR>
0

>  <SCORE.RESTR.CAVITY>
0

>  <SCORE.RESTR.norm>
0

>  <SCORE.SYSTEM>
0

>  <SCORE.SYSTEM.CONST>
0

>  <SCORE.SYSTEM.DIHEDRAL>
0

>  <SCORE.SYSTEM.SOLV>
0

>  <SCORE.SYSTEM.norm>
0

>  <SCORE.heavy>
42

>  <SCORE.norm>
-0.777704

>  <RMSD>
6.879

$$$$
1fyp_lig
 OpenBabel11021811393D
libRbt.so/2013.1/901 2013/11/27
 42 45  0  0  0  0  0  0  0  0999 V2000
    2.8049    4.0164   28.0547 C   0  0  2  0  0  0  0  0  0  0  0  0
    2.0490    2.8863   28.5780 O   0  0  0  0  0  0  0  0  0  0  0  0
   -0.4661    1.8989   31.8855 C   0  0  2  0  0  0  0  0  0  0  0  0
   -1.4438    1.8821   32.9893 N   0  0  0  0  0  0  0  0  0  0  0  0
   -1.7096    1.2689   27.5317 C   0  0  1  0  0  0  0  0  0  0  0  0
   -3.7649   -1.5208   25.0018 C   0  0  1  0  0  0  0  0  0  0  0  0
    3.3968    3.7044   26.6425 C   0  0  2  0  0  0  0  0  0  0  0  0
    2.3575    3.1853   25.7281 N   0  0  0  0  0  0  0  0  0  0  0  0
    0.4962    3.0890   32.0708 C   0  0  0  0  0  0  0  0  0  0  0  0
   -2.3715    1.8013   26.2580 C   0  0  2  0  0  0  0  0  0  0  0  0
   -3.6743    2.2970   26.5686 O   0  0  0  0  0  0  0  0  0  0  0  0
   -3.2511   -2.7326   25.8377 C   0  0  2  0  0  0  0  0  0  0  0  0
   -1.9199   -2.4856   26.4437 N   0  0  0  0  0  0  0  0  0  0  0  0
    4.5806    2.6926   26.7468 C   0  0  1  0  0  0  0  0  0  0  0  0
    5.2106    2.5403   25.4773 O   0  0  0  0  0  0  0  0  0  0  0  0
    1.5741    3.1527   30.9542 C   0  0  2  0  0  0  0  0  0  0  0  0
    2.3866    4.3661   31.1798 N   0  0  0  0  0  0  0  0  0  0  0  0
   -2.4480    0.5399   25.3936 C   0  0  2  0  0  0  0  0  0  0  0  0
   -3.6075   -0.2732   25.7267 O   0  0  0  0  0  0  0  0  0  0  0  0
   -3.2521   -4.0375   24.9831 C   0  0  1  0  0  0  0  0  0  0  0  0
   -4.6013   -4.4657   24.8109 O   0  0  0  0  0  0  0  0  0  0  0  0
    5.6454    3.1552   27.7728 C   0  0  2  0  0  0  0  0  0  0  0  0
    6.6468    2.1490   27.8894 O   0  0  0  0  0  0  0  0  0  0  0  0
    0.9573    3.1354   29.5094 C   0  0  2  0  0  0  0  0  0  0  0  0
   -1.1510   -0.1888   25.7721 C   0  0  2  0  0  0  0  0  0  0  0  0
   -0.8938    0.1503   27.1485 O   0  0  0  0  0  0  0  0  0  0  0  0
   -2.6081   -3.8750   23.5729 C   0  0  2  0  0  0  0  0  0  0  0  0
   -1.1918   -3.7740   23.7292 O   0  0  0  0  0  0  0  0  0  0  0  0
    4.9825    3.4303   29.1524 C   0  0  2  0  0  0  0  0  0  0  0  0
    3.8877    4.3790   28.9762 O   0  0  0  0  0  0  0  0  0  0  0  0
   -0.1440    2.0289   29.3277 C   0  0  2  0  0  0  0  0  0  0  0  0
   -0.8714    2.3127   28.1043 O   0  0  0  0  0  0  0  0  0  0  0  0
    0.0466    0.2166   24.8946 C   0  0  0  0  0  0  0  0  0  0  0  0
    1.2709   -0.1059   25.5307 O   0  0  0  0  0  0  0  0  0  0  0  0
   -3.1627   -2.6064   22.8535 C   0  0  1  0  0  0  0  0  0  0  0  0
   -3.0313   -1.4475   23.7322 O   0  0  0  0  0  0  0  0  0  0  0  0
    5.9256    4.0359   30.2159 C   0  0  0  0  0  0  0  0  0  0  0  0
    5.3510    3.9714   31.5102 O   0  0  0  0  0  0  0  0  0  0  0  0
   -1.1646    1.9865   30.5072 C   0  0  1  0  0  0  0  0  0  0  0  0
   -2.0132    0.8518   30.3395 O   0  0  0  0  0  0  0  0  0  0  0  0
   -2.4362   -2.3118   21.5161 C   0  0  0  0  0  0  0  0  0  0  0  0
   -2.6852   -3.3498   20.4994 N   0  0  0  0  0  0  0  0  0  0  0  0
  1  2  1  1  0  0  0
  1  7  1  0  0  0  0
  1 30  1  0  0  0  0
  3  4  1  1  0  0  0
  3  9  1  0  0  0  0
  3 39  1  0  0  0  0
  5 10  1  0  0  0  0
  5 26  1  0  0  0  0
  5 32  1  6  0  0  0
  6 12  1  0  0  0  0
  6 36  1  0  0  0  0
  6 19  1  1  0  0  0
  7  8  1  6  0  0  0
  7 14  1  0  0  0  0
  9 16  1  0  0  0  0
 10 11  1  1  0  0  0
 10 18  1  0  0  0  0
 12 13  1  6  0  0  0
 12 20  1  0  0  0  0
 14 15  1  6  0  0  0
 14 22  1  0  0  0  0
 16 17  1  1  0  0  0
 16 24  1  0  0  0  0
 18 19  1  1  0  0  0
 18 25  1  0  0  0  0
 20 21  1  6  0  0  0
 20 27  1  0  0  0  0
 22 23  1  1  0  0  0
 22 29  1  0  0  0  0
 24  2  1  6  0  0  0
 24 31  1  0  0  0  0
 25 26  1  0  0  0  0
 25 33  1  6  0  0  0
 27 28  1  1  0  0  0
 27 35  1  0  0  0  0
 29 30  1  0  0  0  0
 29 37  1  1  0  0  0
 31 32  1  6  0  0  0
 31 39  1  0  0  0  0
 33 34  1  0  0  0  0
 35 36  1  0  0  0  0
 35 41  1  6  0  0  0
 37 38  1  0  0  0  0
 39 40  1  6  0  0  0
 41 42  1  0  0  0  0
M  END
>  <CHROM.1>
-151.98661672,-88.24178517,85.76099215,61.75974152,51.99993005,152.97432841
-64.91595164,-165.42868442,-178.06594918,98.98045881,-51.48595818,-77.29837858
160.27126449,58.95118700,-166.48965750,164.71010018,179.85341505,165.49228362
66.35933833,-53.24772767,151.08966511,53.57116558,0.14891083,0.88748579,27.16606679
-0.82805858,-0.38492772,-2.05754106

>  <Name>
1fyp_lig

>  <RI>
0

>  <Rbt.Current_Directory>
/home/itssahil/PROJECTS/Mol_Feturizer/New_Systems/rnas/1fyp

>  <Rbt.Executable>
rbdock ($Id: //depot/dev/client3/rdock/2013.1/src/exe/rbdock.cxx#4 $)

>  <Rbt.Library>
libRbt.so (2013.1, Build901 2013/11/27)

>  <Rbt.Parameter_File>
/export/apps/rDock/src/rDock_2013.1_src/data/scripts/dock_solv.prm

>  <Rbt.Receptor>
prm/pocket_docking_7.prm

>  <SCORE>
-48.1723

>  <SCORE.INTER>
-38.7899

>  <SCORE.INTER.CONST>
1

>  <SCORE.INTER.POLAR>
-5.01963

>  <SCORE.INTER.ROT>
14

>  <SCORE.INTER.SOLV>
15.9807

>  <SCORE.INTER.VDW>
-27.3881

>  <SCORE.INTER.norm>
-0.92357

>  <SCORE.INTRA>
-9.38242

>  <SCORE.INTRA.DIHEDRAL>
-24.2273

>  <SCORE.INTRA.DIHEDRAL.0>
48.7173

>  <SCORE.INTRA.POLAR>
-0.602151

>  <SCORE.INTRA.POLAR.0>
-1.54691

>  <SCORE.INTRA.REPUL>
0.00286953

>  <SCORE.INTRA.REPUL.0>
0

>  <SCORE.INTRA.SOLV>
-0.125619

>  <SCORE.INTRA.SOLV.lig_0>
-64.052

>  <SCORE.INTRA.VDW>
4.82702

>  <SCORE.INTRA.VDW.0>
-7.0667

>  <SCORE.INTRA.norm>
-0.223391

>  <SCORE.RESTR>
0

>  <SCORE.RESTR.CAVITY>
0

>  <SCORE.RESTR.norm>
0

>  <SCORE.SYSTEM>
0

>  <SCORE.SYSTEM.CONST>
0

>  <SCORE.SYSTEM.DIHEDRAL>
0

>  <SCORE.SYSTEM.SOLV>
0

>  <SCORE.SYSTEM.norm>
0

>  <SCORE.heavy>
42

>  <SCORE.norm>
-1.14696

>  <RMSD>
6.880

$$$$
1fyp_lig
 OpenBabel11021811393D
libRbt.so/2013.1/901 2013/11/27
 42 45  0  0  0  0  0  0  0  0999 V2000
    2.5660    4.5902   27.3225 C   0  0  2  0  0  0  0  0  0  0  0  0
    1.3916    3.7835   27.0187 O   0  0  0  0  0  0  0  0  0  0  0  0
   -0.3589    1.6460   30.2757 C   0  0  2  0  0  0  0  0  0  0  0  0
   -1.1593    1.1897   31.4271 N   0  0  0  0  0  0  0  0  0  0  0  0
   -2.0262    1.3525   26.0950 C   0  0  1  0  0  0  0  0  0  0  0  0
   -3.8323   -1.6053   23.6038 C   0  0  1  0  0  0  0  0  0  0  0  0
    3.2011    5.1877   26.0257 C   0  0  2  0  0  0  0  0  0  0  0  0
    2.1852    5.8708   25.1968 N   0  0  0  0  0  0  0  0  0  0  0  0
    0.2638    3.0195   30.5959 C   0  0  0  0  0  0  0  0  0  0  0  0
   -2.8765    1.8442   24.9207 C   0  0  2  0  0  0  0  0  0  0  0  0
   -4.2036    2.1154   25.3731 O   0  0  0  0  0  0  0  0  0  0  0  0
   -3.9363   -1.3397   22.0709 C   0  0  2  0  0  0  0  0  0  0  0  0
   -5.0003   -0.3638   21.7309 N   0  0  0  0  0  0  0  0  0  0  0  0
    3.9197    4.0779   25.1961 C   0  0  1  0  0  0  0  0  0  0  0  0
    4.6266    4.6605   24.1041 O   0  0  0  0  0  0  0  0  0  0  0  0
    1.1458    3.5505   29.4330 C   0  0  2  0  0  0  0  0  0  0  0  0
    1.6238    4.8976   29.8077 N   0  0  0  0  0  0  0  0  0  0  0  0
   -2.8453    0.6344   23.9826 C   0  0  2  0  0  0  0  0  0  0  0  0
   -3.8344   -0.3646   24.3570 O   0  0  0  0  0  0  0  0  0  0  0  0
   -4.1201   -2.6755   21.2868 C   0  0  1  0  0  0  0  0  0  0  0  0
   -2.8785   -3.3769   21.2885 O   0  0  0  0  0  0  0  0  0  0  0  0
    4.9231    3.2723   26.0589 C   0  0  2  0  0  0  0  0  0  0  0  0
    5.4736    2.2206   25.2718 O   0  0  0  0  0  0  0  0  0  0  0  0
    0.3906    3.5721   28.0555 C   0  0  2  0  0  0  0  0  0  0  0  0
   -1.4246    0.0952   24.2000 C   0  0  2  0  0  0  0  0  0  0  0  0
   -1.0926    0.3953   25.5695 O   0  0  0  0  0  0  0  0  0  0  0  0
   -5.2126   -3.6163   21.8795 C   0  0  2  0  0  0  0  0  0  0  0  0
   -6.4965   -3.0653   21.5820 O   0  0  0  0  0  0  0  0  0  0  0  0
    4.2141    2.6996   27.3189 C   0  0  2  0  0  0  0  0  0  0  0  0
    3.5653    3.7901   28.0398 O   0  0  0  0  0  0  0  0  0  0  0  0
   -0.3870    2.2379   27.7633 C   0  0  2  0  0  0  0  0  0  0  0  0
   -1.3026    2.4806   26.6637 O   0  0  0  0  0  0  0  0  0  0  0  0
   -0.3883    0.7273   23.2537 C   0  0  0  0  0  0  0  0  0  0  0  0
    0.9188    0.2757   23.5621 O   0  0  0  0  0  0  0  0  0  0  0  0
   -5.0355   -3.7676   23.4223 C   0  0  1  0  0  0  0  0  0  0  0  0
   -4.9543   -2.4463   24.0387 O   0  0  0  0  0  0  0  0  0  0  0  0
    5.1508    1.9982   28.3278 C   0  0  0  0  0  0  0  0  0  0  0  0
    4.5750    0.7989   28.8171 O   0  0  0  0  0  0  0  0  0  0  0  0
   -1.2126    1.7340   28.9876 C   0  0  1  0  0  0  0  0  0  0  0  0
   -1.7393    0.4427   28.6862 O   0  0  0  0  0  0  0  0  0  0  0  0
   -6.1913   -4.5630   24.0817 C   0  0  0  0  0  0  0  0  0  0  0  0
   -6.6097   -3.9837   25.3711 N   0  0  0  0  0  0  0  0  0  0  0  0
  1  2  1  6  0  0  0
  1  7  1  0  0  0  0
  1 30  1  0  0  0  0
  3  4  1  1  0  0  0
  3  9  1  0  0  0  0
  3 39  1  0  0  0  0
  5 10  1  0  0  0  0
  5 26  1  0  0  0  0
  5 32  1  6  0  0  0
  6 12  1  0  0  0  0
  6 36  1  0  0  0  0
  6 19  1  1  0  0  0
  7  8  1  6  0  0  0
  7 14  1  0  0  0  0
  9 16  1  0  0  0  0
 10 11  1  1  0  0  0
 10 18  1  0  0  0  0
 12 13  1  1  0  0  0
 12 20  1  0  0  0  0
 14 15  1  6  0  0  0
 14 22  1  0  0  0  0
 16 17  1  1  0  0  0
 16 24  1  0  0  0  0
 18 19  1  1  0  0  0
 18 25  1  0  0  0  0
 20 21  1  1  0  0  0
 20 27  1  0  0  0  0
 22 23  1  6  0  0  0
 22 29  1  0  0  0  0
 24  2  1  6  0  0  0
 24 31  1  0  0  0  0
 25 26  1  0  0  0  0
 25 33  1  6  0  0  0
 27 28  1  1  0  0  0
 27 35  1  0  0  0  0
 29 30  1  0  0  0  0
 29 37  1  1  0  0  0
 31 32  1  6  0  0  0
 31 39  1  0  0  0  0
 33 34  1  0  0  0  0
 35 36  1  0  0  0  0
 35 41  1  1  0  0  0
 37 38  1  0  0  0  0
 39 40  1  6  0  0  0
 41 42  1  0  0  0  0
M  END
>  <CHROM.1>
-156.79512720,-32.20420471,168.41038178,62.23136311,-76.09451597,-24.04060573
65.68454455,16.07659672,-175.40043115,-53.87815593,-54.04467184,-46.59521693
175.46332553,176.28404141,-137.55562655,172.69252111,-177.60681378,-176.54176068
-139.37516432,56.07171762,-45.38552120,-70.43343855,-0.68494234,1.03142372
25.75147895,-0.57044438,-0.52735028,-1.83148263

>  <Name>
1fyp_lig

>  <RI>
0

>  <Rbt.Current_Directory>
/home/itssahil/PROJECTS/Mol_Feturizer/New_Systems/rnas/1fyp

>  <Rbt.Executable>
rbdock ($Id: //depot/dev/client3/rdock/2013.1/src/exe/rbdock.cxx#4 $)

>  <Rbt.Library>
libRbt.so (2013.1, Build901 2013/11/27)

>  <Rbt.Parameter_File>
/export/apps/rDock/src/rDock_2013.1_src/data/scripts/dock_solv.prm

>  <Rbt.Receptor>
prm/blind_docking_40.prm

>  <SCORE>
-31.4588

>  <SCORE.INTER>
-28.673

>  <SCORE.INTER.CONST>
1

>  <SCORE.INTER.POLAR>
-5.36467

>  <SCORE.INTER.ROT>
14

>  <SCORE.INTER.SOLV>
21.5966

>  <SCORE.INTER.VDW>
-21.3653

>  <SCORE.INTER.norm>
-0.682691

>  <SCORE.INTRA>
-3.42526

>  <SCORE.INTRA.DIHEDRAL>
-26.2418

>  <SCORE.INTRA.DIHEDRAL.0>
48.7173

>  <SCORE.INTRA.POLAR>
0.864932

>  <SCORE.INTRA.POLAR.0>
-1.54691

>  <SCORE.INTRA.REPUL>
0

>  <SCORE.INTRA.REPUL.0>
0

>  <SCORE.INTRA.SOLV>
-3.16192

>  <SCORE.INTRA.SOLV.lig_0>
-64.052

>  <SCORE.INTRA.VDW>
8.33584

>  <SCORE.INTRA.VDW.0>
-7.0667

>  <SCORE.INTRA.norm>
-0.0815537

>  <SCORE.RESTR>
0.639458

>  <SCORE.RESTR.CAVITY>
0.639458

>  <SCORE.RESTR.norm>
0.0152252

>  <SCORE.SYSTEM>
0

>  <SCORE.SYSTEM.CONST>
0

>  <SCORE.SYSTEM.DIHEDRAL>
0

>  <SCORE.SYSTEM.SOLV>
0

>  <SCORE.SYSTEM.norm>
0

>  <SCORE.heavy>
42

>  <SCORE.norm>
-0.74902

>  <RMSD>
6.927

$$$$
1fyp_lig
 OpenBabel11021811393D
libRbt.so/2013.1/901 2013/11/27
 42 45  0  0  0  0  0  0  0  0999 V2000
    6.0629    4.2805   30.5598 C   0  0  2  0  0  0  0  0  0  0  0  0
    4.8046    4.7957   30.0367 O   0  0  0  0  0  0  0  0  0  0  0  0
    4.6455    2.9171   26.2044 C   0  0  2  0  0  0  0  0  0  0  0  0
    4.4436    2.5650   24.7867 N   0  0  0  0  0  0  0  0  0  0  0  0
    6.7537    6.5228   26.7760 C   0  0  1  0  0  0  0  0  0  0  0  0
    5.8715    8.1801   24.6519 C   0  0  1  0  0  0  0  0  0  0  0  0
    6.0241    4.1480   32.1164 C   0  0  2  0  0  0  0  0  0  0  0  0
    4.8251    3.4067   32.5618 N   0  0  0  0  0  0  0  0  0  0  0  0
    3.3049    3.3704   26.8162 C   0  0  0  0  0  0  0  0  0  0  0  0
    7.1950    7.9089   27.2532 C   0  0  2  0  0  0  0  0  0  0  0  0
    6.0442    8.6950   27.5648 O   0  0  0  0  0  0  0  0  0  0  0  0
    5.2456    8.6720   23.3113 C   0  0  2  0  0  0  0  0  0  0  0  0
    5.0163   10.1374   23.2914 N   0  0  0  0  0  0  0  0  0  0  0  0
    6.0757    5.5524   32.7956 C   0  0  1  0  0  0  0  0  0  0  0  0
    6.2000    5.4110   34.2085 O   0  0  0  0  0  0  0  0  0  0  0  0
    3.4379    3.7320   28.3209 C   0  0  2  0  0  0  0  0  0  0  0  0
    2.1249    4.2270   28.7840 N   0  0  0  0  0  0  0  0  0  0  0  0
    7.9199    8.4497   26.0177 C   0  0  2  0  0  0  0  0  0  0  0  0
    6.9909    9.0136   25.0505 O   0  0  0  0  0  0  0  0  0  0  0  0
    3.9359    7.8885   22.9891 C   0  0  1  0  0  0  0  0  0  0  0  0
    4.2864    6.5686   22.5784 O   0  0  0  0  0  0  0  0  0  0  0  0
    7.2657    6.3991   32.2786 C   0  0  2  0  0  0  0  0  0  0  0  0
    7.2027    7.6960   32.8641 O   0  0  0  0  0  0  0  0  0  0  0  0
    4.5762    4.7787   28.5983 C   0  0  2  0  0  0  0  0  0  0  0  0
    8.5837    7.1853   25.4548 C   0  0  2  0  0  0  0  0  0  0  0  0
    7.7019    6.0948   25.7853 O   0  0  0  0  0  0  0  0  0  0  0  0
    2.9478    7.7793   24.1898 C   0  0  2  0  0  0  0  0  0  0  0  0
    2.3381    9.0550   24.3937 O   0  0  0  0  0  0  0  0  0  0  0  0
    7.2258    6.4964   30.7271 C   0  0  2  0  0  0  0  0  0  0  0  0
    7.1763    5.1507   30.1646 O   0  0  0  0  0  0  0  0  0  0  0  0
    5.9204    4.4299   27.8624 C   0  0  2  0  0  0  0  0  0  0  0  0
    6.7751    5.6022   27.9038 O   0  0  0  0  0  0  0  0  0  0  0  0
    9.9844    6.9286   26.0385 C   0  0  0  0  0  0  0  0  0  0  0  0
   10.0912    7.4603   27.3475 O   0  0  0  0  0  0  0  0  0  0  0  0
    3.6949    7.3264   25.4826 C   0  0  1  0  0  0  0  0  0  0  0  0
    4.8518    8.1886   25.7080 O   0  0  0  0  0  0  0  0  0  0  0  0
    8.4461    7.1975   30.0896 C   0  0  0  0  0  0  0  0  0  0  0  0
    9.2795    6.2693   29.4162 O   0  0  0  0  0  0  0  0  0  0  0  0
    5.7105    4.0279   26.3694 C   0  0  1  0  0  0  0  0  0  0  0  0
    6.9525    3.5681   25.8387 O   0  0  0  0  0  0  0  0  0  0  0  0
    2.7881    7.3581   26.7395 C   0  0  0  0  0  0  0  0  0  0  0  0
    1.6194    6.4686   26.6134 N   0  0  0  0  0  0  0  0  0  0  0  0
  1  2  1  1  0  0  0
  1  7  1  0  0  0  0
  1 30  1  0  0  0  0
  3  4  1  6  0  0  0
  3  9  1  0  0  0  0
  3 39  1  0  0  0  0
  5 10  1  0  0  0  0
  5 26  1  0  0  0  0
  5 32  1  1  0  0  0
  6 12  1  0  0  0  0
  6 36  1  0  0  0  0
  6 19  1  1  0  0  0
  7  8  1  6  0  0  0
  7 14  1  0  0  0  0
  9 16  1  0  0  0  0
 10 11  1  6  0  0  0
 10 18  1  0  0  0  0
 12 13  1  1  0  0  0
 12 20  1  0  0  0  0
 14 15  1  1  0  0  0
 14 22  1  0  0  0  0
 16 17  1  6  0  0  0
 16 24  1  0  0  0  0
 18 19  1  6  0  0  0
 18 25  1  0  0  0  0
 20 21  1  1  0  0  0
 20 27  1  0  0  0  0
 22 23  1  1  0  0  0
 22 29  1  0  0  0  0
 24  2  1  1  0  0  0
 24 31  1  0  0  0  0
 25 26  1  0  0  0  0
 25 33  1  1  0  0  0
 27 28  1  1  0  0  0
 27 35  1  0  0  0  0
 29 30  1  0  0  0  0
 29 37  1  6  0  0  0
 31 32  1  6  0  0  0
 31 39  1  0  0  0  0
 33 34  1  0  0  0  0
 35 36  1  0  0  0  0
 35 41  1  1  0  0  0
 37 38  1  0  0  0  0
 39 40  1  1  0  0  0
 41 42  1  0  0  0  0
M  END
>  <CHROM.1>
-169.97239682,111.78636194,177.02203451,-45.73901114,68.94558798,-102.65328248
63.92264051,-54.92719757,-51.60981621,-161.03479920,49.65026126,-49.71908805
28.56374813,66.10884309,108.29249573,-94.16355404,155.27430358,87.17914596
60.28028353,35.56971635,172.99154511,-17.27775268,5.77182245,6.24919506,27.54923878
1.30769823,0.52216488,2.01980888

>  <Name>
1fyp_lig

>  <RI>
0

>  <Rbt.Current_Directory>
/home/itssahil/PROJECTS/Mol_Feturizer/New_Systems/rnas/1fyp

>  <Rbt.Executable>
rbdock ($Id: //depot/dev/client3/rdock/2013.1/src/exe/rbdock.cxx#4 $)

>  <Rbt.Library>
libRbt.so (2013.1, Build901 2013/11/27)

>  <Rbt.Parameter_File>
/export/apps/rDock/src/rDock_2013.1_src/data/scripts/dock_solv.prm

>  <Rbt.Receptor>
prm/pocket_docking_3.prm

>  <SCORE>
-45.8599

>  <SCORE.INTER>
-48.1331

>  <SCORE.INTER.CONST>
1

>  <SCORE.INTER.POLAR>
-7.56361

>  <SCORE.INTER.ROT>
14

>  <SCORE.INTER.SOLV>
18.0873

>  <SCORE.INTER.VDW>
-25.8391

>  <SCORE.INTER.norm>
-1.14603

>  <SCORE.INTRA>
-1.28765

>  <SCORE.INTRA.DIHEDRAL>
-12.3476

>  <SCORE.INTRA.DIHEDRAL.0>
48.7173

>  <SCORE.INTRA.POLAR>
-2.31029

>  <SCORE.INTRA.POLAR.0>
-1.54691

>  <SCORE.INTRA.REPUL>
0

>  <SCORE.INTRA.REPUL.0>
0

>  <SCORE.INTRA.SOLV>
3.57718

>  <SCORE.INTRA.SOLV.lig_0>
-64.052

>  <SCORE.INTRA.VDW>
10.9526

>  <SCORE.INTRA.VDW.0>
-7.0667

>  <SCORE.INTRA.norm>
-0.0306583

>  <SCORE.RESTR>
3.56082

>  <SCORE.RESTR.CAVITY>
3.56082

>  <SCORE.RESTR.norm>
0.0847814

>  <SCORE.SYSTEM>
0

>  <SCORE.SYSTEM.CONST>
0

>  <SCORE.SYSTEM.DIHEDRAL>
0

>  <SCORE.SYSTEM.SOLV>
0

>  <SCORE.SYSTEM.norm>
0

>  <SCORE.heavy>
42

>  <SCORE.norm>
-1.0919

>  <RMSD>
6.961

$$$$
1fyp_lig
 OpenBabel11021811393D
libRbt.so/2013.1/901 2013/11/27
 42 45  0  0  0  0  0  0  0  0999 V2000
    4.9108    7.9802   26.8643 C   0  0  2  0  0  0  0  0  0  0  0  0
    5.9629    7.0159   27.1564 O   0  0  0  0  0  0  0  0  0  0  0  0
   10.2113    6.6354   27.3748 C   0  0  2  0  0  0  0  0  0  0  0  0
   11.6646    6.8419   27.5146 N   0  0  0  0  0  0  0  0  0  0  0  0
    6.6887    5.9714   30.6604 C   0  0  1  0  0  0  0  0  0  0  0  0
    4.8885    3.9098   31.3275 C   0  0  1  0  0  0  0  0  0  0  0  0
    3.4926    7.3362   26.9915 C   0  0  2  0  0  0  0  0  0  0  0  0
    3.3376    6.6312   28.2818 N   0  0  0  0  0  0  0  0  0  0  0  0
    9.6511    7.6220   26.3308 C   0  0  0  0  0  0  0  0  0  0  0  0
    7.4477    4.6554   30.4711 C   0  0  2  0  0  0  0  0  0  0  0  0
    6.8027    3.8730   29.4654 O   0  0  0  0  0  0  0  0  0  0  0  0
    3.7094    4.1518   32.3187 C   0  0  2  0  0  0  0  0  0  0  0  0
    3.4364    2.9754   33.1801 N   0  0  0  0  0  0  0  0  0  0  0  0
    3.2163    6.3607   25.8049 C   0  0  1  0  0  0  0  0  0  0  0  0
    1.8664    5.9050   25.8472 O   0  0  0  0  0  0  0  0  0  0  0  0
    8.1241    7.4417   26.1118 C   0  0  2  0  0  0  0  0  0  0  0  0
    7.6786    8.4813   25.1608 N   0  0  0  0  0  0  0  0  0  0  0  0
    7.3067    4.0105   31.8526 C   0  0  2  0  0  0  0  0  0  0  0  0
    6.0331    3.3230   32.0000 O   0  0  0  0  0  0  0  0  0  0  0  0
    2.4269    4.6064   31.5562 C   0  0  1  0  0  0  0  0  0  0  0  0
    2.6098    5.9530   31.1240 O   0  0  0  0  0  0  0  0  0  0  0  0
    3.4653    7.0368   24.4333 C   0  0  2  0  0  0  0  0  0  0  0  0
    3.2874    6.0723   23.4004 O   0  0  0  0  0  0  0  0  0  0  0  0
    7.3047    7.4999   27.4510 C   0  0  2  0  0  0  0  0  0  0  0  0
    7.3737    5.2284   32.7846 C   0  0  2  0  0  0  0  0  0  0  0  0
    6.7893    6.3215   32.0501 O   0  0  0  0  0  0  0  0  0  0  0  0
    2.0859    3.7359   30.3089 C   0  0  2  0  0  0  0  0  0  0  0  0
    1.5808    2.4773   30.7578 O   0  0  0  0  0  0  0  0  0  0  0  0
    4.8983    7.6383   24.3796 C   0  0  2  0  0  0  0  0  0  0  0  0
    5.0838    8.5342   25.5166 O   0  0  0  0  0  0  0  0  0  0  0  0
    7.9352    6.6224   28.5923 C   0  0  2  0  0  0  0  0  0  0  0  0
    7.3170    7.0040   29.8488 O   0  0  0  0  0  0  0  0  0  0  0  0
    8.8095    5.5843   33.2096 C   0  0  0  0  0  0  0  0  0  0  0  0
    8.8178    6.2270   34.4724 O   0  0  0  0  0  0  0  0  0  0  0  0
    3.3501    3.5229   29.4196 C   0  0  1  0  0  0  0  0  0  0  0  0
    4.4496    3.0248   30.2414 O   0  0  0  0  0  0  0  0  0  0  0  0
    5.2082    8.4638   23.1110 C   0  0  0  0  0  0  0  0  0  0  0  0
    4.8946    9.8335   23.2985 O   0  0  0  0  0  0  0  0  0  0  0  0
    9.4779    6.8144   28.7259 C   0  0  1  0  0  0  0  0  0  0  0  0
    9.9800    5.8607   29.6609 O   0  0  0  0  0  0  0  0  0  0  0  0
    3.1011    2.5320   28.2537 C   0  0  0  0  0  0  0  0  0  0  0  0
    4.3307    2.2302   27.4988 N   0  0  0  0  0  0  0  0  0  0  0  0
  1  2  1  6  0  0  0
  1  7  1  0  0  0  0
  1 30  1  0  0  0  0
  3  4  1  1  0  0  0
  3  9  1  0  0  0  0
  3 39  1  0  0  0  0
  5 10  1  0  0  0  0
  5 26  1  0  0  0  0
  5 32  1  6  0  0  0
  6 12  1  0  0  0  0
  6 36  1  0  0  0  0
  6 19  1  1  0  0  0
  7  8  1  1  0  0  0
  7 14  1  0  0  0  0
  9 16  1  0  0  0  0
 10 11  1  6  0  0  0
 10 18  1  0  0  0  0
 12 13  1  6  0  0  0
 12 20  1  0  0  0  0
 14 15  1  6  0  0  0
 14 22  1  0  0  0  0
 16 17  1  6  0  0  0
 16 24  1  0  0  0  0
 18 19  1  6  0  0  0
 18 25  1  0  0  0  0
 20 21  1  6  0  0  0
 20 27  1  0  0  0  0
 22 23  1  6  0  0  0
 22 29  1  0  0  0  0
 24  2  1  6  0  0  0
 24 31  1  0  0  0  0
 25 26  1  0  0  0  0
 25 33  1  6  0  0  0
 27 28  1  1  0  0  0
 27 35  1  0  0  0  0
 29 30  1  0  0  0  0
 29 37  1  6  0  0  0
 31 32  1  1  0  0  0
 31 39  1  0  0  0  0
 33 34  1  0  0  0  0
 35 36  1  0  0  0  0
 35 41  1  6  0  0  0
 37 38  1  0  0  0  0
 39 40  1  1  0  0  0
 41 42  1  0  0  0  0
M  END
>  <CHROM.1>
-163.18875199,-95.94584070,-165.08591128,48.98402651,164.53262277,-53.51363139
59.16035080,-135.58448365,-34.36521960,-126.00225396,76.37594709,-179.06121986
-152.36304945,64.43459711,90.86466156,125.01416514,32.27104137,-178.38350391
-174.25701974,50.05602758,64.05339894,161.18738973,5.72552022,5.80096857
28.68521965,1.57078359,-0.32569086,-1.10845591

>  <Name>
1fyp_lig

>  <RI>
0

>  <Rbt.Current_Directory>
/home/itssahil/PROJECTS/Mol_Feturizer/New_Systems/rnas/1fyp

>  <Rbt.Executable>
rbdock ($Id: //depot/dev/client3/rdock/2013.1/src/exe/rbdock.cxx#4 $)

>  <Rbt.Library>
libRbt.so (2013.1, Build901 2013/11/27)

>  <Rbt.Parameter_File>
/export/apps/rDock/src/rDock_2013.1_src/data/scripts/dock_solv.prm

>  <Rbt.Receptor>
prm/pocket_docking_5.prm

>  <SCORE>
-24.8587

>  <SCORE.INTER>
-25.1508

>  <SCORE.INTER.CONST>
1

>  <SCORE.INTER.POLAR>
-3.254

>  <SCORE.INTER.ROT>
14

>  <SCORE.INTER.SOLV>
15.8689

>  <SCORE.INTER.VDW>
-24.1435

>  <SCORE.INTER.norm>
-0.598828

>  <SCORE.INTRA>
0.192567

>  <SCORE.INTRA.DIHEDRAL>
-11.1692

>  <SCORE.INTRA.DIHEDRAL.0>
48.7173

>  <SCORE.INTRA.POLAR>
-0.144537

>  <SCORE.INTRA.POLAR.0>
-1.54691

>  <SCORE.INTRA.REPUL>
0.0201266

>  <SCORE.INTRA.REPUL.0>
0

>  <SCORE.INTRA.SOLV>
1.60169

>  <SCORE.INTRA.SOLV.lig_0>
-64.052

>  <SCORE.INTRA.VDW>
5.3671

>  <SCORE.INTRA.VDW.0>
-7.0667

>  <SCORE.INTRA.norm>
0.00458493

>  <SCORE.RESTR>
0.0994876

>  <SCORE.RESTR.CAVITY>
0.0994876

>  <SCORE.RESTR.norm>
0.00236875

>  <SCORE.SYSTEM>
0

>  <SCORE.SYSTEM.CONST>
0

>  <SCORE.SYSTEM.DIHEDRAL>
0

>  <SCORE.SYSTEM.SOLV>
0

>  <SCORE.SYSTEM.norm>
0

>  <SCORE.heavy>
42

>  <SCORE.norm>
-0.591875

>  <RMSD>
6.961

$$$$
1fyp_lig
 OpenBabel11021811393D
libRbt.so/2013.1/901 2013/11/27
 42 45  0  0  0  0  0  0  0  0999 V2000
    2.0460    4.5789   27.4072 C   0  0  2  0  0  0  0  0  0  0  0  0
    1.0456    3.8908   26.6021 O   0  0  0  0  0  0  0  0  0  0  0  0
   -1.2510    1.8461   29.5662 C   0  0  2  0  0  0  0  0  0  0  0  0
   -2.3059    1.3124   30.4475 N   0  0  0  0  0  0  0  0  0  0  0  0
   -1.7434    0.5953   25.5845 C   0  0  1  0  0  0  0  0  0  0  0  0
   -4.6477   -2.1776   23.7400 C   0  0  1  0  0  0  0  0  0  0  0  0
    2.4492    5.9483   26.7716 C   0  0  2  0  0  0  0  0  0  0  0  0
    1.2573    6.7610   26.4480 N   0  0  0  0  0  0  0  0  0  0  0  0
   -1.2946    3.3871   29.5890 C   0  0  0  0  0  0  0  0  0  0  0  0
   -2.2038    0.6933   24.1278 C   0  0  2  0  0  0  0  0  0  0  0  0
   -3.3133    1.5880   24.0372 O   0  0  0  0  0  0  0  0  0  0  0  0
   -6.1042   -2.3098   24.2804 C   0  0  2  0  0  0  0  0  0  0  0  0
   -6.1833   -2.1559   25.7536 N   0  0  0  0  0  0  0  0  0  0  0  0
    3.3212    5.7337   25.4950 C   0  0  1  0  0  0  0  0  0  0  0  0
    3.8122    6.9843   25.0190 O   0  0  0  0  0  0  0  0  0  0  0  0
   -0.1888    4.0196   28.7004 C   0  0  2  0  0  0  0  0  0  0  0  0
   -0.3703    5.4858   28.7292 N   0  0  0  0  0  0  0  0  0  0  0  0
   -2.6270   -0.7487   23.8349 C   0  0  2  0  0  0  0  0  0  0  0  0
   -3.9766   -1.0212   24.3048 O   0  0  0  0  0  0  0  0  0  0  0  0
   -6.7502   -3.6510   23.8146 C   0  0  1  0  0  0  0  0  0  0  0  0
   -7.0564   -3.5485   22.4256 O   0  0  0  0  0  0  0  0  0  0  0  0
    4.5287    4.8034   25.7717 C   0  0  2  0  0  0  0  0  0  0  0  0
    5.2276    4.5734   24.5521 O   0  0  0  0  0  0  0  0  0  0  0  0
   -0.1995    3.4688   27.2290 C   0  0  2  0  0  0  0  0  0  0  0  0
   -1.6010   -1.5556   24.6428 C   0  0  2  0  0  0  0  0  0  0  0  0
   -1.2785   -0.7481   25.7917 O   0  0  0  0  0  0  0  0  0  0  0  0
   -5.8422   -4.9008   24.0229 C   0  0  2  0  0  0  0  0  0  0  0  0
   -5.8021   -5.2057   25.4179 O   0  0  0  0  0  0  0  0  0  0  0  0
    4.0456    3.4597   26.3876 C   0  0  2  0  0  0  0  0  0  0  0  0
    3.2379    3.7389   27.5707 O   0  0  0  0  0  0  0  0  0  0  0  0
   -0.3102    1.9025   27.1631 C   0  0  2  0  0  0  0  0  0  0  0  0
   -0.6491    1.5308   25.8017 O   0  0  0  0  0  0  0  0  0  0  0  0
   -0.3238   -1.8764   23.8463 C   0  0  0  0  0  0  0  0  0  0  0  0
    0.3996   -0.6936   23.5540 O   0  0  0  0  0  0  0  0  0  0  0  0
   -4.4009   -4.6337   23.4882 C   0  0  1  0  0  0  0  0  0  0  0  0
   -3.8877   -3.3921   24.0605 O   0  0  0  0  0  0  0  0  0  0  0  0
    5.1768    2.5090   26.8387 C   0  0  0  0  0  0  0  0  0  0  0  0
    5.9386    3.0776   27.8903 O   0  0  0  0  0  0  0  0  0  0  0  0
   -1.4050    1.3290   28.1156 C   0  0  1  0  0  0  0  0  0  0  0  0
   -1.3147   -0.0949   28.1142 O   0  0  0  0  0  0  0  0  0  0  0  0
   -3.4179   -5.7864   23.8171 C   0  0  0  0  0  0  0  0  0  0  0  0
   -2.0477   -5.5086   23.3497 N   0  0  0  0  0  0  0  0  0  0  0  0
  1  2  1  6  0  0  0
  1  7  1  0  0  0  0
  1 30  1  0  0  0  0
  3  4  1  1  0  0  0
  3  9  1  0  0  0  0
  3 39  1  0  0  0  0
  5 10  1  0  0  0  0
  5 26  1  0  0  0  0
  5 32  1  6  0  0  0
  6 12  1  0  0  0  0
  6 36  1  0  0  0  0
  6 19  1  1  0  0  0
  7  8  1  6  0  0  0
  7 14  1  0  0  0  0
  9 16  1  0  0  0  0
 10 11  1  1  0  0  0
 10 18  1  0  0  0  0
 12 13  1  1  0  0  0
 12 20  1  0  0  0  0
 14 15  1  1  0  0  0
 14 22  1  0  0  0  0
 16 17  1  6  0  0  0
 16 24  1  0  0  0  0
 18 19  1  1  0  0  0
 18 25  1  0  0  0  0
 20 21  1  6  0  0  0
 20 27  1  0  0  0  0
 22 23  1  6  0  0  0
 22 29  1  0  0  0  0
 24  2  1  1  0  0  0
 24 31  1  0  0  0  0
 25 26  1  0  0  0  0
 25 33  1  6  0  0  0
 27 28  1  1  0  0  0
 27 35  1  0  0  0  0
 29 30  1  0  0  0  0
 29 37  1  1  0  0  0
 31 32  1  6  0  0  0
 31 39  1  0  0  0  0
 33 34  1  0  0  0  0
 35 36  1  0  0  0  0
 35 41  1  1  0  0  0
 37 38  1  0  0  0  0
 39 40  1  1  0  0  0
 41 42  1  0  0  0  0
M  END
>  <CHROM.1>
-125.43785670,5.15135120,65.76727661,-78.09548128,62.34440050,-65.06867003
-56.60611126,-11.33993878,161.37138995,-177.30401311,-170.81649470,178.18738739
66.28067261,176.80005187,63.87965077,-131.29925777,162.22826833,-67.70826412
-178.05942793,69.59397964,67.85009101,116.93066599,-0.93680549,0.79070839
25.80597167,0.75495394,0.41534749,0.72689807

>  <Name>
1fyp_lig

>  <RI>
0

>  <Rbt.Current_Directory>
/home/itssahil/PROJECTS/Mol_Feturizer/New_Systems/rnas/1fyp

>  <Rbt.Executable>
rbdock ($Id: //depot/dev/client3/rdock/2013.1/src/exe/rbdock.cxx#4 $)

>  <Rbt.Library>
libRbt.so (2013.1, Build901 2013/11/27)

>  <Rbt.Parameter_File>
/export/apps/rDock/src/rDock_2013.1_src/data/scripts/dock_solv.prm

>  <Rbt.Receptor>
prm/blind_docking_40.prm

>  <SCORE>
-31.8148

>  <SCORE.INTER>
-34.2125

>  <SCORE.INTER.CONST>
1

>  <SCORE.INTER.POLAR>
-4.84435

>  <SCORE.INTER.ROT>
14

>  <SCORE.INTER.SOLV>
16.3016

>  <SCORE.INTER.VDW>
-25.0277

>  <SCORE.INTER.norm>
-0.814584

>  <SCORE.INTRA>
2.11646

>  <SCORE.INTRA.DIHEDRAL>
-17.4798

>  <SCORE.INTRA.DIHEDRAL.0>
48.7173

>  <SCORE.INTRA.POLAR>
0.419081

>  <SCORE.INTRA.POLAR.0>
-1.54691

>  <SCORE.INTRA.REPUL>
0.00642698

>  <SCORE.INTRA.REPUL.0>
0

>  <SCORE.INTRA.SOLV>
-0.776841

>  <SCORE.INTRA.SOLV.lig_0>
-64.052

>  <SCORE.INTRA.VDW>
9.78778

>  <SCORE.INTRA.VDW.0>
-7.0667

>  <SCORE.INTRA.norm>
0.0503919

>  <SCORE.RESTR>
0.281204

>  <SCORE.RESTR.CAVITY>
0.281204

>  <SCORE.RESTR.norm>
0.00669534

>  <SCORE.SYSTEM>
0

>  <SCORE.SYSTEM.CONST>
0

>  <SCORE.SYSTEM.DIHEDRAL>
0

>  <SCORE.SYSTEM.SOLV>
0

>  <SCORE.SYSTEM.norm>
0

>  <SCORE.heavy>
42

>  <SCORE.norm>
-0.757496

>  <RMSD>
7.047

$$$$
1fyp_lig
 OpenBabel11021811393D
libRbt.so/2013.1/901 2013/11/27
 42 45  0  0  0  0  0  0  0  0999 V2000
   10.2091    6.9518   31.2303 C   0  0  2  0  0  0  0  0  0  0  0  0
    9.8958    7.2576   29.8408 O   0  0  0  0  0  0  0  0  0  0  0  0
   12.4431    9.8905   27.6453 C   0  0  2  0  0  0  0  0  0  0  0  0
   13.4965   10.5102   26.8204 N   0  0  0  0  0  0  0  0  0  0  0  0
    8.5505    6.6528   27.3731 C   0  0  1  0  0  0  0  0  0  0  0  0
    4.6046    5.3066   28.3992 C   0  0  1  0  0  0  0  0  0  0  0  0
    9.0683    6.1244   31.9055 C   0  0  2  0  0  0  0  0  0  0  0  0
    8.7011    4.9496   31.0866 N   0  0  0  0  0  0  0  0  0  0  0  0
   13.0938    9.0737   28.7795 C   0  0  0  0  0  0  0  0  0  0  0  0
    7.5061    7.7015   27.7646 C   0  0  2  0  0  0  0  0  0  0  0  0
    7.6331    8.0056   29.1542 O   0  0  0  0  0  0  0  0  0  0  0  0
    4.3437    4.3831   29.6281 C   0  0  2  0  0  0  0  0  0  0  0  0
    5.5548    3.6378   30.0502 N   0  0  0  0  0  0  0  0  0  0  0  0
    7.8141    7.0160   32.1663 C   0  0  1  0  0  0  0  0  0  0  0  0
    6.8458    6.2935   32.9226 O   0  0  0  0  0  0  0  0  0  0  0  0
   12.0385    8.4126   29.7078 C   0  0  2  0  0  0  0  0  0  0  0  0
   12.7622    7.5944   30.7031 N   0  0  0  0  0  0  0  0  0  0  0  0
    6.1965    6.9633   27.4744 C   0  0  2  0  0  0  0  0  0  0  0  0
    5.8154    6.0881   28.5723 O   0  0  0  0  0  0  0  0  0  0  0  0
    3.1501    3.4171   29.3538 C   0  0  1  0  0  0  0  0  0  0  0  0
    1.9388    4.1680   29.4021 O   0  0  0  0  0  0  0  0  0  0  0  0
    8.1771    8.3094   32.9382 C   0  0  2  0  0  0  0  0  0  0  0  0
    7.0121    9.1196   33.0617 O   0  0  0  0  0  0  0  0  0  0  0  0
   10.9834    7.5565   28.9192 C   0  0  2  0  0  0  0  0  0  0  0  0
    6.5594    6.1412   26.2299 C   0  0  2  0  0  0  0  0  0  0  0  0
    7.9591    5.8251   26.3587 O   0  0  0  0  0  0  0  0  0  0  0  0
    3.2209    2.6937   27.9748 C   0  0  2  0  0  0  0  0  0  0  0  0
    4.2390    1.6937   28.0382 O   0  0  0  0  0  0  0  0  0  0  0  0
    9.3052    9.0820   32.1974 C   0  0  2  0  0  0  0  0  0  0  0  0
   10.4390    8.1876   31.9872 O   0  0  0  0  0  0  0  0  0  0  0  0
   10.4085    8.3020   27.6607 C   0  0  2  0  0  0  0  0  0  0  0  0
    9.7224    7.3271   26.8328 O   0  0  0  0  0  0  0  0  0  0  0  0
    6.3066    6.8969   24.9132 C   0  0  0  0  0  0  0  0  0  0  0  0
    4.9496    7.2914   24.8097 O   0  0  0  0  0  0  0  0  0  0  0  0
    3.5333    3.7090   26.8320 C   0  0  1  0  0  0  0  0  0  0  0  0
    4.7143    4.4933   27.1820 O   0  0  0  0  0  0  0  0  0  0  0  0
    9.8493   10.3160   32.9514 C   0  0  0  0  0  0  0  0  0  0  0  0
   10.8657   10.9668   32.2079 O   0  0  0  0  0  0  0  0  0  0  0  0
   11.5159    8.9850   26.7994 C   0  0  1  0  0  0  0  0  0  0  0  0
   10.8900    9.7718   25.7869 O   0  0  0  0  0  0  0  0  0  0  0  0
    3.7727    3.0166   25.4658 C   0  0  0  0  0  0  0  0  0  0  0  0
    5.0842    2.3471   25.3960 N   0  0  0  0  0  0  0  0  0  0  0  0
  1  2  1  6  0  0  0
  1  7  1  0  0  0  0
  1 30  1  0  0  0  0
  3  4  1  6  0  0  0
  3  9  1  0  0  0  0
  3 39  1  0  0  0  0
  5 10  1  0  0  0  0
  5 26  1  0  0  0  0
  5 32  1  6  0  0  0
  6 12  1  0  0  0  0
  6 36  1  0  0  0  0
  6 19  1  1  0  0  0
  7  8  1  6  0  0  0
  7 14  1  0  0  0  0
  9 16  1  0  0  0  0
 10 11  1  1  0  0  0
 10 18  1  0  0  0  0
 12 13  1  6  0  0  0
 12 20  1  0  0  0  0
 14 15  1  1  0  0  0
 14 22  1  0  0  0  0
 16 17  1  1  0  0  0
 16 24  1  0  0  0  0
 18 19  1  1  0  0  0
 18 25  1  0  0  0  0
 20 21  1  6  0  0  0
 20 27  1  0  0  0  0
 22 23  1  6  0  0  0
 22 29  1  0  0  0  0
 24  2  1  1  0  0  0
 24 31  1  0  0  0  0
 25 26  1  0  0  0  0
 25 33  1  6  0  0  0
 27 28  1  1  0  0  0
 27 35  1  0  0  0  0
 29 30  1  0  0  0  0
 29 37  1  1  0  0  0
 31 32  1  6  0  0  0
 31 39  1  0  0  0  0
 33 34  1  0  0  0  0
 35 36  1  0  0  0  0
 35 41  1  6  0  0  0
 37 38  1  0  0  0  0
 39 40  1  6  0  0  0
 41 42  1  0  0  0  0
M  END
>  <CHROM.1>
-157.10482014,-38.59202722,68.47013967,175.09677388,52.38642377,66.60782139
-62.07192267,-47.08914857,-178.47846018,178.13325197,-176.76822353,40.32610630
-57.96295964,-176.86587812,-179.65920597,63.52967493,57.92123080,-63.83610936
-74.34495729,178.88119509,159.10704738,-40.15183602,7.86780438,6.71883779
28.91820066,0.31419092,0.61465891,1.47936730

>  <Name>
1fyp_lig

>  <RI>
0

>  <Rbt.Current_Directory>
/home/itssahil/PROJECTS/Mol_Feturizer/New_Systems/rnas/1fyp

>  <Rbt.Executable>
rbdock ($Id: //depot/dev/client3/rdock/2013.1/src/exe/rbdock.cxx#4 $)

>  <Rbt.Library>
libRbt.so (2013.1, Build901 2013/11/27)

>  <Rbt.Parameter_File>
/export/apps/rDock/src/rDock_2013.1_src/data/scripts/dock_solv.prm

>  <Rbt.Receptor>
prm/pocket_docking_5.prm

>  <SCORE>
-32.6309

>  <SCORE.INTER>
-20.9449

>  <SCORE.INTER.CONST>
1

>  <SCORE.INTER.POLAR>
-3.29066

>  <SCORE.INTER.ROT>
14

>  <SCORE.INTER.SOLV>
7.98061

>  <SCORE.INTER.VDW>
-18.588

>  <SCORE.INTER.norm>
-0.498689

>  <SCORE.INTRA>
-11.6865

>  <SCORE.INTRA.DIHEDRAL>
-37.6439

>  <SCORE.INTRA.DIHEDRAL.0>
48.7173

>  <SCORE.INTRA.POLAR>
0.280197

>  <SCORE.INTRA.POLAR.0>
-1.54691

>  <SCORE.INTRA.REPUL>
0.22662

>  <SCORE.INTRA.REPUL.0>
0

>  <SCORE.INTRA.SOLV>
1.02454

>  <SCORE.INTRA.SOLV.lig_0>
-64.052

>  <SCORE.INTRA.VDW>
4.53737

>  <SCORE.INTRA.VDW.0>
-7.0667

>  <SCORE.INTRA.norm>
-0.278251

>  <SCORE.RESTR>
0.000588055

>  <SCORE.RESTR.CAVITY>
0.000588055

>  <SCORE.RESTR.norm>
1.40013e-05

>  <SCORE.SYSTEM>
0

>  <SCORE.SYSTEM.CONST>
0

>  <SCORE.SYSTEM.DIHEDRAL>
0

>  <SCORE.SYSTEM.SOLV>
0

>  <SCORE.SYSTEM.norm>
0

>  <SCORE.heavy>
42

>  <SCORE.norm>
-0.776926

>  <RMSD>
7.102

$$$$
1fyp_lig
 OpenBabel11021811393D
libRbt.so/2013.1/901 2013/11/27
 42 45  0  0  0  0  0  0  0  0999 V2000
    1.6805    3.3323   26.4659 C   0  0  2  0  0  0  0  0  0  0  0  0
    1.9106    2.8490   27.8208 O   0  0  0  0  0  0  0  0  0  0  0  0
   -0.4161    1.7093   31.2161 C   0  0  2  0  0  0  0  0  0  0  0  0
   -1.3241    1.6435   32.3761 N   0  0  0  0  0  0  0  0  0  0  0  0
   -1.0019    1.4999   26.3202 C   0  0  1  0  0  0  0  0  0  0  0  0
   -1.9285   -1.6577   23.3390 C   0  0  1  0  0  0  0  0  0  0  0  0
    2.6608    2.6671   25.4467 C   0  0  2  0  0  0  0  0  0  0  0  0
    2.6572    1.1949   25.5818 N   0  0  0  0  0  0  0  0  0  0  0  0
    0.5802    2.8698   31.4099 C   0  0  0  0  0  0  0  0  0  0  0  0
   -1.7533    0.1997   26.6175 C   0  0  2  0  0  0  0  0  0  0  0  0
   -0.8263   -0.8012   27.0401 O   0  0  0  0  0  0  0  0  0  0  0  0
   -3.2561   -1.0715   22.7691 C   0  0  2  0  0  0  0  0  0  0  0  0
   -4.2036   -0.6618   23.8344 N   0  0  0  0  0  0  0  0  0  0  0  0
    4.1083    3.2236   25.6231 C   0  0  1  0  0  0  0  0  0  0  0  0
    4.9546    2.7291   24.5883 O   0  0  0  0  0  0  0  0  0  0  0  0
    1.5884    2.9814   30.2336 C   0  0  2  0  0  0  0  0  0  0  0  0
    2.4382    4.1653   30.4783 N   0  0  0  0  0  0  0  0  0  0  0  0
   -2.3501   -0.1378   25.2485 C   0  0  2  0  0  0  0  0  0  0  0  0
   -1.3897   -0.8191   24.3940 O   0  0  0  0  0  0  0  0  0  0  0  0
   -3.9211   -2.0693   21.7715 C   0  0  1  0  0  0  0  0  0  0  0  0
   -3.1645   -2.0738   20.5627 O   0  0  0  0  0  0  0  0  0  0  0  0
    4.1388    4.7721   25.5868 C   0  0  2  0  0  0  0  0  0  0  0  0
    5.4668    5.2173   25.8456 O   0  0  0  0  0  0  0  0  0  0  0  0
    0.8837    3.0607   28.8317 C   0  0  2  0  0  0  0  0  0  0  0  0
   -2.6787    1.2534   24.6889 C   0  0  2  0  0  0  0  0  0  0  0  0
   -1.6843    2.1434   25.2320 O   0  0  0  0  0  0  0  0  0  0  0  0
   -4.0069   -3.5339   22.2985 C   0  0  2  0  0  0  0  0  0  0  0  0
   -5.0201   -3.5962   23.3036 O   0  0  0  0  0  0  0  0  0  0  0  0
    3.1512    5.3567   26.6361 C   0  0  2  0  0  0  0  0  0  0  0  0
    1.8247    4.7915   26.4113 O   0  0  0  0  0  0  0  0  0  0  0  0
   -0.2494    1.9859   28.6551 C   0  0  2  0  0  0  0  0  0  0  0  0
   -1.0447    2.3543   27.4983 O   0  0  0  0  0  0  0  0  0  0  0  0
   -4.0884    1.7392   25.0702 C   0  0  0  0  0  0  0  0  0  0  0  0
   -4.2911    1.6524   26.4699 O   0  0  0  0  0  0  0  0  0  0  0  0
   -2.6361   -3.9924   22.8861 C   0  0  1  0  0  0  0  0  0  0  0  0
   -2.1662   -3.0099   23.8590 O   0  0  0  0  0  0  0  0  0  0  0  0
    2.9909    6.8928   26.5908 C   0  0  0  0  0  0  0  0  0  0  0  0
    2.4053    7.3848   27.7842 O   0  0  0  0  0  0  0  0  0  0  0  0
   -1.1961    1.8907   29.8917 C   0  0  1  0  0  0  0  0  0  0  0  0
   -2.0767    0.7826   29.7116 O   0  0  0  0  0  0  0  0  0  0  0  0
   -2.7126   -5.3825   23.5680 C   0  0  0  0  0  0  0  0  0  0  0  0
   -2.9382   -6.4723   22.6013 N   0  0  0  0  0  0  0  0  0  0  0  0
  1  2  1  1  0  0  0
  1  7  1  0  0  0  0
  1 30  1  0  0  0  0
  3  4  1  1  0  0  0
  3  9  1  0  0  0  0
  3 39  1  0  0  0  0
  5 10  1  0  0  0  0
  5 26  1  0  0  0  0
  5 32  1  1  0  0  0
  6 12  1  0  0  0  0
  6 36  1  0  0  0  0
  6 19  1  1  0  0  0
  7  8  1  1  0  0  0
  7 14  1  0  0  0  0
  9 16  1  0  0  0  0
 10 11  1  6  0  0  0
 10 18  1  0  0  0  0
 12 13  1  1  0  0  0
 12 20  1  0  0  0  0
 14 15  1  6  0  0  0
 14 22  1  0  0  0  0
 16 17  1  1  0  0  0
 16 24  1  0  0  0  0
 18 19  1  6  0  0  0
 18 25  1  0  0  0  0
 20 21  1  6  0  0  0
 20 27  1  0  0  0  0
 22 23  1  1  0  0  0
 22 29  1  0  0  0  0
 24  2  1  6  0  0  0
 24 31  1  0  0  0  0
 25 26  1  0  0  0  0
 25 33  1  1  0  0  0
 27 28  1  1  0  0  0
 27 35  1  0  0  0  0
 29 30  1  0  0  0  0
 29 37  1  6  0  0  0
 31 32  1  6  0  0  0
 31 39  1  0  0  0  0
 33 34  1  0  0  0  0
 35 36  1  0  0  0  0
 35 41  1  1  0  0  0
 37 38  1  0  0  0  0
 39 40  1  6  0  0  0
 41 42  1  0  0  0  0
M  END
>  <CHROM.1>
-163.26983967,-157.94142883,166.39149805,133.92736184,73.42298245,-170.29875487
-69.07721035,-38.51134871,155.58978418,34.00319946,-90.81740079,65.12997833
52.38790168,-78.08185442,-162.95855348,112.69993548,71.84851694,166.63293712
68.57091861,85.10317239,147.98191696,-64.87898250,-0.45212418,1.11540509
26.10704826,-0.77118961,-0.67509503,-1.97953574

>  <Name>
1fyp_lig

>  <RI>
0

>  <Rbt.Current_Directory>
/home/itssahil/PROJECTS/Mol_Feturizer/New_Systems/rnas/1fyp

>  <Rbt.Executable>
rbdock ($Id: //depot/dev/client3/rdock/2013.1/src/exe/rbdock.cxx#4 $)

>  <Rbt.Library>
libRbt.so (2013.1, Build901 2013/11/27)

>  <Rbt.Parameter_File>
/export/apps/rDock/src/rDock_2013.1_src/data/scripts/dock_solv.prm

>  <Rbt.Receptor>
prm/blind_docking_40.prm

>  <SCORE>
-49.5969

>  <SCORE.INTER>
-57.5183

>  <SCORE.INTER.CONST>
1

>  <SCORE.INTER.POLAR>
-8.82412

>  <SCORE.INTER.ROT>
14

>  <SCORE.INTER.SOLV>
15.0209

>  <SCORE.INTER.VDW>
-26.8721

>  <SCORE.INTER.norm>
-1.36948

>  <SCORE.INTRA>
7.64531

>  <SCORE.INTRA.DIHEDRAL>
-13.0939

>  <SCORE.INTRA.DIHEDRAL.0>
48.7173

>  <SCORE.INTRA.POLAR>
1.53883

>  <SCORE.INTRA.POLAR.0>
-1.54691

>  <SCORE.INTRA.REPUL>
0.0833805

>  <SCORE.INTRA.REPUL.0>
0

>  <SCORE.INTRA.SOLV>
-0.494955

>  <SCORE.INTRA.SOLV.lig_0>
-64.052

>  <SCORE.INTRA.VDW>
8.79078

>  <SCORE.INTRA.VDW.0>
-7.0667

>  <SCORE.INTRA.norm>
0.182031

>  <SCORE.RESTR>
0.276134

>  <SCORE.RESTR.CAVITY>
0.276134

>  <SCORE.RESTR.norm>
0.00657461

>  <SCORE.SYSTEM>
0

>  <SCORE.SYSTEM.CONST>
0

>  <SCORE.SYSTEM.DIHEDRAL>
0

>  <SCORE.SYSTEM.SOLV>
0

>  <SCORE.SYSTEM.norm>
0

>  <SCORE.heavy>
42

>  <SCORE.norm>
-1.18088

>  <RMSD>
7.111

$$$$
1fyp_lig
 OpenBabel11021811393D
libRbt.so/2013.1/901 2013/11/27
 42 45  0  0  0  0  0  0  0  0999 V2000
    1.9787    2.9899   28.6129 C   0  0  2  0  0  0  0  0  0  0  0  0
    1.7789    2.7540   30.0366 O   0  0  0  0  0  0  0  0  0  0  0  0
   -1.5600    1.2417   32.2287 C   0  0  2  0  0  0  0  0  0  0  0  0
   -2.8313    1.0406   32.9482 N   0  0  0  0  0  0  0  0  0  0  0  0
   -1.3393    1.1179   27.6768 C   0  0  1  0  0  0  0  0  0  0  0  0
   -2.7632   -1.0684   24.1618 C   0  0  1  0  0  0  0  0  0  0  0  0
    3.4087    2.5559   28.1559 C   0  0  2  0  0  0  0  0  0  0  0  0
    3.7188    1.1800   28.5992 N   0  0  0  0  0  0  0  0  0  0  0  0
   -0.8096    2.4422   32.8391 C   0  0  0  0  0  0  0  0  0  0  0  0
   -2.0240    1.8356   26.5106 C   0  0  2  0  0  0  0  0  0  0  0  0
   -3.4193    1.9675   26.7847 O   0  0  0  0  0  0  0  0  0  0  0  0
   -3.0267   -0.2426   22.8657 C   0  0  2  0  0  0  0  0  0  0  0  0
   -4.1608    0.7024   23.0108 N   0  0  0  0  0  0  0  0  0  0  0  0
    4.4878    3.5515   28.6854 C   0  0  1  0  0  0  0  0  0  0  0  0
    5.7625    3.2351   28.1315 O   0  0  0  0  0  0  0  0  0  0  0  0
    0.5565    2.6961   32.1450 C   0  0  2  0  0  0  0  0  0  0  0  0
    1.1506    3.9077   32.7472 N   0  0  0  0  0  0  0  0  0  0  0  0
   -1.7739    0.8639   25.3541 C   0  0  2  0  0  0  0  0  0  0  0  0
   -2.7474   -0.2172   25.3373 O   0  0  0  0  0  0  0  0  0  0  0  0
   -3.2262   -1.1840   21.6381 C   0  0  1  0  0  0  0  0  0  0  0  0
   -1.9604   -1.7325   21.2768 O   0  0  0  0  0  0  0  0  0  0  0  0
    4.1444    5.0186   28.3249 C   0  0  2  0  0  0  0  0  0  0  0  0
    5.1132    5.8810   28.9136 O   0  0  0  0  0  0  0  0  0  0  0  0
    0.4318    2.8327   30.5849 C   0  0  2  0  0  0  0  0  0  0  0  0
   -0.3747    0.3251   25.6832 C   0  0  2  0  0  0  0  0  0  0  0  0
   -0.2792    0.3236   27.1208 O   0  0  0  0  0  0  0  0  0  0  0  0
   -4.2135   -2.3629   21.8939 C   0  0  2  0  0  0  0  0  0  0  0  0
   -5.5433   -1.8423   21.9281 O   0  0  0  0  0  0  0  0  0  0  0  0
    2.7163    5.3777   28.8246 C   0  0  2  0  0  0  0  0  0  0  0  0
    1.7655    4.4061   28.2937 O   0  0  0  0  0  0  0  0  0  0  0  0
   -0.4580    1.7083   29.9416 C   0  0  2  0  0  0  0  0  0  0  0  0
   -0.7827    2.1101   28.5853 O   0  0  0  0  0  0  0  0  0  0  0  0
    0.7566    1.1758   25.0787 C   0  0  0  0  0  0  0  0  0  0  0  0
    0.4074    1.6341   23.7842 O   0  0  0  0  0  0  0  0  0  0  0  0
   -3.8815   -3.0817   23.2383 C   0  0  1  0  0  0  0  0  0  0  0  0
   -3.7996   -2.0971   24.3137 O   0  0  0  0  0  0  0  0  0  0  0  0
    2.2100    6.7725   28.3942 C   0  0  0  0  0  0  0  0  0  0  0  0
    1.2986    7.3042   29.3408 O   0  0  0  0  0  0  0  0  0  0  0  0
   -1.7917    1.4702   30.7156 C   0  0  1  0  0  0  0  0  0  0  0  0
   -2.4449    0.3276   30.1645 O   0  0  0  0  0  0  0  0  0  0  0  0
   -4.9317   -4.1574   23.6166 C   0  0  0  0  0  0  0  0  0  0  0  0
   -4.6275   -4.8145   24.9006 N   0  0  0  0  0  0  0  0  0  0  0  0
  1  2  1  1  0  0  0
  1  7  1  0  0  0  0
  1 30  1  0  0  0  0
  3  4  1  1  0  0  0
  3  9  1  0  0  0  0
  3 39  1  0  0  0  0
  5 10  1  0  0  0  0
  5 26  1  0  0  0  0
  5 32  1  1  0  0  0
  6 12  1  0  0  0  0
  6 36  1  0  0  0  0
  6 19  1  1  0  0  0
  7  8  1  1  0  0  0
  7 14  1  0  0  0  0
  9 16  1  0  0  0  0
 10 11  1  1  0  0  0
 10 18  1  0  0  0  0
 12 13  1  1  0  0  0
 12 20  1  0  0  0  0
 14 15  1  6  0  0  0
 14 22  1  0  0  0  0
 16 17  1  1  0  0  0
 16 24  1  0  0  0  0
 18 19  1  1  0  0  0
 18 25  1  0  0  0  0
 20 21  1  1  0  0  0
 20 27  1  0  0  0  0
 22 23  1  1  0  0  0
 22 29  1  0  0  0  0
 24  2  1  6  0  0  0
 24 31  1  0  0  0  0
 25 26  1  0  0  0  0
 25 33  1  6  0  0  0
 27 28  1  1  0  0  0
 27 35  1  0  0  0  0
 29 30  1  0  0  0  0
 29 37  1  6  0  0  0
 31 32  1  6  0  0  0
 31 39  1  0  0  0  0
 33 34  1  0  0  0  0
 35 36  1  0  0  0  0
 35 41  1  1  0  0  0
 37 38  1  0  0  0  0
 39 40  1  6  0  0  0
 41 42  1  0  0  0  0
M  END
>  <CHROM.1>
-167.31998115,-173.74200941,70.45171138,-81.86609492,-173.33607242,-154.40475663
-170.23473126,136.41911987,169.51109711,-58.34543149,62.72726848,-171.03360008
-38.39992009,78.58057161,-150.94420566,166.33763506,161.18534588,-64.04265024
-178.86694252,-41.94187015,-69.92586744,-167.21207428,-0.55490052,1.38727084
27.20756148,-0.80107629,-0.62263354,-1.78479649

>  <Name>
1fyp_lig

>  <RI>
0

>  <Rbt.Current_Directory>
/home/itssahil/PROJECTS/Mol_Feturizer/New_Systems/rnas/1fyp

>  <Rbt.Executable>
rbdock ($Id: //depot/dev/client3/rdock/2013.1/src/exe/rbdock.cxx#4 $)

>  <Rbt.Library>
libRbt.so (2013.1, Build901 2013/11/27)

>  <Rbt.Parameter_File>
/export/apps/rDock/src/rDock_2013.1_src/data/scripts/dock_solv.prm

>  <Rbt.Receptor>
prm/pocket_docking_7.prm

>  <SCORE>
-56.4599

>  <SCORE.INTER>
-47.628

>  <SCORE.INTER.CONST>
1

>  <SCORE.INTER.POLAR>
-6.01074

>  <SCORE.INTER.ROT>
14

>  <SCORE.INTER.SOLV>
18.5211

>  <SCORE.INTER.VDW>
-30.8232

>  <SCORE.INTER.norm>
-1.134

>  <SCORE.INTRA>
-8.83188

>  <SCORE.INTRA.DIHEDRAL>
-31.2592

>  <SCORE.INTRA.DIHEDRAL.0>
48.7173

>  <SCORE.INTRA.POLAR>
1.54633

>  <SCORE.INTRA.POLAR.0>
-1.54691

>  <SCORE.INTRA.REPUL>
0

>  <SCORE.INTRA.REPUL.0>
0

>  <SCORE.INTRA.SOLV>
-3.31517

>  <SCORE.INTRA.SOLV.lig_0>
-64.052

>  <SCORE.INTRA.VDW>
3.19779

>  <SCORE.INTRA.VDW.0>
-7.0667

>  <SCORE.INTRA.norm>
-0.210283

>  <SCORE.RESTR>
0

>  <SCORE.RESTR.CAVITY>
0

>  <SCORE.RESTR.norm>
0

>  <SCORE.SYSTEM>
0

>  <SCORE.SYSTEM.CONST>
0

>  <SCORE.SYSTEM.DIHEDRAL>
0

>  <SCORE.SYSTEM.SOLV>
0

>  <SCORE.SYSTEM.norm>
0

>  <SCORE.heavy>
42

>  <SCORE.norm>
-1.34428

>  <RMSD>
7.159

$$$$
1fyp_lig
 OpenBabel11021811393D
libRbt.so/2013.1/901 2013/11/27
 42 45  0  0  0  0  0  0  0  0999 V2000
    2.1687    2.2727   28.2812 C   0  0  2  0  0  0  0  0  0  0  0  0
    1.6223    1.9918   29.6022 O   0  0  0  0  0  0  0  0  0  0  0  0
   -2.2642    1.0435   31.0976 C   0  0  2  0  0  0  0  0  0  0  0  0
   -3.6689    1.0476   31.5462 N   0  0  0  0  0  0  0  0  0  0  0  0
   -1.3595    0.7722   26.7167 C   0  0  1  0  0  0  0  0  0  0  0  0
   -2.8139   -1.3389   23.3698 C   0  0  1  0  0  0  0  0  0  0  0  0
    3.6521    1.7961   28.1621 C   0  0  2  0  0  0  0  0  0  0  0  0
    3.8015    0.3925   28.6021 N   0  0  0  0  0  0  0  0  0  0  0  0
   -1.4909    2.1630   31.8226 C   0  0  0  0  0  0  0  0  0  0  0  0
   -1.8494    1.6314   25.5482 C   0  0  2  0  0  0  0  0  0  0  0  0
   -3.2046    2.0196   25.7766 O   0  0  0  0  0  0  0  0  0  0  0  0
   -3.3209   -0.9436   21.9493 C   0  0  2  0  0  0  0  0  0  0  0  0
   -4.6132   -0.2164   21.9856 N   0  0  0  0  0  0  0  0  0  0  0  0
    4.6020    2.7244   28.9819 C   0  0  1  0  0  0  0  0  0  0  0  0
    5.9622    2.3755   28.7371 O   0  0  0  0  0  0  0  0  0  0  0  0
    0.0080    2.1997   31.4170 C   0  0  2  0  0  0  0  0  0  0  0  0
    0.6329    3.3504   32.1019 N   0  0  0  0  0  0  0  0  0  0  0  0
   -1.7412    0.6548   24.3739 C   0  0  2  0  0  0  0  0  0  0  0  0
   -2.8996   -0.2215   24.2921 O   0  0  0  0  0  0  0  0  0  0  0  0
   -3.3993   -2.1936   21.0195 C   0  0  1  0  0  0  0  0  0  0  0  0
   -2.0730   -2.5777   20.6632 O   0  0  0  0  0  0  0  0  0  0  0  0
    4.4033    4.2173   28.6185 C   0  0  2  0  0  0  0  0  0  0  0  0
    5.2275    5.0151   29.4628 O   0  0  0  0  0  0  0  0  0  0  0  0
    0.2173    2.2747   29.8618 C   0  0  2  0  0  0  0  0  0  0  0  0
   -0.4830   -0.1463   24.7364 C   0  0  2  0  0  0  0  0  0  0  0  0
   -0.4469   -0.1966   26.1759 O   0  0  0  0  0  0  0  0  0  0  0  0
   -4.1064   -3.4237   21.6652 C   0  0  2  0  0  0  0  0  0  0  0  0
   -5.5099   -3.1634   21.7205 O   0  0  0  0  0  0  0  0  0  0  0  0
    2.9088    4.6174   28.7759 C   0  0  2  0  0  0  0  0  0  0  0  0
    2.0846    3.7077   27.9867 O   0  0  0  0  0  0  0  0  0  0  0  0
   -0.6741    1.2473   29.0745 C   0  0  2  0  0  0  0  0  0  0  0  0
   -0.6624    1.6212   27.6722 O   0  0  0  0  0  0  0  0  0  0  0  0
    0.8116    0.4871   24.1966 C   0  0  0  0  0  0  0  0  0  0  0  0
    1.1739    1.6245   24.9601 O   0  0  0  0  0  0  0  0  0  0  0  0
   -3.5514   -3.6924   23.0984 C   0  0  1  0  0  0  0  0  0  0  0  0
   -3.6062   -2.4628   23.8842 O   0  0  0  0  0  0  0  0  0  0  0  0
    2.5668    6.0477   28.3020 C   0  0  0  0  0  0  0  0  0  0  0  0
    2.1716    6.8691   29.3876 O   0  0  0  0  0  0  0  0  0  0  0  0
   -2.1553    1.2258   29.5645 C   0  0  1  0  0  0  0  0  0  0  0  0
   -2.8380    0.1538   28.9161 O   0  0  0  0  0  0  0  0  0  0  0  0
   -4.3335   -4.8041   23.8439 C   0  0  0  0  0  0  0  0  0  0  0  0
   -3.8540   -5.0014   25.2238 N   0  0  0  0  0  0  0  0  0  0  0  0
  1  2  1  1  0  0  0
  1  7  1  0  0  0  0
  1 30  1  0  0  0  0
  3  4  1  1  0  0  0
  3  9  1  0  0  0  0
  3 39  1  0  0  0  0
  5 10  1  0  0  0  0
  5 26  1  0  0  0  0
  5 32  1  1  0  0  0
  6 12  1  0  0  0  0
  6 36  1  0  0  0  0
  6 19  1  1  0  0  0
  7  8  1  1  0  0  0
  7 14  1  0  0  0  0
  9 16  1  0  0  0  0
 10 11  1  1  0  0  0
 10 18  1  0  0  0  0
 12 13  1  1  0  0  0
 12 20  1  0  0  0  0
 14 15  1  6  0  0  0
 14 22  1  0  0  0  0
 16 17  1  1  0  0  0
 16 24  1  0  0  0  0
 18 19  1  1  0  0  0
 18 25  1  0  0  0  0
 20 21  1  1  0  0  0
 20 27  1  0  0  0  0
 22 23  1  1  0  0  0
 22 29  1  0  0  0  0
 24  2  1  1  0  0  0
 24 31  1  0  0  0  0
 25 26  1  0  0  0  0
 25 33  1  1  0  0  0
 27 28  1  1  0  0  0
 27 35  1  0  0  0  0
 29 30  1  0  0  0  0
 29 37  1  6  0  0  0
 31 32  1  6  0  0  0
 31 39  1  0  0  0  0
 33 34  1  0  0  0  0
 35 36  1  0  0  0  0
 35 41  1  1  0  0  0
 37 38  1  0  0  0  0
 39 40  1  6  0  0  0
 41 42  1  0  0  0  0
M  END
>  <CHROM.1>
-175.32197496,-166.87598904,96.50767555,115.86368696,-166.32693027,-1.69159462
-72.17221851,57.06331994,-169.66051695,-89.48416262,-174.15851542,-175.40119608
75.04864053,-45.51900959,-113.85900688,176.54985264,150.64727509,-67.22652446
-176.77931661,-56.91761692,63.15662779,-158.42822883,-0.54367175,0.84995005
26.74236656,-0.86800266,-0.48136471,-1.92155792

>  <Name>
1fyp_lig

>  <RI>
0

>  <Rbt.Current_Directory>
/home/itssahil/PROJECTS/Mol_Feturizer/New_Systems/rnas/1fyp

>  <Rbt.Executable>
rbdock ($Id: //depot/dev/client3/rdock/2013.1/src/exe/rbdock.cxx#4 $)

>  <Rbt.Library>
libRbt.so (2013.1, Build901 2013/11/27)

>  <Rbt.Parameter_File>
/export/apps/rDock/src/rDock_2013.1_src/data/scripts/dock_solv.prm

>  <Rbt.Receptor>
prm/blind_docking_100.prm

>  <SCORE>
-44.1366

>  <SCORE.INTER>
-39.0656

>  <SCORE.INTER.CONST>
1

>  <SCORE.INTER.POLAR>
-4.83245

>  <SCORE.INTER.ROT>
14

>  <SCORE.INTER.SOLV>
18.7913

>  <SCORE.INTER.VDW>
-29.1327

>  <SCORE.INTER.norm>
-0.930133

>  <SCORE.INTRA>
-6.16505

>  <SCORE.INTRA.DIHEDRAL>
-23.5848

>  <SCORE.INTRA.DIHEDRAL.0>
48.7173

>  <SCORE.INTRA.POLAR>
0.878609

>  <SCORE.INTRA.POLAR.0>
-1.54691

>  <SCORE.INTRA.REPUL>
0.0422886

>  <SCORE.INTRA.REPUL.0>
0

>  <SCORE.INTRA.SOLV>
-2.32172

>  <SCORE.INTRA.SOLV.lig_0>
-64.052

>  <SCORE.INTRA.VDW>
3.58952

>  <SCORE.INTRA.VDW.0>
-7.0667

>  <SCORE.INTRA.norm>
-0.146787

>  <SCORE.RESTR>
1.09404

>  <SCORE.RESTR.CAVITY>
1.09404

>  <SCORE.RESTR.norm>
0.0260486

>  <SCORE.SYSTEM>
0

>  <SCORE.SYSTEM.CONST>
0

>  <SCORE.SYSTEM.DIHEDRAL>
0

>  <SCORE.SYSTEM.SOLV>
0

>  <SCORE.SYSTEM.norm>
0

>  <SCORE.heavy>
42

>  <SCORE.norm>
-1.05087

>  <RMSD>
7.180

$$$$
1fyp_lig
 OpenBabel11021811393D
libRbt.so/2013.1/901 2013/11/27
 42 45  0  0  0  0  0  0  0  0999 V2000
   10.1298    9.2853   32.9386 C   0  0  2  0  0  0  0  0  0  0  0  0
    9.5916    9.3648   31.5872 O   0  0  0  0  0  0  0  0  0  0  0  0
   11.0943    9.9136   27.6272 C   0  0  2  0  0  0  0  0  0  0  0  0
   11.8502    9.8751   26.3617 N   0  0  0  0  0  0  0  0  0  0  0  0
    7.6638    7.0490   29.7190 C   0  0  1  0  0  0  0  0  0  0  0  0
    4.1169    4.9951   28.9493 C   0  0  1  0  0  0  0  0  0  0  0  0
    9.0141    8.9507   33.9804 C   0  0  2  0  0  0  0  0  0  0  0  0
    8.2272    7.7707   33.5630 N   0  0  0  0  0  0  0  0  0  0  0  0
   12.0559   10.2318   28.7895 C   0  0  0  0  0  0  0  0  0  0  0  0
    7.2895    5.6230   29.3064 C   0  0  2  0  0  0  0  0  0  0  0  0
    6.8053    5.6266   27.9629 O   0  0  0  0  0  0  0  0  0  0  0  0
    2.7765    5.6865   28.5538 C   0  0  2  0  0  0  0  0  0  0  0  0
    2.0479    6.2325   29.7249 N   0  0  0  0  0  0  0  0  0  0  0  0
    8.0746   10.1771   34.2023 C   0  0  1  0  0  0  0  0  0  0  0  0
    7.1637    9.9125   35.2662 O   0  0  0  0  0  0  0  0  0  0  0  0
   11.3203   10.3152   30.1550 C   0  0  2  0  0  0  0  0  0  0  0  0
   12.3375   10.5418   31.2026 N   0  0  0  0  0  0  0  0  0  0  0  0
    6.1718    5.2924   30.2994 C   0  0  2  0  0  0  0  0  0  0  0  0
    4.8881    5.8190   29.8620 O   0  0  0  0  0  0  0  0  0  0  0  0
    1.8755    4.7193   27.7258 C   0  0  1  0  0  0  0  0  0  0  0  0
    2.4312    4.5891   26.4189 O   0  0  0  0  0  0  0  0  0  0  0  0
    8.8729   11.4600   34.5449 C   0  0  2  0  0  0  0  0  0  0  0  0
    7.9700   12.5573   34.6427 O   0  0  0  0  0  0  0  0  0  0  0  0
   10.4558    9.0395   30.4608 C   0  0  2  0  0  0  0  0  0  0  0  0
    6.6462    6.0125   31.5693 C   0  0  2  0  0  0  0  0  0  0  0  0
    7.3668    7.1760   31.1188 O   0  0  0  0  0  0  0  0  0  0  0  0
    1.7381    3.2938   28.3415 C   0  0  2  0  0  0  0  0  0  0  0  0
    0.8921    3.3746   29.4897 O   0  0  0  0  0  0  0  0  0  0  0  0
    9.9501   11.7327   33.4570 C   0  0  2  0  0  0  0  0  0  0  0  0
   10.7858   10.5461   33.3035 O   0  0  0  0  0  0  0  0  0  0  0  0
    9.5728    8.5920   29.2401 C   0  0  2  0  0  0  0  0  0  0  0  0
    9.0895    7.2486   29.5011 O   0  0  0  0  0  0  0  0  0  0  0  0
    7.5524    5.1391   32.4550 C   0  0  0  0  0  0  0  0  0  0  0  0
    6.9319    3.8984   32.7440 O   0  0  0  0  0  0  0  0  0  0  0  0
    3.1354    2.7258   28.7407 C   0  0  1  0  0  0  0  0  0  0  0  0
    3.8393    3.6962   29.5746 O   0  0  0  0  0  0  0  0  0  0  0  0
   10.9036   12.9078   33.7685 C   0  0  0  0  0  0  0  0  0  0  0  0
   10.1957   14.1315   33.8730 O   0  0  0  0  0  0  0  0  0  0  0  0
   10.3595    8.5776   27.8927 C   0  0  1  0  0  0  0  0  0  0  0  0
    9.4427    8.3282   26.8284 O   0  0  0  0  0  0  0  0  0  0  0  0
    3.0380    1.3798   29.5036 C   0  0  0  0  0  0  0  0  0  0  0  0
    2.8709    0.2294   28.5972 N   0  0  0  0  0  0  0  0  0  0  0  0
  1  2  1  6  0  0  0
  1  7  1  0  0  0  0
  1 30  1  0  0  0  0
  3  4  1  6  0  0  0
  3  9  1  0  0  0  0
  3 39  1  0  0  0  0
  5 10  1  0  0  0  0
  5 26  1  0  0  0  0
  5 32  1  1  0  0  0
  6 12  1  0  0  0  0
  6 36  1  0  0  0  0
  6 19  1  1  0  0  0
  7  8  1  6  0  0  0
  7 14  1  0  0  0  0
  9 16  1  0  0  0  0
 10 11  1  6  0  0  0
 10 18  1  0  0  0  0
 12 13  1  1  0  0  0
 12 20  1  0  0  0  0
 14 15  1  1  0  0  0
 14 22  1  0  0  0  0
 16 17  1  1  0  0  0
 16 24  1  0  0  0  0
 18 19  1  6  0  0  0
 18 25  1  0  0  0  0
 20 21  1  6  0  0  0
 20 27  1  0  0  0  0
 22 23  1  6  0  0  0
 22 29  1  0  0  0  0
 24  2  1  1  0  0  0
 24 31  1  0  0  0  0
 25 26  1  0  0  0  0
 25 33  1  6  0  0  0
 27 28  1  1  0  0  0
 27 35  1  0  0  0  0
 29 30  1  0  0  0  0
 29 37  1  1  0  0  0
 31 32  1  1  0  0  0
 31 39  1  0  0  0  0
 33 34  1  0  0  0  0
 35 36  1  0  0  0  0
 35 41  1  1  0  0  0
 37 38  1  0  0  0  0
 39 40  1  6  0  0  0
 41 42  1  0  0  0  0
M  END
>  <CHROM.1>
-151.30212225,-81.58895811,130.82295656,-49.35011801,-173.88650574,-40.26851696
-57.59497394,167.27787958,85.47822896,-179.40037137,-151.43942366,-56.02323044
-53.02486282,60.97880490,-61.87146028,112.84000729,152.92597217,-179.66937826
81.76461932,-176.05895080,-63.03316560,-178.75503593,7.31625168,7.47028978
30.57745025,0.60389557,0.63425318,1.14086447

>  <Name>
1fyp_lig

>  <RI>
0

>  <Rbt.Current_Directory>
/home/itssahil/PROJECTS/Mol_Feturizer/New_Systems/rnas/1fyp

>  <Rbt.Executable>
rbdock ($Id: //depot/dev/client3/rdock/2013.1/src/exe/rbdock.cxx#4 $)

>  <Rbt.Library>
libRbt.so (2013.1, Build901 2013/11/27)

>  <Rbt.Parameter_File>
/export/apps/rDock/src/rDock_2013.1_src/data/scripts/dock_solv.prm

>  <Rbt.Receptor>
prm/pocket_docking_8.prm

>  <SCORE>
-32.4898

>  <SCORE.INTER>
-21.6922

>  <SCORE.INTER.CONST>
1

>  <SCORE.INTER.POLAR>
-4.32318

>  <SCORE.INTER.ROT>
14

>  <SCORE.INTER.SOLV>
8.01075

>  <SCORE.INTER.VDW>
-15.6544

>  <SCORE.INTER.norm>
-0.51648

>  <SCORE.INTRA>
-10.8291

>  <SCORE.INTRA.DIHEDRAL>
-21.4721

>  <SCORE.INTRA.DIHEDRAL.0>
48.7173

>  <SCORE.INTRA.POLAR>
-0.479582

>  <SCORE.INTRA.POLAR.0>
-1.54691

>  <SCORE.INTRA.REPUL>
0.00337184

>  <SCORE.INTRA.REPUL.0>
0

>  <SCORE.INTRA.SOLV>
-1.05247

>  <SCORE.INTRA.SOLV.lig_0>
-64.052

>  <SCORE.INTRA.VDW>
2.04689

>  <SCORE.INTRA.VDW.0>
-7.0667

>  <SCORE.INTRA.norm>
-0.257835

>  <SCORE.RESTR>
0.0314728

>  <SCORE.RESTR.CAVITY>
0.0314728

>  <SCORE.RESTR.norm>
0.000749352

>  <SCORE.SYSTEM>
0

>  <SCORE.SYSTEM.CONST>
0

>  <SCORE.SYSTEM.DIHEDRAL>
0

>  <SCORE.SYSTEM.SOLV>
0

>  <SCORE.SYSTEM.norm>
0

>  <SCORE.heavy>
42

>  <SCORE.norm>
-0.773566

>  <RMSD>
7.199

$$$$
1fyp_lig
 OpenBabel11021811393D
libRbt.so/2013.1/901 2013/11/27
 42 45  0  0  0  0  0  0  0  0999 V2000
    1.8512    3.6007   26.3583 C   0  0  2  0  0  0  0  0  0  0  0  0
    2.0242    3.0462   27.6943 O   0  0  0  0  0  0  0  0  0  0  0  0
   -0.3602    1.6588   30.9548 C   0  0  2  0  0  0  0  0  0  0  0  0
   -1.3171    1.4966   32.0649 N   0  0  0  0  0  0  0  0  0  0  0  0
   -0.8735    1.3155   26.1285 C   0  0  1  0  0  0  0  0  0  0  0  0
   -1.7871   -1.8872   23.3822 C   0  0  1  0  0  0  0  0  0  0  0  0
    2.8588    2.9719   25.3427 C   0  0  2  0  0  0  0  0  0  0  0  0
    2.8291    1.4950   25.4026 N   0  0  0  0  0  0  0  0  0  0  0  0
    0.5135    2.9035   31.2085 C   0  0  0  0  0  0  0  0  0  0  0  0
   -1.2783   -0.0509   26.6877 C   0  0  2  0  0  0  0  0  0  0  0  0
   -0.1064   -0.8128   26.9806 O   0  0  0  0  0  0  0  0  0  0  0  0
   -3.0286   -2.7315   23.8029 C   0  0  2  0  0  0  0  0  0  0  0  0
   -2.7570   -3.6040   24.9713 N   0  0  0  0  0  0  0  0  0  0  0  0
    4.3066    3.4953   25.5994 C   0  0  1  0  0  0  0  0  0  0  0  0
    5.1834    3.0399   24.5719 O   0  0  0  0  0  0  0  0  0  0  0  0
    1.5666    3.1208   30.0877 C   0  0  2  0  0  0  0  0  0  0  0  0
    2.2898    4.3747   30.3847 N   0  0  0  0  0  0  0  0  0  0  0  0
   -2.0539   -0.6533   25.5130 C   0  0  2  0  0  0  0  0  0  0  0  0
   -1.1648   -1.2532   24.5300 O   0  0  0  0  0  0  0  0  0  0  0  0
   -3.5762   -3.5538   22.5959 C   0  0  1  0  0  0  0  0  0  0  0  0
   -4.2318   -2.6603   21.6985 O   0  0  0  0  0  0  0  0  0  0  0  0
    4.3606    5.0430   25.6429 C   0  0  2  0  0  0  0  0  0  0  0  0
    5.6844    5.4531   25.9717 O   0  0  0  0  0  0  0  0  0  0  0  0
    0.9312    3.1512   28.6512 C   0  0  2  0  0  0  0  0  0  0  0  0
   -2.7557    0.5789   24.9251 C   0  0  2  0  0  0  0  0  0  0  0  0
   -1.8707    1.6903   25.1647 O   0  0  0  0  0  0  0  0  0  0  0  0
   -2.4791   -4.3253   21.8014 C   0  0  2  0  0  0  0  0  0  0  0  0
   -2.0488   -5.4389   22.5858 O   0  0  0  0  0  0  0  0  0  0  0  0
    3.3435    5.5900   26.6842 C   0  0  2  0  0  0  0  0  0  0  0  0
    2.0182    5.0583   26.3832 O   0  0  0  0  0  0  0  0  0  0  0  0
   -0.0872    1.9791   28.4080 C   0  0  2  0  0  0  0  0  0  0  0  0
   -0.8521    2.2862   27.2135 O   0  0  0  0  0  0  0  0  0  0  0  0
   -4.1305    0.8507   25.5613 C   0  0  0  0  0  0  0  0  0  0  0  0
   -4.4570    2.2276   25.4894 O   0  0  0  0  0  0  0  0  0  0  0  0
   -1.2698   -3.3934   21.4796 C   0  0  1  0  0  0  0  0  0  0  0  0
   -0.8087   -2.7473   22.7053 O   0  0  0  0  0  0  0  0  0  0  0  0
    3.2069    7.1287   26.7112 C   0  0  0  0  0  0  0  0  0  0  0  0
    2.7001    7.6223   25.4829 O   0  0  0  0  0  0  0  0  0  0  0  0
   -1.0839    1.7831   29.5924 C   0  0  1  0  0  0  0  0  0  0  0  0
   -1.8480    0.6011   29.3588 O   0  0  0  0  0  0  0  0  0  0  0  0
   -0.0843   -4.1541   20.8322 C   0  0  0  0  0  0  0  0  0  0  0  0
   -0.3322   -4.4837   19.4170 N   0  0  0  0  0  0  0  0  0  0  0  0
  1  2  1  1  0  0  0
  1  7  1  0  0  0  0
  1 30  1  0  0  0  0
  3  4  1  1  0  0  0
  3  9  1  0  0  0  0
  3 39  1  0  0  0  0
  5 10  1  0  0  0  0
  5 26  1  0  0  0  0
  5 32  1  1  0  0  0
  6 12  1  0  0  0  0
  6 36  1  0  0  0  0
  6 19  1  1  0  0  0
  7  8  1  1  0  0  0
  7 14  1  0  0  0  0
  9 16  1  0  0  0  0
 10 11  1  6  0  0  0
 10 18  1  0  0  0  0
 12 13  1  1  0  0  0
 12 20  1  0  0  0  0
 14 15  1  6  0  0  0
 14 22  1  0  0  0  0
 16 17  1  1  0  0  0
 16 24  1  0  0  0  0
 18 19  1  6  0  0  0
 18 25  1  0  0  0  0
 20 21  1  6  0  0  0
 20 27  1  0  0  0  0
 22 23  1  1  0  0  0
 22 29  1  0  0  0  0
 24  2  1  6  0  0  0
 24 31  1  0  0  0  0
 25 26  1  0  0  0  0
 25 33  1  1  0  0  0
 27 28  1  1  0  0  0
 27 35  1  0  0  0  0
 29 30  1  0  0  0  0
 29 37  1  6  0  0  0
 31 32  1  6  0  0  0
 31 39  1  0  0  0  0
 33 34  1  0  0  0  0
 35 36  1  0  0  0  0
 35 41  1  1  0  0  0
 37 38  1  0  0  0  0
 39 40  1  6  0  0  0
 41 42  1  0  0  0  0
M  END
>  <CHROM.1>
-159.51585901,-153.97184940,79.35281147,131.80827975,-61.12005650,-177.83920809
179.31215111,-45.41084144,178.56915393,-42.67512423,-170.38592426,72.23704120
152.88511888,69.30674478,63.56561114,124.54259234,52.29957743,-153.19364229
75.51983197,-57.66037416,-51.79521034,-50.84800109,-0.01454181,0.98802032
25.83276809,-0.94564221,-0.66847982,-2.13766153

>  <Name>
1fyp_lig

>  <RI>
0

>  <Rbt.Current_Directory>
/home/itssahil/PROJECTS/Mol_Feturizer/New_Systems/rnas/1fyp

>  <Rbt.Executable>
rbdock ($Id: //depot/dev/client3/rdock/2013.1/src/exe/rbdock.cxx#4 $)

>  <Rbt.Library>
libRbt.so (2013.1, Build901 2013/11/27)

>  <Rbt.Parameter_File>
/export/apps/rDock/src/rDock_2013.1_src/data/scripts/dock_solv.prm

>  <Rbt.Receptor>
prm/blind_docking_100.prm

>  <SCORE>
-47.0729

>  <SCORE.INTER>
-42.733

>  <SCORE.INTER.CONST>
1

>  <SCORE.INTER.POLAR>
-6.71506

>  <SCORE.INTER.ROT>
14

>  <SCORE.INTER.SOLV>
15.3994

>  <SCORE.INTER.VDW>
-24.1716

>  <SCORE.INTER.norm>
-1.01745

>  <SCORE.INTRA>
-4.33996

>  <SCORE.INTRA.DIHEDRAL>
-23.4055

>  <SCORE.INTRA.DIHEDRAL.0>
48.7173

>  <SCORE.INTRA.POLAR>
1.38594

>  <SCORE.INTRA.POLAR.0>
-1.54691

>  <SCORE.INTRA.REPUL>
0

>  <SCORE.INTRA.REPUL.0>
0

>  <SCORE.INTRA.SOLV>
-1.49409

>  <SCORE.INTRA.SOLV.lig_0>
-64.052

>  <SCORE.INTRA.VDW>
3.39763

>  <SCORE.INTRA.VDW.0>
-7.0667

>  <SCORE.INTRA.norm>
-0.103332

>  <SCORE.RESTR>
0

>  <SCORE.RESTR.CAVITY>
0

>  <SCORE.RESTR.norm>
0

>  <SCORE.SYSTEM>
0

>  <SCORE.SYSTEM.CONST>
0

>  <SCORE.SYSTEM.DIHEDRAL>
0

>  <SCORE.SYSTEM.SOLV>
0

>  <SCORE.SYSTEM.norm>
0

>  <SCORE.heavy>
42

>  <SCORE.norm>
-1.12078

>  <RMSD>
7.224

$$$$
1fyp_lig
 OpenBabel11021811393D
libRbt.so/2013.1/901 2013/11/27
 42 45  0  0  0  0  0  0  0  0999 V2000
    1.2717    3.0880   26.7049 C   0  0  2  0  0  0  0  0  0  0  0  0
    1.5384    2.6138   28.0563 O   0  0  0  0  0  0  0  0  0  0  0  0
   -0.6011    1.9075   31.6846 C   0  0  2  0  0  0  0  0  0  0  0  0
   -1.4105    1.9997   32.9138 N   0  0  0  0  0  0  0  0  0  0  0  0
   -2.3383    1.4271   27.3917 C   0  0  1  0  0  0  0  0  0  0  0  0
   -4.0114   -1.5827   24.5747 C   0  0  1  0  0  0  0  0  0  0  0  0
    2.2928    2.4981   25.6794 C   0  0  2  0  0  0  0  0  0  0  0  0
    2.3913    1.0284   25.8057 N   0  0  0  0  0  0  0  0  0  0  0  0
    0.5232    2.9614   31.7306 C   0  0  0  0  0  0  0  0  0  0  0  0
   -2.0041    1.3070   25.9025 C   0  0  2  0  0  0  0  0  0  0  0  0
   -2.8883    2.1355   25.1467 O   0  0  0  0  0  0  0  0  0  0  0  0
   -3.7148   -1.2987   23.0706 C   0  0  2  0  0  0  0  0  0  0  0  0
   -4.2430    0.0128   22.6217 N   0  0  0  0  0  0  0  0  0  0  0  0
    3.6989    3.1522   25.8558 C   0  0  1  0  0  0  0  0  0  0  0  0
    4.5746    2.7235   24.8160 O   0  0  0  0  0  0  0  0  0  0  0  0
    1.4353    2.9031   30.4748 C   0  0  2  0  0  0  0  0  0  0  0  0
    2.4211    3.9987   30.5815 N   0  0  0  0  0  0  0  0  0  0  0  0
   -2.2722   -0.1773   25.6396 C   0  0  2  0  0  0  0  0  0  0  0  0
   -3.6841   -0.4374   25.4040 O   0  0  0  0  0  0  0  0  0  0  0  0
   -4.2408   -2.4598   22.1716 C   0  0  1  0  0  0  0  0  0  0  0  0
   -3.3835   -3.5870   22.3392 O   0  0  0  0  0  0  0  0  0  0  0  0
    3.6223    4.6993   25.8287 C   0  0  2  0  0  0  0  0  0  0  0  0
    4.9171    5.2337   26.0870 O   0  0  0  0  0  0  0  0  0  0  0  0
    0.6275    2.9868   29.1299 C   0  0  2  0  0  0  0  0  0  0  0  0
   -1.8163   -0.8246   26.9548 C   0  0  2  0  0  0  0  0  0  0  0  0
   -2.0852    0.1443   27.9867 O   0  0  0  0  0  0  0  0  0  0  0  0
   -5.6996   -2.9041   22.4948 C   0  0  2  0  0  0  0  0  0  0  0  0
   -6.5964   -1.8994   22.0184 O   0  0  0  0  0  0  0  0  0  0  0  0
    2.5996    5.2082   26.8838 C   0  0  2  0  0  0  0  0  0  0  0  0
    1.3146    4.5539   26.6587 O   0  0  0  0  0  0  0  0  0  0  0  0
   -0.6219    2.0337   29.1065 C   0  0  2  0  0  0  0  0  0  0  0  0
   -1.4689    2.4268   27.9954 O   0  0  0  0  0  0  0  0  0  0  0  0
   -0.3235   -1.1992   26.9568 C   0  0  0  0  0  0  0  0  0  0  0  0
   -0.0479   -2.1812   25.9733 O   0  0  0  0  0  0  0  0  0  0  0  0
   -5.8884   -3.1111   24.0296 C   0  0  1  0  0  0  0  0  0  0  0  0
   -5.4291   -1.9237   24.7449 O   0  0  0  0  0  0  0  0  0  0  0  0
    2.3333    6.7297   26.8480 C   0  0  0  0  0  0  0  0  0  0  0  0
    1.4297    7.1185   27.8687 O   0  0  0  0  0  0  0  0  0  0  0  0
   -1.4663    2.1048   30.4166 C   0  0  1  0  0  0  0  0  0  0  0  0
   -2.4693    1.0910   30.3720 O   0  0  0  0  0  0  0  0  0  0  0  0
   -7.3619   -3.3968   24.4177 C   0  0  0  0  0  0  0  0  0  0  0  0
   -8.1210   -2.1635   24.6930 N   0  0  0  0  0  0  0  0  0  0  0  0
  1  2  1  1  0  0  0
  1  7  1  0  0  0  0
  1 30  1  0  0  0  0
  3  4  1  1  0  0  0
  3  9  1  0  0  0  0
  3 39  1  0  0  0  0
  5 10  1  0  0  0  0
  5 26  1  0  0  0  0
  5 32  1  1  0  0  0
  6 12  1  0  0  0  0
  6 36  1  0  0  0  0
  6 19  1  1  0  0  0
  7  8  1  1  0  0  0
  7 14  1  0  0  0  0
  9 16  1  0  0  0  0
 10 11  1  6  0  0  0
 10 18  1  0  0  0  0
 12 13  1  6  0  0  0
 12 20  1  0  0  0  0
 14 15  1  6  0  0  0
 14 22  1  0  0  0  0
 16 17  1  1  0  0  0
 16 24  1  0  0  0  0
 18 19  1  1  0  0  0
 18 25  1  0  0  0  0
 20 21  1  1  0  0  0
 20 27  1  0  0  0  0
 22 23  1  1  0  0  0
 22 29  1  0  0  0  0
 24  2  1  6  0  0  0
 24 31  1  0  0  0  0
 25 26  1  0  0  0  0
 25 33  1  6  0  0  0
 27 28  1  1  0  0  0
 27 35  1  0  0  0  0
 29 30  1  0  0  0  0
 29 37  1  6  0  0  0
 31 32  1  6  0  0  0
 31 39  1  0  0  0  0
 33 34  1  0  0  0  0
 35 36  1  0  0  0  0
 35 41  1  6  0  0  0
 37 38  1  0  0  0  0
 39 40  1  6  0  0  0
 41 42  1  0  0  0  0
M  END
>  <CHROM.1>
-175.71622461,-155.85791757,-64.33009556,24.86491012,-62.66129806,-16.96596326
-59.65923197,-168.32785901,152.52424228,-74.21753644,-59.27440215,-58.24309885
-63.43864274,-54.61664957,-177.88677517,153.78886255,-121.98533498,-60.21193594
-89.16960527,-94.14586478,-71.58435639,-5.48606338,-1.12702051,1.17277428
26.55529920,-0.57468167,-0.59217705,-1.81192198

>  <Name>
1fyp_lig

>  <RI>
0

>  <Rbt.Current_Directory>
/home/itssahil/PROJECTS/Mol_Feturizer/New_Systems/rnas/1fyp

>  <Rbt.Executable>
rbdock ($Id: //depot/dev/client3/rdock/2013.1/src/exe/rbdock.cxx#4 $)

>  <Rbt.Library>
libRbt.so (2013.1, Build901 2013/11/27)

>  <Rbt.Parameter_File>
/export/apps/rDock/src/rDock_2013.1_src/data/scripts/dock_solv.prm

>  <Rbt.Receptor>
prm/blind_docking_80.prm

>  <SCORE>
-46.4471

>  <SCORE.INTER>
-43.3617

>  <SCORE.INTER.CONST>
1

>  <SCORE.INTER.POLAR>
-5.93941

>  <SCORE.INTER.ROT>
14

>  <SCORE.INTER.SOLV>
14.5389

>  <SCORE.INTER.VDW>
-26.8894

>  <SCORE.INTER.norm>
-1.03242

>  <SCORE.INTRA>
-4.85067

>  <SCORE.INTRA.DIHEDRAL>
-17.689

>  <SCORE.INTRA.DIHEDRAL.0>
48.7173

>  <SCORE.INTRA.POLAR>
0.74389

>  <SCORE.INTRA.POLAR.0>
-1.54691

>  <SCORE.INTRA.REPUL>
0

>  <SCORE.INTRA.REPUL.0>
0

>  <SCORE.INTRA.SOLV>
-1.83493

>  <SCORE.INTRA.SOLV.lig_0>
-64.052

>  <SCORE.INTRA.VDW>
2.38207

>  <SCORE.INTRA.VDW.0>
-7.0667

>  <SCORE.INTRA.norm>
-0.115492

>  <SCORE.RESTR>
1.7652

>  <SCORE.RESTR.CAVITY>
1.7652

>  <SCORE.RESTR.norm>
0.0420285

>  <SCORE.SYSTEM>
0

>  <SCORE.SYSTEM.CONST>
0

>  <SCORE.SYSTEM.DIHEDRAL>
0

>  <SCORE.SYSTEM.SOLV>
0

>  <SCORE.SYSTEM.norm>
0

>  <SCORE.heavy>
42

>  <SCORE.norm>
-1.10588

>  <RMSD>
7.224

$$$$
1fyp_lig
 OpenBabel11021811393D
libRbt.so/2013.1/901 2013/11/27
 42 45  0  0  0  0  0  0  0  0999 V2000
    0.8647    2.9653   26.8674 C   0  0  2  0  0  0  0  0  0  0  0  0
    1.1849    2.3253   28.1363 O   0  0  0  0  0  0  0  0  0  0  0  0
   -0.3127    1.6741   32.0827 C   0  0  2  0  0  0  0  0  0  0  0  0
   -0.9231    1.7797   33.4209 N   0  0  0  0  0  0  0  0  0  0  0  0
   -1.5990    1.5177   27.1928 C   0  0  1  0  0  0  0  0  0  0  0  0
   -1.4386   -1.3059   23.7440 C   0  0  1  0  0  0  0  0  0  0  0  0
    1.9363    2.6422   25.7768 C   0  0  2  0  0  0  0  0  0  0  0  0
    2.1860    1.1880   25.6846 N   0  0  0  0  0  0  0  0  0  0  0  0
    0.7407    2.7865   31.9101 C   0  0  0  0  0  0  0  0  0  0  0  0
   -1.7207   -0.0079   27.1581 C   0  0  2  0  0  0  0  0  0  0  0  0
   -0.4199   -0.5923   27.2352 O   0  0  0  0  0  0  0  0  0  0  0  0
   -2.0230   -0.7955   22.3916 C   0  0  2  0  0  0  0  0  0  0  0  0
   -3.2444    0.0268   22.5709 N   0  0  0  0  0  0  0  0  0  0  0  0
    3.2685    3.4033   26.0635 C   0  0  1  0  0  0  0  0  0  0  0  0
    4.1787    3.2259   24.9810 O   0  0  0  0  0  0  0  0  0  0  0  0
    1.4460    2.7188   30.5280 C   0  0  2  0  0  0  0  0  0  0  0  0
    2.3700    3.8683   30.4359 N   0  0  0  0  0  0  0  0  0  0  0  0
   -2.3543   -0.2408   25.7838 C   0  0  2  0  0  0  0  0  0  0  0  0
   -1.3589   -0.2372   24.7229 O   0  0  0  0  0  0  0  0  0  0  0  0
   -2.2772   -1.9830   21.4127 C   0  0  1  0  0  0  0  0  0  0  0  0
   -1.0193   -2.4489   20.9286 O   0  0  0  0  0  0  0  0  0  0  0  0
    3.0330    4.9212   26.2654 C   0  0  2  0  0  0  0  0  0  0  0  0
    4.2672    5.5409   26.6141 O   0  0  0  0  0  0  0  0  0  0  0  0
    0.4336    2.6986   29.3269 C   0  0  2  0  0  0  0  0  0  0  0  0
   -3.2889    0.9697   25.6511 C   0  0  2  0  0  0  0  0  0  0  0  0
   -2.6480    2.0447   26.3649 O   0  0  0  0  0  0  0  0  0  0  0  0
   -3.0290   -3.1878   22.0554 C   0  0  2  0  0  0  0  0  0  0  0  0
   -4.3976   -2.8228   22.2405 O   0  0  0  0  0  0  0  0  0  0  0  0
    1.9683    5.1600   27.3733 C   0  0  2  0  0  0  0  0  0  0  0  0
    0.7564    4.4185   27.0398 O   0  0  0  0  0  0  0  0  0  0  0  0
   -0.7456    1.6812   29.5380 C   0  0  2  0  0  0  0  0  0  0  0  0
   -1.7782    1.9783   28.5623 O   0  0  0  0  0  0  0  0  0  0  0  0
   -4.6925    0.7141   26.2285 C   0  0  0  0  0  0  0  0  0  0  0  0
   -4.6138    0.2887   27.5777 O   0  0  0  0  0  0  0  0  0  0  0  0
   -2.3855   -3.5767   23.4226 C   0  0  1  0  0  0  0  0  0  0  0  0
   -2.2767   -2.3913   24.2684 O   0  0  0  0  0  0  0  0  0  0  0  0
    1.5468    6.6346   27.5609 C   0  0  0  0  0  0  0  0  0  0  0  0
    1.5554    7.0024   28.9299 O   0  0  0  0  0  0  0  0  0  0  0  0
   -1.3765    1.7677   30.9624 C   0  0  1  0  0  0  0  0  0  0  0  0
   -2.3125    0.7017   31.1155 O   0  0  0  0  0  0  0  0  0  0  0  0
   -3.1941   -4.6633   24.1766 C   0  0  0  0  0  0  0  0  0  0  0  0
   -3.2322   -5.9442   23.4479 N   0  0  0  0  0  0  0  0  0  0  0  0
  1  2  1  1  0  0  0
  1  7  1  0  0  0  0
  1 30  1  0  0  0  0
  3  4  1  1  0  0  0
  3  9  1  0  0  0  0
  3 39  1  0  0  0  0
  5 10  1  0  0  0  0
  5 26  1  0  0  0  0
  5 32  1  1  0  0  0
  6 12  1  0  0  0  0
  6 36  1  0  0  0  0
  6 19  1  1  0  0  0
  7  8  1  1  0  0  0
  7 14  1  0  0  0  0
  9 16  1  0  0  0  0
 10 11  1  6  0  0  0
 10 18  1  0  0  0  0
 12 13  1  1  0  0  0
 12 20  1  0  0  0  0
 14 15  1  6  0  0  0
 14 22  1  0  0  0  0
 16 17  1  6  0  0  0
 16 24  1  0  0  0  0
 18 19  1  6  0  0  0
 18 25  1  0  0  0  0
 20 21  1  1  0  0  0
 20 27  1  0  0  0  0
 22 23  1  1  0  0  0
 22 29  1  0  0  0  0
 24  2  1  6  0  0  0
 24 31  1  0  0  0  0
 25 26  1  0  0  0  0
 25 33  1  1  0  0  0
 27 28  1  1  0  0  0
 27 35  1  0  0  0  0
 29 30  1  0  0  0  0
 29 37  1  6  0  0  0
 31 32  1  6  0  0  0
 31 39  1  0  0  0  0
 33 34  1  0  0  0  0
 35 36  1  0  0  0  0
 35 41  1  1  0  0  0
 37 38  1  0  0  0  0
 39 40  1  1  0  0  0
 41 42  1  0  0  0  0
M  END
>  <CHROM.1>
169.33960459,-142.03623844,-173.57233830,-110.44799973,62.50055121,-64.67879309
-57.31168844,-51.41120091,133.70173885,104.78885699,-75.48759264,-177.02688531
55.04100851,169.98490186,-132.49995126,78.71262408,69.60134595,-178.20263179
63.93414765,-59.17404263,-178.29519900,-129.10199958,-0.64399250,1.10192134
26.61464835,-0.91529220,-0.75978704,-1.92315694

>  <Name>
1fyp_lig

>  <RI>
0

>  <Rbt.Current_Directory>
/home/itssahil/PROJECTS/Mol_Feturizer/New_Systems/rnas/1fyp

>  <Rbt.Executable>
rbdock ($Id: //depot/dev/client3/rdock/2013.1/src/exe/rbdock.cxx#4 $)

>  <Rbt.Library>
libRbt.so (2013.1, Build901 2013/11/27)

>  <Rbt.Parameter_File>
/export/apps/rDock/src/rDock_2013.1_src/data/scripts/dock_solv.prm

>  <Rbt.Receptor>
prm/blind_docking_100.prm

>  <SCORE>
-46.1376

>  <SCORE.INTER>
-45.5981

>  <SCORE.INTER.CONST>
1

>  <SCORE.INTER.POLAR>
-5.84304

>  <SCORE.INTER.ROT>
14

>  <SCORE.INTER.SOLV>
13.6236

>  <SCORE.INTER.VDW>
-28.3964

>  <SCORE.INTER.norm>
-1.08567

>  <SCORE.INTRA>
-1.53796

>  <SCORE.INTRA.DIHEDRAL>
-16.9121

>  <SCORE.INTRA.DIHEDRAL.0>
48.7173

>  <SCORE.INTRA.POLAR>
1.43092

>  <SCORE.INTRA.POLAR.0>
-1.54691

>  <SCORE.INTRA.REPUL>
0

>  <SCORE.INTRA.REPUL.0>
0

>  <SCORE.INTRA.SOLV>
-0.258825

>  <SCORE.INTRA.SOLV.lig_0>
-64.052

>  <SCORE.INTRA.VDW>
2.18241

>  <SCORE.INTRA.VDW.0>
-7.0667

>  <SCORE.INTRA.norm>
-0.036618

>  <SCORE.RESTR>
0.998477

>  <SCORE.RESTR.CAVITY>
0.998477

>  <SCORE.RESTR.norm>
0.0237733

>  <SCORE.SYSTEM>
0

>  <SCORE.SYSTEM.CONST>
0

>  <SCORE.SYSTEM.DIHEDRAL>
0

>  <SCORE.SYSTEM.SOLV>
0

>  <SCORE.SYSTEM.norm>
0

>  <SCORE.heavy>
42

>  <SCORE.norm>
-1.09851

>  <RMSD>
7.418

$$$$
1fyp_lig
 OpenBabel11021811393D
libRbt.so/2013.1/901 2013/11/27
 42 45  0  0  0  0  0  0  0  0999 V2000
    1.1148    2.8972   27.3133 C   0  0  2  0  0  0  0  0  0  0  0  0
    1.2145    2.3015   28.6390 O   0  0  0  0  0  0  0  0  0  0  0  0
   -1.4842    0.8732   31.6252 C   0  0  2  0  0  0  0  0  0  0  0  0
   -2.5086    0.7112   32.6735 N   0  0  0  0  0  0  0  0  0  0  0  0
   -1.4340    1.3658   26.6762 C   0  0  1  0  0  0  0  0  0  0  0  0
   -1.5184   -1.5100   23.2678 C   0  0  1  0  0  0  0  0  0  0  0  0
    2.3202    2.4847   26.4083 C   0  0  2  0  0  0  0  0  0  0  0  0
    2.5147    1.0191   26.4093 N   0  0  0  0  0  0  0  0  0  0  0  0
   -0.4773    1.9585   32.0555 C   0  0  0  0  0  0  0  0  0  0  0  0
   -1.9168   -0.0869   26.6981 C   0  0  2  0  0  0  0  0  0  0  0  0
   -0.8256   -0.9474   27.0274 O   0  0  0  0  0  0  0  0  0  0  0  0
   -2.4036   -0.8234   22.1832 C   0  0  2  0  0  0  0  0  0  0  0  0
   -3.5743   -0.1203   22.7623 N   0  0  0  0  0  0  0  0  0  0  0  0
    3.6284    3.2048   26.8622 C   0  0  1  0  0  0  0  0  0  0  0  0
    4.6798    2.9445   25.9356 O   0  0  0  0  0  0  0  0  0  0  0  0
    0.6497    2.1636   31.0065 C   0  0  2  0  0  0  0  0  0  0  0  0
    1.5065    3.2725   31.4755 N   0  0  0  0  0  0  0  0  0  0  0  0
   -2.3671   -0.2897   25.2488 C   0  0  2  0  0  0  0  0  0  0  0  0
   -1.2486   -0.6127   24.3763 O   0  0  0  0  0  0  0  0  0  0  0  0
   -2.8403   -1.8487   21.0919 C   0  0  1  0  0  0  0  0  0  0  0  0
   -1.7114   -2.1487   20.2739 O   0  0  0  0  0  0  0  0  0  0  0  0
    3.4346    4.7382   26.9694 C   0  0  2  0  0  0  0  0  0  0  0  0
    4.6304    5.3238   27.4753 O   0  0  0  0  0  0  0  0  0  0  0  0
    0.0960    2.4375   29.5620 C   0  0  2  0  0  0  0  0  0  0  0  0
   -2.9465    1.0874   24.8962 C   0  0  2  0  0  0  0  0  0  0  0  0
   -2.1818    2.0445   25.6544 O   0  0  0  0  0  0  0  0  0  0  0  0
   -3.3983   -3.1874   21.6632 C   0  0  2  0  0  0  0  0  0  0  0  0
   -4.6995   -2.9447   22.2004 O   0  0  0  0  0  0  0  0  0  0  0  0
    2.2297    5.0671   27.8957 C   0  0  2  0  0  0  0  0  0  0  0  0
    1.0481    4.3596   27.4127 O   0  0  0  0  0  0  0  0  0  0  0  0
   -1.0459    1.4411   29.1456 C   0  0  2  0  0  0  0  0  0  0  0  0
   -1.7059    1.9771   27.9693 O   0  0  0  0  0  0  0  0  0  0  0  0
   -4.4421    1.2172   25.2355 C   0  0  0  0  0  0  0  0  0  0  0  0
   -4.6488    1.1624   26.6362 O   0  0  0  0  0  0  0  0  0  0  0  0
   -2.4553   -3.7530   22.7702 C   0  0  1  0  0  0  0  0  0  0  0  0
   -2.1900   -2.7172   23.7648 O   0  0  0  0  0  0  0  0  0  0  0  0
    1.8523    6.5638   27.9625 C   0  0  0  0  0  0  0  0  0  0  0  0
    0.6336    6.7570   28.6603 O   0  0  0  0  0  0  0  0  0  0  0  0
   -2.1176    1.2426   30.2622 C   0  0  1  0  0  0  0  0  0  0  0  0
   -3.0092    0.2027   29.8632 O   0  0  0  0  0  0  0  0  0  0  0  0
   -3.0467   -4.9971   23.4813 C   0  0  0  0  0  0  0  0  0  0  0  0
   -2.1260   -6.1482   23.4608 N   0  0  0  0  0  0  0  0  0  0  0  0
  1  2  1  1  0  0  0
  1  7  1  0  0  0  0
  1 30  1  0  0  0  0
  3  4  1  1  0  0  0
  3  9  1  0  0  0  0
  3 39  1  0  0  0  0
  5 10  1  0  0  0  0
  5 26  1  0  0  0  0
  5 32  1  1  0  0  0
  6 12  1  0  0  0  0
  6 36  1  0  0  0  0
  6 19  1  1  0  0  0
  7  8  1  1  0  0  0
  7 14  1  0  0  0  0
  9 16  1  0  0  0  0
 10 11  1  6  0  0  0
 10 18  1  0  0  0  0
 12 13  1  1  0  0  0
 12 20  1  0  0  0  0
 14 15  1  6  0  0  0
 14 22  1  0  0  0  0
 16 17  1  1  0  0  0
 16 24  1  0  0  0  0
 18 19  1  6  0  0  0
 18 25  1  0  0  0  0
 20 21  1  6  0  0  0
 20 27  1  0  0  0  0
 22 23  1  1  0  0  0
 22 29  1  0  0  0  0
 24  2  1  6  0  0  0
 24 31  1  0  0  0  0
 25 26  1  0  0  0  0
 25 33  1  1  0  0  0
 27 28  1  1  0  0  0
 27 35  1  0  0  0  0
 29 30  1  0  0  0  0
 29 37  1  6  0  0  0
 31 32  1  6  0  0  0
 31 39  1  0  0  0  0
 33 34  1  0  0  0  0
 35 36  1  0  0  0  0
 35 41  1  1  0  0  0
 37 38  1  0  0  0  0
 39 40  1  6  0  0  0
 41 42  1  0  0  0  0
M  END
>  <CHROM.1>
-172.32197881,-160.78974202,-167.91974255,-163.92894799,68.87177499,154.27351705
61.72830918,172.46014762,146.62620803,70.15185919,62.16555189,60.52624428
66.24055879,177.36478174,171.23079168,105.05371855,63.07521593,-65.39972097
126.18023901,58.62810683,-64.29844207,-171.84580491,-0.77638345,0.91554564
26.49711971,-0.95288199,-0.69459317,-1.94315602

>  <Name>
1fyp_lig

>  <RI>
0

>  <Rbt.Current_Directory>
/home/itssahil/PROJECTS/Mol_Feturizer/New_Systems/rnas/1fyp

>  <Rbt.Executable>
rbdock ($Id: //depot/dev/client3/rdock/2013.1/src/exe/rbdock.cxx#4 $)

>  <Rbt.Library>
libRbt.so (2013.1, Build901 2013/11/27)

>  <Rbt.Parameter_File>
/export/apps/rDock/src/rDock_2013.1_src/data/scripts/dock_solv.prm

>  <Rbt.Receptor>
prm/blind_docking_80.prm

>  <SCORE>
-49.0415

>  <SCORE.INTER>
-42.7635

>  <SCORE.INTER.CONST>
1

>  <SCORE.INTER.POLAR>
-5.37938

>  <SCORE.INTER.ROT>
14

>  <SCORE.INTER.SOLV>
15.6479

>  <SCORE.INTER.VDW>
-28.7271

>  <SCORE.INTER.norm>
-1.01818

>  <SCORE.INTRA>
-6.35545

>  <SCORE.INTRA.DIHEDRAL>
-27.3396

>  <SCORE.INTRA.DIHEDRAL.0>
48.7173

>  <SCORE.INTRA.POLAR>
1.13783

>  <SCORE.INTRA.POLAR.0>
-1.54691

>  <SCORE.INTRA.REPUL>
0.000800753

>  <SCORE.INTRA.REPUL.0>
0

>  <SCORE.INTRA.SOLV>
-1.06685

>  <SCORE.INTRA.SOLV.lig_0>
-64.052

>  <SCORE.INTRA.VDW>
3.97517

>  <SCORE.INTRA.VDW.0>
-7.0667

>  <SCORE.INTRA.norm>
-0.15132

>  <SCORE.RESTR>
0.0774921

>  <SCORE.RESTR.CAVITY>
0.0774921

>  <SCORE.RESTR.norm>
0.00184505

>  <SCORE.SYSTEM>
0

>  <SCORE.SYSTEM.CONST>
0

>  <SCORE.SYSTEM.DIHEDRAL>
0

>  <SCORE.SYSTEM.SOLV>
0

>  <SCORE.SYSTEM.norm>
0

>  <SCORE.heavy>
42

>  <SCORE.norm>
-1.16765

>  <RMSD>
7.604

$$$$
1fyp_lig
 OpenBabel11021811393D
libRbt.so/2013.1/901 2013/11/27
 42 45  0  0  0  0  0  0  0  0999 V2000
    1.1157    2.6281   27.4725 C   0  0  2  0  0  0  0  0  0  0  0  0
    1.2130    2.1748   28.8536 O   0  0  0  0  0  0  0  0  0  0  0  0
   -1.5732    1.0661   31.8948 C   0  0  2  0  0  0  0  0  0  0  0  0
   -2.6089    1.0196   32.9434 N   0  0  0  0  0  0  0  0  0  0  0  0
   -1.6369    1.1835   26.9668 C   0  0  1  0  0  0  0  0  0  0  0  0
   -2.0651   -1.8535   23.8803 C   0  0  1  0  0  0  0  0  0  0  0  0
    2.3689    2.2037   26.6411 C   0  0  2  0  0  0  0  0  0  0  0  0
    2.6508    0.7606   26.7947 N   0  0  0  0  0  0  0  0  0  0  0  0
   -0.5078    2.1147   32.2722 C   0  0  0  0  0  0  0  0  0  0  0  0
   -1.6570   -0.3014   27.3387 C   0  0  2  0  0  0  0  0  0  0  0  0
   -0.3179   -0.7904   27.4226 O   0  0  0  0  0  0  0  0  0  0  0  0
   -2.0032   -0.9842   22.5874 C   0  0  2  0  0  0  0  0  0  0  0  0
   -2.4889    0.4003   22.8057 N   0  0  0  0  0  0  0  0  0  0  0  0
    3.6181    3.0459   27.0490 C   0  0  1  0  0  0  0  0  0  0  0  0
    4.7093    2.7608   26.1773 O   0  0  0  0  0  0  0  0  0  0  0  0
    0.6328    2.1983   31.2213 C   0  0  2  0  0  0  0  0  0  0  0  0
    1.5494    3.2809   31.6351 N   0  0  0  0  0  0  0  0  0  0  0  0
   -2.3988   -0.9132   26.1471 C   0  0  2  0  0  0  0  0  0  0  0  0
   -1.5092   -1.1470   25.0199 O   0  0  0  0  0  0  0  0  0  0  0  0
   -2.7672   -1.6753   21.4162 C   0  0  1  0  0  0  0  0  0  0  0  0
   -1.9903   -2.7795   20.9570 O   0  0  0  0  0  0  0  0  0  0  0  0
    3.3298    4.5672   26.9962 C   0  0  2  0  0  0  0  0  0  0  0  0
    4.4734    5.2739   27.4669 O   0  0  0  0  0  0  0  0  0  0  0  0
    0.1007    2.4238   29.7604 C   0  0  2  0  0  0  0  0  0  0  0  0
   -3.4221    0.1800   25.8094 C   0  0  2  0  0  0  0  0  0  0  0  0
   -2.7922    1.4304   26.1494 O   0  0  0  0  0  0  0  0  0  0  0  0
   -4.1826   -2.2018   21.8026 C   0  0  2  0  0  0  0  0  0  0  0  0
   -5.0604   -1.0837   21.9431 O   0  0  0  0  0  0  0  0  0  0  0  0
    2.0813    4.9107   27.8573 C   0  0  2  0  0  0  0  0  0  0  0  0
    0.9586    4.0861   27.4220 O   0  0  0  0  0  0  0  0  0  0  0  0
   -1.0944    1.4724   29.3910 C   0  0  2  0  0  0  0  0  0  0  0  0
   -1.7186    1.9798   28.1830 O   0  0  0  0  0  0  0  0  0  0  0  0
   -4.7449    0.0269   26.5810 C   0  0  0  0  0  0  0  0  0  0  0  0
   -5.6430    1.0737   26.2564 O   0  0  0  0  0  0  0  0  0  0  0  0
   -4.1271   -3.0140   23.1336 C   0  0  1  0  0  0  0  0  0  0  0  0
   -3.4573   -2.2237   24.1629 O   0  0  0  0  0  0  0  0  0  0  0  0
    1.6131    6.3801   27.7639 C   0  0  0  0  0  0  0  0  0  0  0  0
    1.2370    6.7175   26.4394 O   0  0  0  0  0  0  0  0  0  0  0  0
   -2.1796    1.3959   30.5095 C   0  0  1  0  0  0  0  0  0  0  0  0
   -3.1274    0.3878   30.1616 O   0  0  0  0  0  0  0  0  0  0  0  0
   -5.5328   -3.4220   23.6443 C   0  0  0  0  0  0  0  0  0  0  0  0
   -6.1117   -2.4219   24.5595 N   0  0  0  0  0  0  0  0  0  0  0  0
  1  2  1  1  0  0  0
  1  7  1  0  0  0  0
  1 30  1  0  0  0  0
  3  4  1  1  0  0  0
  3  9  1  0  0  0  0
  3 39  1  0  0  0  0
  5 10  1  0  0  0  0
  5 26  1  0  0  0  0
  5 32  1  1  0  0  0
  6 12  1  0  0  0  0
  6 36  1  0  0  0  0
  6 19  1  1  0  0  0
  7  8  1  1  0  0  0
  7 14  1  0  0  0  0
  9 16  1  0  0  0  0
 10 11  1  6  0  0  0
 10 18  1  0  0  0  0
 12 13  1  1  0  0  0
 12 20  1  0  0  0  0
 14 15  1  6  0  0  0
 14 22  1  0  0  0  0
 16 17  1  1  0  0  0
 16 24  1  0  0  0  0
 18 19  1  6  0  0  0
 18 25  1  0  0  0  0
 20 21  1  1  0  0  0
 20 27  1  0  0  0  0
 22 23  1  1  0  0  0
 22 29  1  0  0  0  0
 24  2  1  6  0  0  0
 24 31  1  0  0  0  0
 25 26  1  0  0  0  0
 25 33  1  1  0  0  0
 27 28  1  1  0  0  0
 27 35  1  0  0  0  0
 29 30  1  0  0  0  0
 29 37  1  6  0  0  0
 31 32  1  6  0  0  0
 31 39  1  0  0  0  0
 33 34  1  0  0  0  0
 35 36  1  0  0  0  0
 35 41  1  1  0  0  0
 37 38  1  0  0  0  0
 39 40  1  6  0  0  0
 41 42  1  0  0  0  0
M  END
>  <CHROM.1>
-176.97761569,-164.65572366,-58.35881923,178.85203227,79.80847320,-50.67423899
63.64689225,178.42129703,173.71326336,119.76222965,-65.16819109,178.59411276
178.74788201,171.44181037,61.43698210,113.72352218,33.36010696,-177.88303422
-91.01983046,154.36693537,56.10585025,65.03859175,-1.07581080,1.03171331
26.73454293,-0.78499796,-0.59032264,-1.83135893

>  <Name>
1fyp_lig

>  <RI>
0

>  <Rbt.Current_Directory>
/home/itssahil/PROJECTS/Mol_Feturizer/New_Systems/rnas/1fyp

>  <Rbt.Executable>
rbdock ($Id: //depot/dev/client3/rdock/2013.1/src/exe/rbdock.cxx#4 $)

>  <Rbt.Library>
libRbt.so (2013.1, Build901 2013/11/27)

>  <Rbt.Parameter_File>
/export/apps/rDock/src/rDock_2013.1_src/data/scripts/dock_solv.prm

>  <Rbt.Receptor>
prm/blind_docking_40.prm

>  <SCORE>
-40.9293

>  <SCORE.INTER>
-38.4093

>  <SCORE.INTER.CONST>
1

>  <SCORE.INTER.POLAR>
-4.47043

>  <SCORE.INTER.ROT>
14

>  <SCORE.INTER.SOLV>
13.9449

>  <SCORE.INTER.VDW>
-28.2864

>  <SCORE.INTER.norm>
-0.914506

>  <SCORE.INTRA>
-3.39834

>  <SCORE.INTRA.DIHEDRAL>
-21.4844

>  <SCORE.INTRA.DIHEDRAL.0>
48.7173

>  <SCORE.INTRA.POLAR>
1.4797

>  <SCORE.INTRA.POLAR.0>
-1.54691

>  <SCORE.INTRA.REPUL>
0

>  <SCORE.INTRA.REPUL.0>
0

>  <SCORE.INTRA.SOLV>
0.476514

>  <SCORE.INTRA.SOLV.lig_0>
-64.052

>  <SCORE.INTRA.VDW>
2.07461

>  <SCORE.INTRA.VDW.0>
-7.0667

>  <SCORE.INTRA.norm>
-0.0809128

>  <SCORE.RESTR>
0.878274

>  <SCORE.RESTR.CAVITY>
0.878274

>  <SCORE.RESTR.norm>
0.0209113

>  <SCORE.SYSTEM>
0

>  <SCORE.SYSTEM.CONST>
0

>  <SCORE.SYSTEM.DIHEDRAL>
0

>  <SCORE.SYSTEM.SOLV>
0

>  <SCORE.SYSTEM.norm>
0

>  <SCORE.heavy>
42

>  <SCORE.norm>
-0.974508

>  <RMSD>
7.633

$$$$
1fyp_lig
 OpenBabel11021811393D
libRbt.so/2013.1/901 2013/11/27
 42 45  0  0  0  0  0  0  0  0999 V2000
    8.1873    5.9355   31.9283 C   0  0  2  0  0  0  0  0  0  0  0  0
    7.4871    6.3735   30.7282 O   0  0  0  0  0  0  0  0  0  0  0  0
    9.3308    8.1881   27.3298 C   0  0  2  0  0  0  0  0  0  0  0  0
   10.0705    8.4927   26.0911 N   0  0  0  0  0  0  0  0  0  0  0  0
    5.3430    6.3620   26.8955 C   0  0  1  0  0  0  0  0  0  0  0  0
    3.6667    7.5173   24.4273 C   0  0  1  0  0  0  0  0  0  0  0  0
    7.9559    4.4146   32.2031 C   0  0  2  0  0  0  0  0  0  0  0  0
    8.2356    3.6035   30.9991 N   0  0  0  0  0  0  0  0  0  0  0  0
   10.2555    7.4358   28.3076 C   0  0  0  0  0  0  0  0  0  0  0  0
    4.4687    5.1408   26.5988 C   0  0  2  0  0  0  0  0  0  0  0  0
    5.0637    4.3706   25.5537 O   0  0  0  0  0  0  0  0  0  0  0  0
    2.8036    8.1635   23.3009 C   0  0  2  0  0  0  0  0  0  0  0  0
    2.6059    7.2587   22.1422 N   0  0  0  0  0  0  0  0  0  0  0  0
    6.5009    4.1552   32.7047 C   0  0  1  0  0  0  0  0  0  0  0  0
    6.3529    2.7942   33.1013 O   0  0  0  0  0  0  0  0  0  0  0  0
    9.5473    7.1055   29.6499 C   0  0  2  0  0  0  0  0  0  0  0  0
   10.4882    6.3198   30.4753 N   0  0  0  0  0  0  0  0  0  0  0  0
    3.1643    5.7945   26.1342 C   0  0  2  0  0  0  0  0  0  0  0  0
    3.2192    6.1701   24.7297 O   0  0  0  0  0  0  0  0  0  0  0  0
    3.4053    9.5320   22.8559 C   0  0  1  0  0  0  0  0  0  0  0  0
    3.1555   10.4919   23.8804 O   0  0  0  0  0  0  0  0  0  0  0  0
    6.1359    5.0613   33.9073 C   0  0  2  0  0  0  0  0  0  0  0  0
    4.7721    4.8439   34.2562 O   0  0  0  0  0  0  0  0  0  0  0  0
    8.1864    6.3461   29.4509 C   0  0  2  0  0  0  0  0  0  0  0  0
    3.0951    7.0431   27.0245 C   0  0  2  0  0  0  0  0  0  0  0  0
    4.4609    7.4341   27.2646 O   0  0  0  0  0  0  0  0  0  0  0  0
    4.9402    9.4948   22.5861 C   0  0  2  0  0  0  0  0  0  0  0  0
    5.1689    8.8003   21.3589 O   0  0  0  0  0  0  0  0  0  0  0  0
    6.3784    6.5555   33.5512 C   0  0  2  0  0  0  0  0  0  0  0  0
    7.7530    6.7201   33.0897 O   0  0  0  0  0  0  0  0  0  0  0  0
    7.2780    6.9983   28.3465 C   0  0  2  0  0  0  0  0  0  0  0  0
    6.2300    6.0530   28.0080 O   0  0  0  0  0  0  0  0  0  0  0  0
    2.3741    6.7917   28.3607 C   0  0  0  0  0  0  0  0  0  0  0  0
    1.0426    6.3588   28.1425 O   0  0  0  0  0  0  0  0  0  0  0  0
    5.6910    8.7849   23.7551 C   0  0  1  0  0  0  0  0  0  0  0  0
    5.0758    7.4866   24.0164 O   0  0  0  0  0  0  0  0  0  0  0  0
    6.1848    7.5417   34.7247 C   0  0  0  0  0  0  0  0  0  0  0  0
    6.5267    8.8646   34.3472 O   0  0  0  0  0  0  0  0  0  0  0  0
    8.0613    7.3502   27.0438 C   0  0  1  0  0  0  0  0  0  0  0  0
    7.2010    8.0857   26.1752 O   0  0  0  0  0  0  0  0  0  0  0  0
    7.1990    8.5797   23.4601 C   0  0  0  0  0  0  0  0  0  0  0  0
    7.6767    9.4274   22.3528 N   0  0  0  0  0  0  0  0  0  0  0  0
  1  2  1  6  0  0  0
  1  7  1  0  0  0  0
  1 30  1  0  0  0  0
  3  4  1  6  0  0  0
  3  9  1  0  0  0  0
  3 39  1  0  0  0  0
  5 10  1  0  0  0  0
  5 26  1  0  0  0  0
  5 32  1  1  0  0  0
  6 12  1  0  0  0  0
  6 36  1  0  0  0  0
  6 19  1  6  0  0  0
  7  8  1  6  0  0  0
  7 14  1  0  0  0  0
  9 16  1  0  0  0  0
 10 11  1  6  0  0  0
 10 18  1  0  0  0  0
 12 13  1  6  0  0  0
 12 20  1  0  0  0  0
 14 15  1  1  0  0  0
 14 22  1  0  0  0  0
 16 17  1  1  0  0  0
 16 24  1  0  0  0  0
 18 19  1  6  0  0  0
 18 25  1  0  0  0  0
 20 21  1  1  0  0  0
 20 27  1  0  0  0  0
 22 23  1  6  0  0  0
 22 29  1  0  0  0  0
 24  2  1  1  0  0  0
 24 31  1  0  0  0  0
 25 26  1  0  0  0  0
 25 33  1  1  0  0  0
 27 28  1  6  0  0  0
 27 35  1  0  0  0  0
 29 30  1  0  0  0  0
 29 37  1  1  0  0  0
 31 32  1  6  0  0  0
 31 39  1  0  0  0  0
 33 34  1  0  0  0  0
 35 36  1  0  0  0  0
 35 41  1  6  0  0  0
 37 38  1  0  0  0  0
 39 40  1  6  0  0  0
 41 42  1  0  0  0  0
M  END
>  <CHROM.1>
-92.04507717,-51.55215131,-60.82221449,72.21999159,-179.52344750,144.04975953
-172.89792095,-55.08095128,-92.00375835,-138.14634481,-174.72549039,68.37646764
-59.59089185,68.57745132,175.32073665,-173.12891216,171.61459800,-60.56711630
16.86742141,-53.39918451,-60.52077117,166.47322868,6.00170535,6.90884889
27.87893884,-1.29760081,-0.20159828,-1.24183976

>  <Name>
1fyp_lig

>  <RI>
0

>  <Rbt.Current_Directory>
/home/itssahil/PROJECTS/Mol_Feturizer/New_Systems/rnas/1fyp

>  <Rbt.Executable>
rbdock ($Id: //depot/dev/client3/rdock/2013.1/src/exe/rbdock.cxx#4 $)

>  <Rbt.Library>
libRbt.so (2013.1, Build901 2013/11/27)

>  <Rbt.Parameter_File>
/export/apps/rDock/src/rDock_2013.1_src/data/scripts/dock_solv.prm

>  <Rbt.Receptor>
prm/pocket_docking_7.prm

>  <SCORE>
-45.3967

>  <SCORE.INTER>
-43.6845

>  <SCORE.INTER.CONST>
1

>  <SCORE.INTER.POLAR>
-5.6847

>  <SCORE.INTER.ROT>
14

>  <SCORE.INTER.SOLV>
17.2576

>  <SCORE.INTER.VDW>
-28.8598

>  <SCORE.INTER.norm>
-1.04011

>  <SCORE.INTRA>
-1.71219

>  <SCORE.INTRA.DIHEDRAL>
-25.9168

>  <SCORE.INTRA.DIHEDRAL.0>
48.7173

>  <SCORE.INTRA.POLAR>
1.28288

>  <SCORE.INTRA.POLAR.0>
-1.54691

>  <SCORE.INTRA.REPUL>
0.0803874

>  <SCORE.INTRA.REPUL.0>
0

>  <SCORE.INTRA.SOLV>
-0.570837

>  <SCORE.INTRA.SOLV.lig_0>
-64.052

>  <SCORE.INTRA.VDW>
6.76791

>  <SCORE.INTRA.VDW.0>
-7.0667

>  <SCORE.INTRA.norm>
-0.0407665

>  <SCORE.RESTR>
0

>  <SCORE.RESTR.CAVITY>
0

>  <SCORE.RESTR.norm>
0

>  <SCORE.SYSTEM>
0

>  <SCORE.SYSTEM.CONST>
0

>  <SCORE.SYSTEM.DIHEDRAL>
0

>  <SCORE.SYSTEM.SOLV>
0

>  <SCORE.SYSTEM.norm>
0

>  <SCORE.heavy>
42

>  <SCORE.norm>
-1.08087

>  <RMSD>
7.765

$$$$
1fyp_lig
 OpenBabel11021811393D
libRbt.so/2013.1/901 2013/11/27
 42 45  0  0  0  0  0  0  0  0999 V2000
    1.0605    2.7974   27.0085 C   0  0  2  0  0  0  0  0  0  0  0  0
    0.9598    1.9858   28.2141 O   0  0  0  0  0  0  0  0  0  0  0  0
   -1.8972    0.5316   31.0362 C   0  0  2  0  0  0  0  0  0  0  0  0
   -2.9898    0.3570   32.0110 N   0  0  0  0  0  0  0  0  0  0  0  0
   -2.6981    0.6064   26.5552 C   0  0  1  0  0  0  0  0  0  0  0  0
   -4.3539   -1.9471   23.4371 C   0  0  1  0  0  0  0  0  0  0  0  0
    2.1804    2.2694   26.0550 C   0  0  2  0  0  0  0  0  0  0  0  0
    2.0345    0.8192   25.8078 N   0  0  0  0  0  0  0  0  0  0  0  0
   -0.9674    1.6681   31.5061 C   0  0  0  0  0  0  0  0  0  0  0  0
   -2.6789    1.0512   25.0905 C   0  0  2  0  0  0  0  0  0  0  0  0
   -3.8252    1.8596   24.8222 O   0  0  0  0  0  0  0  0  0  0  0  0
   -5.8670   -2.1316   23.1092 C   0  0  2  0  0  0  0  0  0  0  0  0
   -6.7331   -1.9815   24.3041 N   0  0  0  0  0  0  0  0  0  0  0  0
    3.5960    2.5803   26.6340 C   0  0  1  0  0  0  0  0  0  0  0  0
    4.6019    2.2376   25.6841 O   0  0  0  0  0  0  0  0  0  0  0  0
    0.2259    1.8898   30.5369 C   0  0  2  0  0  0  0  0  0  0  0  0
    1.0023    3.0449   31.0337 N   0  0  0  0  0  0  0  0  0  0  0  0
   -2.7592   -0.2891   24.3546 C   0  0  2  0  0  0  0  0  0  0  0  0
   -4.1292   -0.7677   24.2527 O   0  0  0  0  0  0  0  0  0  0  0  0
   -6.1183   -3.4949   22.3940 C   0  0  1  0  0  0  0  0  0  0  0  0
   -5.6297   -3.4026   21.0575 O   0  0  0  0  0  0  0  0  0  0  0  0
    3.7531    4.0777   26.9994 C   0  0  2  0  0  0  0  0  0  0  0  0
    5.0263    4.2773   27.6060 O   0  0  0  0  0  0  0  0  0  0  0  0
   -0.2287    2.1016   29.0481 C   0  0  2  0  0  0  0  0  0  0  0  0
   -1.9333   -1.2069   25.2667 C   0  0  2  0  0  0  0  0  0  0  0  0
   -2.1226   -0.7089   26.6054 O   0  0  0  0  0  0  0  0  0  0  0  0
   -5.4286   -4.7114   23.0826 C   0  0  2  0  0  0  0  0  0  0  0  0
   -6.1383   -5.0155   24.2845 O   0  0  0  0  0  0  0  0  0  0  0  0
    2.6135    4.5219   27.9597 C   0  0  2  0  0  0  0  0  0  0  0  0
    1.3253    4.1984   27.3551 O   0  0  0  0  0  0  0  0  0  0  0  0
   -1.2975    1.0489   28.5794 C   0  0  2  0  0  0  0  0  0  0  0  0
   -1.8881    1.5254   27.3422 O   0  0  0  0  0  0  0  0  0  0  0  0
   -0.4354   -1.2187   24.9135 C   0  0  0  0  0  0  0  0  0  0  0  0
   -0.2172   -1.8396   23.6587 O   0  0  0  0  0  0  0  0  0  0  0  0
   -3.9356   -4.3926   23.4045 C   0  0  1  0  0  0  0  0  0  0  0  0
   -3.8504   -3.1337   24.1397 O   0  0  0  0  0  0  0  0  0  0  0  0
    2.5856    6.0336   28.2777 C   0  0  0  0  0  0  0  0  0  0  0  0
    3.7502    6.6827   27.7962 O   0  0  0  0  0  0  0  0  0  0  0  0
   -2.4409    0.8378   29.6198 C   0  0  1  0  0  0  0  0  0  0  0  0
   -3.2599   -0.2479   29.1882 O   0  0  0  0  0  0  0  0  0  0  0  0
   -3.2508   -5.5095   24.2332 C   0  0  0  0  0  0  0  0  0  0  0  0
   -2.1337   -6.1432   23.5096 N   0  0  0  0  0  0  0  0  0  0  0  0
  1  2  1  1  0  0  0
  1  7  1  0  0  0  0
  1 30  1  0  0  0  0
  3  4  1  1  0  0  0
  3  9  1  0  0  0  0
  3 39  1  0  0  0  0
  5 10  1  0  0  0  0
  5 26  1  0  0  0  0
  5 32  1  1  0  0  0
  6 12  1  0  0  0  0
  6 36  1  0  0  0  0
  6 19  1  1  0  0  0
  7  8  1  1  0  0  0
  7 14  1  0  0  0  0
  9 16  1  0  0  0  0
 10 11  1  1  0  0  0
 10 18  1  0  0  0  0
 12 13  1  1  0  0  0
 12 20  1  0  0  0  0
 14 15  1  6  0  0  0
 14 22  1  0  0  0  0
 16 17  1  1  0  0  0
 16 24  1  0  0  0  0
 18 19  1  1  0  0  0
 18 25  1  0  0  0  0
 20 21  1  6  0  0  0
 20 27  1  0  0  0  0
 22 23  1  1  0  0  0
 22 29  1  0  0  0  0
 24  2  1  6  0  0  0
 24 31  1  0  0  0  0
 25 26  1  0  0  0  0
 25 33  1  6  0  0  0
 27 28  1  1  0  0  0
 27 35  1  0  0  0  0
 29 30  1  0  0  0  0
 29 37  1  6  0  0  0
 31 32  1  6  0  0  0
 31 39  1  0  0  0  0
 33 34  1  0  0  0  0
 35 36  1  0  0  0  0
 35 41  1  1  0  0  0
 37 38  1  0  0  0  0
 39 40  1  6  0  0  0
 41 42  1  0  0  0  0
M  END
>  <CHROM.1>
-164.32193149,-146.42473863,83.91229948,36.53271448,-174.14931211,-41.82526609
-179.25890516,-65.12895567,172.80597675,-165.13766585,59.54089924,-62.39193176
-68.07335743,179.69224994,-9.69158743,167.17152787,-154.60844825,-158.60342819
117.11880557,-166.47339385,63.97721223,-138.65856881,-1.28011567,0.25615519
26.36311126,-0.72616783,-0.55888665,-2.01817756

>  <Name>
1fyp_lig

>  <RI>
0

>  <Rbt.Current_Directory>
/home/itssahil/PROJECTS/Mol_Feturizer/New_Systems/rnas/1fyp

>  <Rbt.Executable>
rbdock ($Id: //depot/dev/client3/rdock/2013.1/src/exe/rbdock.cxx#4 $)

>  <Rbt.Library>
libRbt.so (2013.1, Build901 2013/11/27)

>  <Rbt.Parameter_File>
/export/apps/rDock/src/rDock_2013.1_src/data/scripts/dock_solv.prm

>  <Rbt.Receptor>
prm/pocket_docking_6.prm

>  <SCORE>
-43.5336

>  <SCORE.INTER>
-42.5102

>  <SCORE.INTER.CONST>
1

>  <SCORE.INTER.POLAR>
-6.34754

>  <SCORE.INTER.ROT>
14

>  <SCORE.INTER.SOLV>
14.4177

>  <SCORE.INTER.VDW>
-24.9209

>  <SCORE.INTER.norm>
-1.01215

>  <SCORE.INTRA>
-2.27157

>  <SCORE.INTRA.DIHEDRAL>
-20.2252

>  <SCORE.INTRA.DIHEDRAL.0>
48.7173

>  <SCORE.INTRA.POLAR>
1.54538

>  <SCORE.INTRA.POLAR.0>
-1.54691

>  <SCORE.INTRA.REPUL>
0.106446

>  <SCORE.INTRA.REPUL.0>
0

>  <SCORE.INTRA.SOLV>
-2.4639

>  <SCORE.INTRA.SOLV.lig_0>
-64.052

>  <SCORE.INTRA.VDW>
3.28645

>  <SCORE.INTRA.VDW.0>
-7.0667

>  <SCORE.INTRA.norm>
-0.054085

>  <SCORE.RESTR>
1.24823

>  <SCORE.RESTR.CAVITY>
1.24823

>  <SCORE.RESTR.norm>
0.0297198

>  <SCORE.SYSTEM>
0

>  <SCORE.SYSTEM.CONST>
0

>  <SCORE.SYSTEM.DIHEDRAL>
0

>  <SCORE.SYSTEM.SOLV>
0

>  <SCORE.SYSTEM.norm>
0

>  <SCORE.heavy>
42

>  <SCORE.norm>
-1.03651

>  <RMSD>
7.817

$$$$
1fyp_lig
 OpenBabel11021811393D
libRbt.so/2013.1/901 2013/11/27
 42 45  0  0  0  0  0  0  0  0999 V2000
    2.1880    5.7987   26.4369 C   0  0  2  0  0  0  0  0  0  0  0  0
    3.5084    6.0444   25.8725 O   0  0  0  0  0  0  0  0  0  0  0  0
    4.9744    7.9500   22.3426 C   0  0  2  0  0  0  0  0  0  0  0  0
    5.2832    8.8686   21.2312 N   0  0  0  0  0  0  0  0  0  0  0  0
    5.8452    7.3333   27.2907 C   0  0  1  0  0  0  0  0  0  0  0  0
    7.3474    5.0055   30.5497 C   0  0  1  0  0  0  0  0  0  0  0  0
    2.1199    6.2221   27.9396 C   0  0  2  0  0  0  0  0  0  0  0  0
    2.6228    7.5990   28.1321 N   0  0  0  0  0  0  0  0  0  0  0  0
    3.4460    7.7909   22.4670 C   0  0  0  0  0  0  0  0  0  0  0  0
    6.8284    6.2056   26.9662 C   0  0  2  0  0  0  0  0  0  0  0  0
    6.1031    5.0285   26.6083 O   0  0  0  0  0  0  0  0  0  0  0  0
    6.7711    3.7289   31.2347 C   0  0  2  0  0  0  0  0  0  0  0  0
    5.2962    3.6303   31.1110 N   0  0  0  0  0  0  0  0  0  0  0  0
    2.9182    5.2239   28.8353 C   0  0  1  0  0  0  0  0  0  0  0  0
    2.7165    5.5299   30.2128 O   0  0  0  0  0  0  0  0  0  0  0  0
    3.0476    6.8117   23.6049 C   0  0  2  0  0  0  0  0  0  0  0  0
    1.5725    6.7949   23.6902 N   0  0  0  0  0  0  0  0  0  0  0  0
    7.5533    6.0271   28.3030 C   0  0  2  0  0  0  0  0  0  0  0  0
    6.7983    5.1852   29.2182 O   0  0  0  0  0  0  0  0  0  0  0  0
    7.2220    3.6467   32.7257 C   0  0  1  0  0  0  0  0  0  0  0  0
    8.6029    3.2925   32.7629 O   0  0  0  0  0  0  0  0  0  0  0  0
    2.4869    3.7565   28.5884 C   0  0  2  0  0  0  0  0  0  0  0  0
    3.3128    2.8924   29.3631 O   0  0  0  0  0  0  0  0  0  0  0  0
    3.6981    7.1841   24.9856 C   0  0  2  0  0  0  0  0  0  0  0  0
    7.6214    7.4683   28.8270 C   0  0  2  0  0  0  0  0  0  0  0  0
    6.4394    8.1261   28.3310 O   0  0  0  0  0  0  0  0  0  0  0  0
    7.0376    4.9749   33.5205 C   0  0  2  0  0  0  0  0  0  0  0  0
    5.6443    5.1631   33.7734 O   0  0  0  0  0  0  0  0  0  0  0  0
    2.5963    3.4083   27.0768 C   0  0  2  0  0  0  0  0  0  0  0  0
    1.8304    4.3817   26.3051 O   0  0  0  0  0  0  0  0  0  0  0  0
    5.2325    7.5049   24.8721 C   0  0  2  0  0  0  0  0  0  0  0  0
    5.6507    8.1516   26.1023 O   0  0  0  0  0  0  0  0  0  0  0  0
    8.8806    8.2206   28.3609 C   0  0  0  0  0  0  0  0  0  0  0  0
    9.0157    8.1546   26.9519 O   0  0  0  0  0  0  0  0  0  0  0  0
    7.6077    6.1849   32.7172 C   0  0  1  0  0  0  0  0  0  0  0  0
    7.0470    6.1863   31.3688 O   0  0  0  0  0  0  0  0  0  0  0  0
    2.0545    2.0136   26.6915 C   0  0  0  0  0  0  0  0  0  0  0  0
    2.6968    0.9892   27.4315 O   0  0  0  0  0  0  0  0  0  0  0  0
    5.5695    8.4533   23.6798 C   0  0  1  0  0  0  0  0  0  0  0  0
    6.9876    8.5478   23.5548 O   0  0  0  0  0  0  0  0  0  0  0  0
    7.3045    7.5471   33.3923 C   0  0  0  0  0  0  0  0  0  0  0  0
    7.6695    8.6922   32.5388 N   0  0  0  0  0  0  0  0  0  0  0  0
  1  2  1  1  0  0  0
  1  7  1  0  0  0  0
  1 30  1  0  0  0  0
  3  4  1  6  0  0  0
  3  9  1  0  0  0  0
  3 39  1  0  0  0  0
  5 10  1  0  0  0  0
  5 26  1  0  0  0  0
  5 32  1  6  0  0  0
  6 12  1  0  0  0  0
  6 36  1  0  0  0  0
  6 19  1  6  0  0  0
  7  8  1  6  0  0  0
  7 14  1  0  0  0  0
  9 16  1  0  0  0  0
 10 11  1  1  0  0  0
 10 18  1  0  0  0  0
 12 13  1  1  0  0  0
 12 20  1  0  0  0  0
 14 15  1  1  0  0  0
 14 22  1  0  0  0  0
 16 17  1  1  0  0  0
 16 24  1  0  0  0  0
 18 19  1  1  0  0  0
 18 25  1  0  0  0  0
 20 21  1  6  0  0  0
 20 27  1  0  0  0  0
 22 23  1  1  0  0  0
 22 29  1  0  0  0  0
 24  2  1  1  0  0  0
 24 31  1  0  0  0  0
 25 26  1  0  0  0  0
 25 33  1  6  0  0  0
 27 28  1  6  0  0  0
 27 35  1  0  0  0  0
 29 30  1  0  0  0  0
 29 37  1  1  0  0  0
 31 32  1  1  0  0  0
 31 39  1  0  0  0  0
 33 34  1  0  0  0  0
 35 36  1  0  0  0  0
 35 41  1  1  0  0  0
 37 38  1  0  0  0  0
 39 40  1  6  0  0  0
 41 42  1  0  0  0  0
M  END
>  <CHROM.1>
-104.32600424,-74.82551253,-149.15890813,44.61535102,46.40108761,159.81103453
-50.82587803,161.07082585,-176.50654811,-159.35176583,64.09925983,-44.05610878
52.89377456,172.74599101,-56.54104898,76.65088847,54.64999049,-66.12104792
-171.67700892,-76.82666899,63.78320207,-25.05118453,5.22484703,5.98493626
28.01926455,1.98380908,-0.64607592,-1.07811911

>  <Name>
1fyp_lig

>  <RI>
0

>  <Rbt.Current_Directory>
/home/itssahil/PROJECTS/Mol_Feturizer/New_Systems/rnas/1fyp

>  <Rbt.Executable>
rbdock ($Id: //depot/dev/client3/rdock/2013.1/src/exe/rbdock.cxx#4 $)

>  <Rbt.Library>
libRbt.so (2013.1, Build901 2013/11/27)

>  <Rbt.Parameter_File>
/export/apps/rDock/src/rDock_2013.1_src/data/scripts/dock_solv.prm

>  <Rbt.Receptor>
prm/pocket_docking_7.prm

>  <SCORE>
-42.4712

>  <SCORE.INTER>
-31.9178

>  <SCORE.INTER.CONST>
1

>  <SCORE.INTER.POLAR>
-3.90922

>  <SCORE.INTER.ROT>
14

>  <SCORE.INTER.SOLV>
14.6364

>  <SCORE.INTER.VDW>
-26.0599

>  <SCORE.INTER.norm>
-0.759948

>  <SCORE.INTRA>
-10.5534

>  <SCORE.INTRA.DIHEDRAL>
-28.2757

>  <SCORE.INTRA.DIHEDRAL.0>
48.7173

>  <SCORE.INTRA.POLAR>
-0.00338358

>  <SCORE.INTRA.POLAR.0>
-1.54691

>  <SCORE.INTRA.REPUL>
0.235547

>  <SCORE.INTRA.REPUL.0>
0

>  <SCORE.INTRA.SOLV>
1.07493

>  <SCORE.INTRA.SOLV.lig_0>
-64.052

>  <SCORE.INTRA.VDW>
1.88072

>  <SCORE.INTRA.VDW.0>
-7.0667

>  <SCORE.INTRA.norm>
-0.251272

>  <SCORE.RESTR>
0

>  <SCORE.RESTR.CAVITY>
0

>  <SCORE.RESTR.norm>
0

>  <SCORE.SYSTEM>
0

>  <SCORE.SYSTEM.CONST>
0

>  <SCORE.SYSTEM.DIHEDRAL>
0

>  <SCORE.SYSTEM.SOLV>
0

>  <SCORE.SYSTEM.norm>
0

>  <SCORE.heavy>
42

>  <SCORE.norm>
-1.01122

>  <RMSD>
7.846

$$$$
1fyp_lig
 OpenBabel11021811393D
libRbt.so/2013.1/901 2013/11/27
 42 45  0  0  0  0  0  0  0  0999 V2000
    0.7254    1.9657   28.6460 C   0  0  2  0  0  0  0  0  0  0  0  0
    0.2537    1.8721   30.0211 O   0  0  0  0  0  0  0  0  0  0  0  0
   -3.2761   -0.3361   30.9724 C   0  0  2  0  0  0  0  0  0  0  0  0
   -4.6355   -0.7853   31.3258 N   0  0  0  0  0  0  0  0  0  0  0  0
   -2.0654    0.8226   26.6918 C   0  0  1  0  0  0  0  0  0  0  0  0
   -3.0383   -0.9457   24.7075 C   0  0  1  0  0  0  0  0  0  0  0  0
    2.2614    1.6954   28.5480 C   0  0  2  0  0  0  0  0  0  0  0  0
    2.6304    0.4416   29.2392 N   0  0  0  0  0  0  0  0  0  0  0  0
   -2.7807    0.6761   32.0246 C   0  0  0  0  0  0  0  0  0  0  0  0
   -2.5489    1.7891   25.6075 C   0  0  2  0  0  0  0  0  0  0  0  0
   -3.9723    1.7250   25.5113 O   0  0  0  0  0  0  0  0  0  0  0  0
   -1.8331   -1.8688   25.0634 C   0  0  2  0  0  0  0  0  0  0  0  0
   -1.0598   -2.2854   23.8681 N   0  0  0  0  0  0  0  0  0  0  0  0
    3.0752    2.8937   29.1292 C   0  0  1  0  0  0  0  0  0  0  0  0
    4.4675    2.7048   28.8897 O   0  0  0  0  0  0  0  0  0  0  0  0
   -1.3391    1.1728   31.7291 C   0  0  2  0  0  0  0  0  0  0  0  0
   -0.9958    2.1912   32.7434 N   0  0  0  0  0  0  0  0  0  0  0  0
   -1.8805    1.2152   24.3552 C   0  0  2  0  0  0  0  0  0  0  0  0
   -2.6436    0.1109   23.7940 O   0  0  0  0  0  0  0  0  0  0  0  0
   -2.3046   -3.1031   25.8925 C   0  0  1  0  0  0  0  0  0  0  0  0
   -2.6246   -2.6675   27.2121 O   0  0  0  0  0  0  0  0  0  0  0  0
    2.6453    4.2420   28.4986 C   0  0  2  0  0  0  0  0  0  0  0  0
    3.3552    5.3003   29.1349 O   0  0  0  0  0  0  0  0  0  0  0  0
   -1.1746    1.7361   30.2718 C   0  0  2  0  0  0  0  0  0  0  0  0
   -0.5371    0.7176   24.9067 C   0  0  2  0  0  0  0  0  0  0  0  0
   -0.7935    0.3093   26.2644 O   0  0  0  0  0  0  0  0  0  0  0  0
   -3.5521   -3.8276   25.3020 C   0  0  2  0  0  0  0  0  0  0  0  0
   -3.1493   -4.5483   24.1363 O   0  0  0  0  0  0  0  0  0  0  0  0
    1.1108    4.4440   28.6492 C   0  0  2  0  0  0  0  0  0  0  0  0
    0.4189    3.2879   28.0884 O   0  0  0  0  0  0  0  0  0  0  0  0
   -1.8075    0.8000   29.1793 C   0  0  2  0  0  0  0  0  0  0  0  0
   -1.9040    1.5518   27.9416 O   0  0  0  0  0  0  0  0  0  0  0  0
    0.5629    1.7936   24.8765 C   0  0  0  0  0  0  0  0  0  0  0  0
    1.8166    1.2446   25.2433 O   0  0  0  0  0  0  0  0  0  0  0  0
   -4.6698   -2.8005   24.9410 C   0  0  1  0  0  0  0  0  0  0  0  0
   -4.1120   -1.7432   24.1022 O   0  0  0  0  0  0  0  0  0  0  0  0
    0.5467    5.6892   27.9291 C   0  0  0  0  0  0  0  0  0  0  0  0
    0.9602    6.8850   28.5681 O   0  0  0  0  0  0  0  0  0  0  0  0
   -3.2345    0.2974   29.5609 C   0  0  1  0  0  0  0  0  0  0  0  0
   -3.6521   -0.6716   28.6006 O   0  0  0  0  0  0  0  0  0  0  0  0
   -5.8662   -3.4535   24.2025 C   0  0  0  0  0  0  0  0  0  0  0  0
   -7.0346   -2.5584   24.1216 N   0  0  0  0  0  0  0  0  0  0  0  0
  1  2  1  1  0  0  0
  1  7  1  0  0  0  0
  1 30  1  0  0  0  0
  3  4  1  1  0  0  0
  3  9  1  0  0  0  0
  3 39  1  0  0  0  0
  5 10  1  0  0  0  0
  5 26  1  0  0  0  0
  5 32  1  1  0  0  0
  6 12  1  0  0  0  0
  6 36  1  0  0  0  0
  6 19  1  6  0  0  0
  7  8  1  1  0  0  0
  7 14  1  0  0  0  0
  9 16  1  0  0  0  0
 10 11  1  6  0  0  0
 10 18  1  0  0  0  0
 12 13  1  6  0  0  0
 12 20  1  0  0  0  0
 14 15  1  6  0  0  0
 14 22  1  0  0  0  0
 16 17  1  1  0  0  0
 16 24  1  0  0  0  0
 18 19  1  1  0  0  0
 18 25  1  0  0  0  0
 20 21  1  1  0  0  0
 20 27  1  0  0  0  0
 22 23  1  1  0  0  0
 22 29  1  0  0  0  0
 24  2  1  6  0  0  0
 24 31  1  0  0  0  0
 25 26  1  0  0  0  0
 25 33  1  1  0  0  0
 27 28  1  6  0  0  0
 27 35  1  0  0  0  0
 29 30  1  0  0  0  0
 29 37  1  6  0  0  0
 31 32  1  6  0  0  0
 31 39  1  0  0  0  0
 33 34  1  0  0  0  0
 35 36  1  0  0  0  0
 35 41  1  6  0  0  0
 37 38  1  0  0  0  0
 39 40  1  6  0  0  0
 41 42  1  0  0  0  0
M  END
>  <CHROM.1>
-163.69026311,160.88312128,-175.10260458,-74.90661089,72.85849100,-52.27305062
-66.15788098,68.91738985,-50.35394069,-75.42086110,82.11179738,58.63415236
-173.02135562,54.69957339,-70.15177549,161.42396081,163.55584639,64.23736336
167.63563796,-178.73413900,-56.28082574,164.92379400,-1.26096904,0.67188974
27.38084282,-0.66815797,-0.68294486,-1.84384593

>  <Name>
1fyp_lig

>  <RI>
0

>  <Rbt.Current_Directory>
/home/itssahil/PROJECTS/Mol_Feturizer/New_Systems/rnas/1fyp

>  <Rbt.Executable>
rbdock ($Id: //depot/dev/client3/rdock/2013.1/src/exe/rbdock.cxx#4 $)

>  <Rbt.Library>
libRbt.so (2013.1, Build901 2013/11/27)

>  <Rbt.Parameter_File>
/export/apps/rDock/src/rDock_2013.1_src/data/scripts/dock_solv.prm

>  <Rbt.Receptor>
prm/blind_docking_60.prm

>  <SCORE>
-59.3233

>  <SCORE.INTER>
-49.7917

>  <SCORE.INTER.CONST>
1

>  <SCORE.INTER.POLAR>
-6.17569

>  <SCORE.INTER.ROT>
14

>  <SCORE.INTER.SOLV>
16.3108

>  <SCORE.INTER.VDW>
-30.9791

>  <SCORE.INTER.norm>
-1.18552

>  <SCORE.INTRA>
-9.93391

>  <SCORE.INTRA.DIHEDRAL>
-35.5051

>  <SCORE.INTRA.DIHEDRAL.0>
48.7173

>  <SCORE.INTRA.POLAR>
0.948244

>  <SCORE.INTRA.POLAR.0>
-1.54691

>  <SCORE.INTRA.REPUL>
0.000763298

>  <SCORE.INTRA.REPUL.0>
0

>  <SCORE.INTRA.SOLV>
0.436196

>  <SCORE.INTRA.SOLV.lig_0>
-64.052

>  <SCORE.INTRA.VDW>
4.3727

>  <SCORE.INTRA.VDW.0>
-7.0667

>  <SCORE.INTRA.norm>
-0.236522

>  <SCORE.RESTR>
0.402287

>  <SCORE.RESTR.CAVITY>
0.402287

>  <SCORE.RESTR.norm>
0.00957827

>  <SCORE.SYSTEM>
0

>  <SCORE.SYSTEM.CONST>
0

>  <SCORE.SYSTEM.DIHEDRAL>
0

>  <SCORE.SYSTEM.SOLV>
0

>  <SCORE.SYSTEM.norm>
0

>  <SCORE.heavy>
42

>  <SCORE.norm>
-1.41246

>  <RMSD>
7.852

$$$$
1fyp_lig
 OpenBabel11021811393D
libRbt.so/2013.1/901 2013/11/27
 42 45  0  0  0  0  0  0  0  0999 V2000
    0.9454    2.3925   27.7822 C   0  0  2  0  0  0  0  0  0  0  0  0
    0.4536    1.9586   29.0831 O   0  0  0  0  0  0  0  0  0  0  0  0
   -3.1275   -0.1244   30.1209 C   0  0  2  0  0  0  0  0  0  0  0  0
   -4.5020   -0.5283   30.4703 N   0  0  0  0  0  0  0  0  0  0  0  0
   -2.2492    0.7364   25.8674 C   0  0  1  0  0  0  0  0  0  0  0  0
   -3.2722   -1.2732   22.4679 C   0  0  1  0  0  0  0  0  0  0  0  0
    2.4324    1.9659   27.5611 C   0  0  2  0  0  0  0  0  0  0  0  0
    2.6249    0.5270   27.8410 N   0  0  0  0  0  0  0  0  0  0  0  0
   -2.6551    0.9781   31.0896 C   0  0  0  0  0  0  0  0  0  0  0  0
   -2.3411    1.6629   24.6521 C   0  0  2  0  0  0  0  0  0  0  0  0
   -3.6344    2.2670   24.6094 O   0  0  0  0  0  0  0  0  0  0  0  0
   -4.3500   -1.4240   21.3513 C   0  0  2  0  0  0  0  0  0  0  0  0
   -5.7075   -1.0431   21.8121 N   0  0  0  0  0  0  0  0  0  0  0  0
    3.3938    2.8224   28.4433 C   0  0  1  0  0  0  0  0  0  0  0  0
    4.7505    2.5334   28.1153 O   0  0  0  0  0  0  0  0  0  0  0  0
   -1.1997    1.4342   30.7962 C   0  0  2  0  0  0  0  0  0  0  0  0
   -0.8780    2.5404   31.7216 N   0  0  0  0  0  0  0  0  0  0  0  0
   -2.1477    0.6806   23.4936 C   0  0  2  0  0  0  0  0  0  0  0  0
   -3.3883    0.0048   23.1461 O   0  0  0  0  0  0  0  0  0  0  0  0
   -4.3365   -2.8662   20.7572 C   0  0  1  0  0  0  0  0  0  0  0  0
   -3.1758   -3.0097   19.9412 O   0  0  0  0  0  0  0  0  0  0  0  0
    3.1531    4.3408   28.2509 C   0  0  2  0  0  0  0  0  0  0  0  0
    3.9923    5.0620   29.1477 O   0  0  0  0  0  0  0  0  0  0  0  0
   -0.9832    1.8573   29.2987 C   0  0  2  0  0  0  0  0  0  0  0  0
   -1.1371   -0.3146   24.0807 C   0  0  2  0  0  0  0  0  0  0  0  0
   -1.4105   -0.3687   25.4943 O   0  0  0  0  0  0  0  0  0  0  0  0
   -4.3208   -3.9965   21.8306 C   0  0  2  0  0  0  0  0  0  0  0  0
   -5.6150   -4.0709   22.4308 O   0  0  0  0  0  0  0  0  0  0  0  0
    1.6580    4.6869   28.5022 C   0  0  2  0  0  0  0  0  0  0  0  0
    0.8229    3.8485   27.6480 O   0  0  0  0  0  0  0  0  0  0  0  0
   -1.5910    0.8279   28.2784 C   0  0  2  0  0  0  0  0  0  0  0  0
   -1.6403    1.4613   26.9734 O   0  0  0  0  0  0  0  0  0  0  0  0
    0.3257    0.0989   23.8403 C   0  0  0  0  0  0  0  0  0  0  0  0
    0.4733    1.5056   23.9242 O   0  0  0  0  0  0  0  0  0  0  0  0
   -3.2382   -3.7130   22.9178 C   0  0  1  0  0  0  0  0  0  0  0  0
   -3.4126   -2.3616   23.4430 O   0  0  0  0  0  0  0  0  0  0  0  0
    1.2713    6.1515   28.1982 C   0  0  0  0  0  0  0  0  0  0  0  0
    1.4465    6.4559   26.8248 O   0  0  0  0  0  0  0  0  0  0  0  0
   -3.0345    0.3740   28.6586 C   0  0  1  0  0  0  0  0  0  0  0  0
   -3.4317   -0.6775   27.7797 O   0  0  0  0  0  0  0  0  0  0  0  0
   -3.2917   -4.7229   24.0927 C   0  0  0  0  0  0  0  0  0  0  0  0
   -2.6524   -6.0088   23.7597 N   0  0  0  0  0  0  0  0  0  0  0  0
  1  2  1  1  0  0  0
  1  7  1  0  0  0  0
  1 30  1  0  0  0  0
  3  4  1  1  0  0  0
  3  9  1  0  0  0  0
  3 39  1  0  0  0  0
  5 10  1  0  0  0  0
  5 26  1  0  0  0  0
  5 32  1  1  0  0  0
  6 12  1  0  0  0  0
  6 36  1  0  0  0  0
  6 19  1  1  0  0  0
  7  8  1  1  0  0  0
  7 14  1  0  0  0  0
  9 16  1  0  0  0  0
 10 11  1  6  0  0  0
 10 18  1  0  0  0  0
 12 13  1  1  0  0  0
 12 20  1  0  0  0  0
 14 15  1  6  0  0  0
 14 22  1  0  0  0  0
 16 17  1  1  0  0  0
 16 24  1  0  0  0  0
 18 19  1  1  0  0  0
 18 25  1  0  0  0  0
 20 21  1  6  0  0  0
 20 27  1  0  0  0  0
 22 23  1  1  0  0  0
 22 29  1  0  0  0  0
 24  2  1  6  0  0  0
 24 31  1  0  0  0  0
 25 26  1  0  0  0  0
 25 33  1  1  0  0  0
 27 28  1  1  0  0  0
 27 35  1  0  0  0  0
 29 30  1  0  0  0  0
 29 37  1  6  0  0  0
 31 32  1  6  0  0  0
 31 39  1  0  0  0  0
 33 34  1  0  0  0  0
 35 36  1  0  0  0  0
 35 41  1  1  0  0  0
 37 38  1  0  0  0  0
 39 40  1  6  0  0  0
 41 42  1  0  0  0  0
M  END
>  <CHROM.1>
-159.69511306,-177.50553530,-161.28149149,167.76264715,-71.61391809,-14.30410984
-63.23600329,-50.67530849,-156.70372179,-140.47039789,59.52238562,-57.87550314
36.37723736,63.86847696,63.28825441,-176.04098078,173.04570170,-148.50439975
79.02450479,50.30757130,64.61748915,122.87988873,-1.29978526,0.54390502,26.09687996
-0.82041146,-0.69504873,-1.80727838

>  <Name>
1fyp_lig

>  <RI>
0

>  <Rbt.Current_Directory>
/home/itssahil/PROJECTS/Mol_Feturizer/New_Systems/rnas/1fyp

>  <Rbt.Executable>
rbdock ($Id: //depot/dev/client3/rdock/2013.1/src/exe/rbdock.cxx#4 $)

>  <Rbt.Library>
libRbt.so (2013.1, Build901 2013/11/27)

>  <Rbt.Parameter_File>
/export/apps/rDock/src/rDock_2013.1_src/data/scripts/dock_solv.prm

>  <Rbt.Receptor>
prm/blind_docking_100.prm

>  <SCORE>
-55.8104

>  <SCORE.INTER>
-51.7723

>  <SCORE.INTER.CONST>
1

>  <SCORE.INTER.POLAR>
-5.94368

>  <SCORE.INTER.ROT>
14

>  <SCORE.INTER.SOLV>
18.9343

>  <SCORE.INTER.VDW>
-33.9474

>  <SCORE.INTER.norm>
-1.23267

>  <SCORE.INTRA>
-4.79837

>  <SCORE.INTRA.DIHEDRAL>
-24.9246

>  <SCORE.INTRA.DIHEDRAL.0>
48.7173

>  <SCORE.INTRA.POLAR>
1.14761

>  <SCORE.INTRA.POLAR.0>
-1.54691

>  <SCORE.INTRA.REPUL>
0

>  <SCORE.INTRA.REPUL.0>
0

>  <SCORE.INTRA.SOLV>
-2.49968

>  <SCORE.INTRA.SOLV.lig_0>
-64.052

>  <SCORE.INTRA.VDW>
5.01188

>  <SCORE.INTRA.VDW.0>
-7.0667

>  <SCORE.INTRA.norm>
-0.114247

>  <SCORE.RESTR>
0.760234

>  <SCORE.RESTR.CAVITY>
0.760234

>  <SCORE.RESTR.norm>
0.0181008

>  <SCORE.SYSTEM>
0

>  <SCORE.SYSTEM.CONST>
0

>  <SCORE.SYSTEM.DIHEDRAL>
0

>  <SCORE.SYSTEM.SOLV>
0

>  <SCORE.SYSTEM.norm>
0

>  <SCORE.heavy>
42

>  <SCORE.norm>
-1.32882

>  <RMSD>
7.861

$$$$
1fyp_lig
 OpenBabel11021811393D
libRbt.so/2013.1/901 2013/11/27
 42 45  0  0  0  0  0  0  0  0999 V2000
    0.8362    2.9614   26.6069 C   0  0  2  0  0  0  0  0  0  0  0  0
    1.0056    2.2612   27.8731 O   0  0  0  0  0  0  0  0  0  0  0  0
   -0.8511    1.4370   31.6300 C   0  0  2  0  0  0  0  0  0  0  0  0
   -1.6166    1.4712   32.8898 N   0  0  0  0  0  0  0  0  0  0  0  0
   -2.6344    0.4373   27.4366 C   0  0  1  0  0  0  0  0  0  0  0  0
   -5.1628   -2.1780   24.8744 C   0  0  1  0  0  0  0  0  0  0  0  0
    1.7940    2.3976   25.5084 C   0  0  2  0  0  0  0  0  0  0  0  0
    1.6939    0.9256   25.4136 N   0  0  0  0  0  0  0  0  0  0  0  0
    0.0909    2.6559   31.5689 C   0  0  0  0  0  0  0  0  0  0  0  0
   -3.7253    0.9076   26.4711 C   0  0  2  0  0  0  0  0  0  0  0  0
   -4.9695    1.0015   27.1660 O   0  0  0  0  0  0  0  0  0  0  0  0
   -6.7116   -2.0002   24.8512 C   0  0  2  0  0  0  0  0  0  0  0  0
   -7.3154   -2.0721   26.2042 N   0  0  0  0  0  0  0  0  0  0  0  0
    3.2698    2.8232   25.7857 C   0  0  1  0  0  0  0  0  0  0  0  0
    4.1053    2.4390   24.6965 O   0  0  0  0  0  0  0  0  0  0  0  0
    0.9512    2.6697   30.2759 C   0  0  2  0  0  0  0  0  0  0  0  0
    1.7523    3.9115   30.2798 N   0  0  0  0  0  0  0  0  0  0  0  0
   -3.7463   -0.2280   25.4443 C   0  0  2  0  0  0  0  0  0  0  0  0
   -4.5506   -1.3518   25.8988 O   0  0  0  0  0  0  0  0  0  0  0  0
   -7.3741   -3.0246   23.8792 C   0  0  1  0  0  0  0  0  0  0  0  0
   -7.1021   -2.6195   22.5392 O   0  0  0  0  0  0  0  0  0  0  0  0
    3.3996    4.3534   25.9901 C   0  0  2  0  0  0  0  0  0  0  0  0
    4.7473    4.6646   26.3301 O   0  0  0  0  0  0  0  0  0  0  0  0
    0.0890    2.5472   28.9683 C   0  0  2  0  0  0  0  0  0  0  0  0
   -2.2642   -0.6207   25.3685 C   0  0  2  0  0  0  0  0  0  0  0  0
   -1.7222   -0.3753   26.6807 O   0  0  0  0  0  0  0  0  0  0  0  0
   -6.8702   -4.4889   24.0578 C   0  0  2  0  0  0  0  0  0  0  0  0
   -7.4239   -5.0156   25.2647 O   0  0  0  0  0  0  0  0  0  0  0  0
    2.4286    4.8337   27.1058 C   0  0  2  0  0  0  0  0  0  0  0  0
    1.0740    4.3988   26.7808 O   0  0  0  0  0  0  0  0  0  0  0  0
   -0.9917    1.4092   29.0527 C   0  0  2  0  0  0  0  0  0  0  0  0
   -1.9330    1.5989   27.9644 O   0  0  0  0  0  0  0  0  0  0  0  0
   -1.4810    0.1815   24.3141 C   0  0  0  0  0  0  0  0  0  0  0  0
   -1.9670   -0.0882   23.0107 O   0  0  0  0  0  0  0  0  0  0  0  0
   -5.3117   -4.5354   24.1148 C   0  0  1  0  0  0  0  0  0  0  0  0
   -4.8289   -3.5873   25.1150 O   0  0  0  0  0  0  0  0  0  0  0  0
    2.3673    6.3656   27.2972 C   0  0  0  0  0  0  0  0  0  0  0  0
    1.3044    6.7347   28.1594 O   0  0  0  0  0  0  0  0  0  0  0  0
   -1.7852    1.4218   30.3961 C   0  0  1  0  0  0  0  0  0  0  0  0
   -2.6139    0.2616   30.4507 O   0  0  0  0  0  0  0  0  0  0  0  0
   -4.7675   -5.9472   24.4522 C   0  0  0  0  0  0  0  0  0  0  0  0
   -5.3065   -6.9873   23.5573 N   0  0  0  0  0  0  0  0  0  0  0  0
  1  2  1  1  0  0  0
  1  7  1  0  0  0  0
  1 30  1  0  0  0  0
  3  4  1  1  0  0  0
  3  9  1  0  0  0  0
  3 39  1  0  0  0  0
  5 10  1  0  0  0  0
  5 26  1  0  0  0  0
  5 32  1  6  0  0  0
  6 12  1  0  0  0  0
  6 36  1  0  0  0  0
  6 19  1  1  0  0  0
  7  8  1  1  0  0  0
  7 14  1  0  0  0  0
  9 16  1  0  0  0  0
 10 11  1  1  0  0  0
 10 18  1  0  0  0  0
 12 13  1  1  0  0  0
 12 20  1  0  0  0  0
 14 15  1  6  0  0  0
 14 22  1  0  0  0  0
 16 17  1  6  0  0  0
 16 24  1  0  0  0  0
 18 19  1  1  0  0  0
 18 25  1  0  0  0  0
 20 21  1  6  0  0  0
 20 27  1  0  0  0  0
 22 23  1  1  0  0  0
 22 29  1  0  0  0  0
 24  2  1  6  0  0  0
 24 31  1  0  0  0  0
 25 26  1  0  0  0  0
 25 33  1  6  0  0  0
 27 28  1  1  0  0  0
 27 35  1  0  0  0  0
 29 30  1  0  0  0  0
 29 37  1  6  0  0  0
 31 32  1  6  0  0  0
 31 39  1  0  0  0  0
 33 34  1  0  0  0  0
 35 36  1  0  0  0  0
 35 41  1  1  0  0  0
 37 38  1  0  0  0  0
 39 40  1  1  0  0  0
 41 42  1  0  0  0  0
M  END
>  <CHROM.1>
-172.98499669,-136.54318818,83.02749077,-168.22101213,-64.28090246,-12.98087024
-172.17186566,-175.68854759,152.32148843,-110.55060859,-178.40574450,65.12737518
-64.01016017,170.49752816,169.89420547,152.59399020,170.78600961,62.80060203
52.94574009,-86.52060732,169.61591354,-101.98489868,-1.77165238,0.51345578
26.69175838,-0.53073735,-0.63462789,-1.92985584

>  <Name>
1fyp_lig

>  <RI>
0

>  <Rbt.Current_Directory>
/home/itssahil/PROJECTS/Mol_Feturizer/New_Systems/rnas/1fyp

>  <Rbt.Executable>
rbdock ($Id: //depot/dev/client3/rdock/2013.1/src/exe/rbdock.cxx#4 $)

>  <Rbt.Library>
libRbt.so (2013.1, Build901 2013/11/27)

>  <Rbt.Parameter_File>
/export/apps/rDock/src/rDock_2013.1_src/data/scripts/dock_solv.prm

>  <Rbt.Receptor>
prm/blind_docking_100.prm

>  <SCORE>
-42.873

>  <SCORE.INTER>
-40.5295

>  <SCORE.INTER.CONST>
1

>  <SCORE.INTER.POLAR>
-5.41933

>  <SCORE.INTER.ROT>
14

>  <SCORE.INTER.SOLV>
13.8391

>  <SCORE.INTER.VDW>
-26.5016

>  <SCORE.INTER.norm>
-0.964987

>  <SCORE.INTRA>
-3.74274

>  <SCORE.INTRA.DIHEDRAL>
-18.9207

>  <SCORE.INTRA.DIHEDRAL.0>
48.7173

>  <SCORE.INTRA.POLAR>
1.36978

>  <SCORE.INTRA.POLAR.0>
-1.54691

>  <SCORE.INTRA.REPUL>
0.0465783

>  <SCORE.INTRA.REPUL.0>
0

>  <SCORE.INTRA.SOLV>
-1.93337

>  <SCORE.INTRA.SOLV.lig_0>
-64.052

>  <SCORE.INTRA.VDW>
1.79413

>  <SCORE.INTRA.VDW.0>
-7.0667

>  <SCORE.INTRA.norm>
-0.0891128

>  <SCORE.RESTR>
1.39917

>  <SCORE.RESTR.CAVITY>
1.39917

>  <SCORE.RESTR.norm>
0.0333136

>  <SCORE.SYSTEM>
0

>  <SCORE.SYSTEM.CONST>
0

>  <SCORE.SYSTEM.DIHEDRAL>
0

>  <SCORE.SYSTEM.SOLV>
0

>  <SCORE.SYSTEM.norm>
0

>  <SCORE.heavy>
42

>  <SCORE.norm>
-1.02079

>  <RMSD>
8.016

$$$$
1fyp_lig
 OpenBabel11021811393D
libRbt.so/2013.1/901 2013/11/27
 42 45  0  0  0  0  0  0  0  0999 V2000
    0.7486    2.9039   26.7332 C   0  0  2  0  0  0  0  0  0  0  0  0
    0.9983    2.2762   28.0239 O   0  0  0  0  0  0  0  0  0  0  0  0
   -1.0004    1.3751   31.6892 C   0  0  2  0  0  0  0  0  0  0  0  0
   -1.7676    1.3994   32.9482 N   0  0  0  0  0  0  0  0  0  0  0  0
   -2.2521    1.1287   26.9475 C   0  0  1  0  0  0  0  0  0  0  0  0
   -3.7290   -1.6283   24.1335 C   0  0  1  0  0  0  0  0  0  0  0  0
    1.8119    2.4733   25.6720 C   0  0  2  0  0  0  0  0  0  0  0  0
    1.9543    1.0026   25.6217 N   0  0  0  0  0  0  0  0  0  0  0  0
    0.1071    2.4463   31.7426 C   0  0  0  0  0  0  0  0  0  0  0  0
   -2.6095   -0.2531   27.5014 C   0  0  2  0  0  0  0  0  0  0  0  0
   -1.4364   -1.0661   27.5489 O   0  0  0  0  0  0  0  0  0  0  0  0
   -4.8253   -2.6898   24.4532 C   0  0  2  0  0  0  0  0  0  0  0  0
   -4.2899   -3.8598   25.1912 N   0  0  0  0  0  0  0  0  0  0  0  0
    3.1919    3.1412   25.9648 C   0  0  1  0  0  0  0  0  0  0  0  0
    4.1050    2.8681   24.9049 O   0  0  0  0  0  0  0  0  0  0  0  0
    0.9754    2.4589   30.4548 C   0  0  2  0  0  0  0  0  0  0  0  0
    1.9459    3.5667   30.5755 N   0  0  0  0  0  0  0  0  0  0  0  0
   -3.5990   -0.7655   26.4514 C   0  0  2  0  0  0  0  0  0  0  0  0
   -2.9169   -1.3381   25.3009 O   0  0  0  0  0  0  0  0  0  0  0  0
   -5.5682   -3.1300   23.1542 C   0  0  1  0  0  0  0  0  0  0  0  0
   -6.4263   -2.0687   22.7409 O   0  0  0  0  0  0  0  0  0  0  0  0
    3.0665    4.6772   26.1234 C   0  0  2  0  0  0  0  0  0  0  0  0
    4.3371    5.2131   26.4800 O   0  0  0  0  0  0  0  0  0  0  0  0
    0.1196    2.5859   29.1434 C   0  0  2  0  0  0  0  0  0  0  0  0
   -4.3412    0.5184   26.0549 C   0  0  2  0  0  0  0  0  0  0  0  0
   -3.3842    1.5868   26.1909 O   0  0  0  0  0  0  0  0  0  0  0  0
   -4.6208   -3.4817   21.9674 C   0  0  2  0  0  0  0  0  0  0  0  0
   -3.9966   -4.7371   22.2411 O   0  0  0  0  0  0  0  0  0  0  0  0
    2.0035    5.0238   27.2042 C   0  0  2  0  0  0  0  0  0  0  0  0
    0.7457    4.3652   26.8664 O   0  0  0  0  0  0  0  0  0  0  0  0
   -1.1138    1.6121   29.1213 C   0  0  2  0  0  0  0  0  0  0  0  0
   -2.0057    2.0373   28.0582 O   0  0  0  0  0  0  0  0  0  0  0  0
   -5.5742    0.7976   26.9326 C   0  0  0  0  0  0  0  0  0  0  0  0
   -6.1998   -0.4119   27.3243 O   0  0  0  0  0  0  0  0  0  0  0  0
   -3.5399   -2.3732   21.7742 C   0  0  1  0  0  0  0  0  0  0  0  0
   -2.8706   -2.1139   23.0460 O   0  0  0  0  0  0  0  0  0  0  0  0
    1.6898    6.5300   27.3461 C   0  0  0  0  0  0  0  0  0  0  0  0
    0.8678    6.7808   28.4734 O   0  0  0  0  0  0  0  0  0  0  0  0
   -1.9128    1.6112   30.4615 C   0  0  1  0  0  0  0  0  0  0  0  0
   -2.8997    0.5822   30.4071 O   0  0  0  0  0  0  0  0  0  0  0  0
   -2.4769   -2.7530   20.7117 C   0  0  0  0  0  0  0  0  0  0  0  0
   -1.1216   -2.3121   21.0881 N   0  0  0  0  0  0  0  0  0  0  0  0
  1  2  1  1  0  0  0
  1  7  1  0  0  0  0
  1 30  1  0  0  0  0
  3  4  1  1  0  0  0
  3  9  1  0  0  0  0
  3 39  1  0  0  0  0
  5 10  1  0  0  0  0
  5 26  1  0  0  0  0
  5 32  1  1  0  0  0
  6 12  1  0  0  0  0
  6 36  1  0  0  0  0
  6 19  1  1  0  0  0
  7  8  1  1  0  0  0
  7 14  1  0  0  0  0
  9 16  1  0  0  0  0
 10 11  1  6  0  0  0
 10 18  1  0  0  0  0
 12 13  1  6  0  0  0
 12 20  1  0  0  0  0
 14 15  1  6  0  0  0
 14 22  1  0  0  0  0
 16 17  1  1  0  0  0
 16 24  1  0  0  0  0
 18 19  1  6  0  0  0
 18 25  1  0  0  0  0
 20 21  1  6  0  0  0
 20 27  1  0  0  0  0
 22 23  1  1  0  0  0
 22 29  1  0  0  0  0
 24  2  1  6  0  0  0
 24 31  1  0  0  0  0
 25 26  1  0  0  0  0
 25 33  1  1  0  0  0
 27 28  1  1  0  0  0
 27 35  1  0  0  0  0
 29 30  1  0  0  0  0
 29 37  1  6  0  0  0
 31 32  1  6  0  0  0
 31 39  1  0  0  0  0
 33 34  1  0  0  0  0
 35 36  1  0  0  0  0
 35 41  1  6  0  0  0
 37 38  1  0  0  0  0
 39 40  1  6  0  0  0
 41 42  1  0  0  0  0
M  END
>  <CHROM.1>
178.72134479,-150.13750063,-59.94344816,168.64841879,177.78340407,86.22414460
-62.80029611,178.48689141,-168.75922082,-62.08143963,67.37663366,174.53085810
-34.12566737,-39.95093186,-171.37237460,117.19214513,49.10194209,75.13335044
-141.84799902,69.59403985,167.45567028,-71.29533223,-1.36566955,0.85194613
26.53689468,-0.79310323,-0.61263738,-1.95777767

>  <Name>
1fyp_lig

>  <RI>
0

>  <Rbt.Current_Directory>
/home/itssahil/PROJECTS/Mol_Feturizer/New_Systems/rnas/1fyp

>  <Rbt.Executable>
rbdock ($Id: //depot/dev/client3/rdock/2013.1/src/exe/rbdock.cxx#4 $)

>  <Rbt.Library>
libRbt.so (2013.1, Build901 2013/11/27)

>  <Rbt.Parameter_File>
/export/apps/rDock/src/rDock_2013.1_src/data/scripts/dock_solv.prm

>  <Rbt.Receptor>
prm/blind_docking_100.prm

>  <SCORE>
-51.2259

>  <SCORE.INTER>
-44.4479

>  <SCORE.INTER.CONST>
1

>  <SCORE.INTER.POLAR>
-5.92554

>  <SCORE.INTER.ROT>
14

>  <SCORE.INTER.SOLV>
14.1209

>  <SCORE.INTER.VDW>
-27.5205

>  <SCORE.INTER.norm>
-1.05828

>  <SCORE.INTRA>
-7.85321

>  <SCORE.INTRA.DIHEDRAL>
-24.3296

>  <SCORE.INTRA.DIHEDRAL.0>
48.7173

>  <SCORE.INTRA.POLAR>
0.80997

>  <SCORE.INTRA.POLAR.0>
-1.54691

>  <SCORE.INTRA.REPUL>
0.0621989

>  <SCORE.INTRA.REPUL.0>
0

>  <SCORE.INTRA.SOLV>
-2.5092

>  <SCORE.INTRA.SOLV.lig_0>
-64.052

>  <SCORE.INTRA.VDW>
2.50129

>  <SCORE.INTRA.VDW.0>
-7.0667

>  <SCORE.INTRA.norm>
-0.186981

>  <SCORE.RESTR>
1.07526

>  <SCORE.RESTR.CAVITY>
1.07526

>  <SCORE.RESTR.norm>
0.0256014

>  <SCORE.SYSTEM>
0

>  <SCORE.SYSTEM.CONST>
0

>  <SCORE.SYSTEM.DIHEDRAL>
0

>  <SCORE.SYSTEM.SOLV>
0

>  <SCORE.SYSTEM.norm>
0

>  <SCORE.heavy>
42

>  <SCORE.norm>
-1.21966

>  <RMSD>
8.023

$$$$
1fyp_lig
 OpenBabel11021811393D
libRbt.so/2013.1/901 2013/11/27
 42 45  0  0  0  0  0  0  0  0999 V2000
    1.3543    1.2951   28.2654 C   0  0  2  0  0  0  0  0  0  0  0  0
    0.4795    2.3874   28.6704 O   0  0  0  0  0  0  0  0  0  0  0  0
   -2.3012   -0.1408   30.6993 C   0  0  2  0  0  0  0  0  0  0  0  0
   -3.4518   -0.7271   31.4113 N   0  0  0  0  0  0  0  0  0  0  0  0
   -2.4568    0.4057   26.2309 C   0  0  1  0  0  0  0  0  0  0  0  0
   -3.4110   -1.9462   22.8739 C   0  0  1  0  0  0  0  0  0  0  0  0
    2.7009    1.3162   29.0581 C   0  0  2  0  0  0  0  0  0  0  0  0
    2.4644    1.4049   30.5148 N   0  0  0  0  0  0  0  0  0  0  0  0
   -1.8117    1.1092   31.4576 C   0  0  0  0  0  0  0  0  0  0  0  0
   -3.0310    1.1659   25.0325 C   0  0  2  0  0  0  0  0  0  0  0  0
   -4.4390    1.3329   25.2035 O   0  0  0  0  0  0  0  0  0  0  0  0
   -3.3236   -1.4742   21.3904 C   0  0  2  0  0  0  0  0  0  0  0  0
   -4.4633   -0.6099   20.9976 N   0  0  0  0  0  0  0  0  0  0  0  0
    3.6070    2.4953   28.5839 C   0  0  1  0  0  0  0  0  0  0  0  0
    4.8897    2.4079   29.1992 O   0  0  0  0  0  0  0  0  0  0  0  0
   -0.5797    1.7651   30.7761 C   0  0  2  0  0  0  0  0  0  0  0  0
   -0.2451    2.9904   31.5313 N   0  0  0  0  0  0  0  0  0  0  0  0
   -2.7206    0.2104   23.8771 C   0  0  2  0  0  0  0  0  0  0  0  0
   -3.7193   -0.8414   23.7633 O   0  0  0  0  0  0  0  0  0  0  0  0
   -3.1774   -2.6926   20.4275 C   0  0  1  0  0  0  0  0  0  0  0  0
   -1.8563   -3.2144   20.5537 O   0  0  0  0  0  0  0  0  0  0  0  0
    3.7970    2.4938   27.0463 C   0  0  2  0  0  0  0  0  0  0  0  0
    4.5516    3.6416   26.6698 O   0  0  0  0  0  0  0  0  0  0  0  0
   -0.8178    2.0758   29.2546 C   0  0  2  0  0  0  0  0  0  0  0  0
   -1.3657   -0.3751   24.2988 C   0  0  2  0  0  0  0  0  0  0  0  0
   -1.3797   -0.4078   25.7391 O   0  0  0  0  0  0  0  0  0  0  0  0
   -4.1867   -3.8477   20.7049 C   0  0  2  0  0  0  0  0  0  0  0  0
   -5.4813   -3.4355   20.2637 O   0  0  0  0  0  0  0  0  0  0  0  0
    2.4160    2.4879   26.3313 C   0  0  2  0  0  0  0  0  0  0  0  0
    1.6265    1.3642   26.8252 O   0  0  0  0  0  0  0  0  0  0  0  0
   -1.4620    0.8709   28.4778 C   0  0  2  0  0  0  0  0  0  0  0  0
   -1.9437    1.3633   27.2003 O   0  0  0  0  0  0  0  0  0  0  0  0
   -0.1689    0.4541   23.8000 C   0  0  0  0  0  0  0  0  0  0  0  0
    1.0523   -0.0855   24.2746 O   0  0  0  0  0  0  0  0  0  0  0  0
   -4.2220   -4.1994   22.2246 C   0  0  1  0  0  0  0  0  0  0  0  0
   -4.4409   -2.9843   23.0043 O   0  0  0  0  0  0  0  0  0  0  0  0
    2.4817    2.3406   24.7947 C   0  0  0  0  0  0  0  0  0  0  0  0
    1.3390    2.9049   24.1740 O   0  0  0  0  0  0  0  0  0  0  0  0
   -2.6617    0.2271   29.2399 C   0  0  1  0  0  0  0  0  0  0  0  0
   -3.0666   -0.9522   28.5463 O   0  0  0  0  0  0  0  0  0  0  0  0
   -5.3256   -5.2303   22.5744 C   0  0  0  0  0  0  0  0  0  0  0  0
   -6.6831   -4.6792   22.4115 N   0  0  0  0  0  0  0  0  0  0  0  0
  1  2  1  1  0  0  0
  1  7  1  0  0  0  0
  1 30  1  0  0  0  0
  3  4  1  1  0  0  0
  3  9  1  0  0  0  0
  3 39  1  0  0  0  0
  5 10  1  0  0  0  0
  5 26  1  0  0  0  0
  5 32  1  1  0  0  0
  6 12  1  0  0  0  0
  6 36  1  0  0  0  0
  6 19  1  1  0  0  0
  7  8  1  1  0  0  0
  7 14  1  0  0  0  0
  9 16  1  0  0  0  0
 10 11  1  1  0  0  0
 10 18  1  0  0  0  0
 12 13  1  6  0  0  0
 12 20  1  0  0  0  0
 14 15  1  1  0  0  0
 14 22  1  0  0  0  0
 16 17  1  1  0  0  0
 16 24  1  0  0  0  0
 18 19  1  1  0  0  0
 18 25  1  0  0  0  0
 20 21  1  1  0  0  0
 20 27  1  0  0  0  0
 22 23  1  6  0  0  0
 22 29  1  0  0  0  0
 24  2  1  6  0  0  0
 24 31  1  0  0  0  0
 25 26  1  0  0  0  0
 25 33  1  1  0  0  0
 27 28  1  1  0  0  0
 27 35  1  0  0  0  0
 29 30  1  0  0  0  0
 29 37  1  6  0  0  0
 31 32  1  6  0  0  0
 31 39  1  0  0  0  0
 33 34  1  0  0  0  0
 35 36  1  0  0  0  0
 35 41  1  6  0  0  0
 37 38  1  0  0  0  0
 39 40  1  6  0  0  0
 41 42  1  0  0  0  0
M  END
>  <CHROM.1>
-118.57457460,82.17050510,86.68504746,-177.35868338,-154.20402316,72.68287801
56.40008243,-148.37486414,-168.88897978,-65.23846105,-57.99632701,178.88732742
176.84575766,60.79389221,-154.49153158,173.49265340,174.34728325,42.75426254
-68.06864198,55.00397055,57.86369433,41.63590389,-1.22299146,0.07310546,25.88634532
-0.87826802,-0.48358413,-1.80509005

>  <Name>
1fyp_lig

>  <RI>
0

>  <Rbt.Current_Directory>
/home/itssahil/PROJECTS/Mol_Feturizer/New_Systems/rnas/1fyp

>  <Rbt.Executable>
rbdock ($Id: //depot/dev/client3/rdock/2013.1/src/exe/rbdock.cxx#4 $)

>  <Rbt.Library>
libRbt.so (2013.1, Build901 2013/11/27)

>  <Rbt.Parameter_File>
/export/apps/rDock/src/rDock_2013.1_src/data/scripts/dock_solv.prm

>  <Rbt.Receptor>
prm/pocket_docking_8.prm

>  <SCORE>
-46.068

>  <SCORE.INTER>
-40.0155

>  <SCORE.INTER.CONST>
1

>  <SCORE.INTER.POLAR>
-3.53951

>  <SCORE.INTER.ROT>
14

>  <SCORE.INTER.SOLV>
19.0783

>  <SCORE.INTER.VDW>
-34.1714

>  <SCORE.INTER.norm>
-0.952751

>  <SCORE.INTRA>
-6.05248

>  <SCORE.INTRA.DIHEDRAL>
-28.4461

>  <SCORE.INTRA.DIHEDRAL.0>
48.7173

>  <SCORE.INTRA.POLAR>
0.68402

>  <SCORE.INTRA.POLAR.0>
-1.54691

>  <SCORE.INTRA.REPUL>
0.315993

>  <SCORE.INTRA.REPUL.0>
0

>  <SCORE.INTRA.SOLV>
0.239848

>  <SCORE.INTRA.SOLV.lig_0>
-64.052

>  <SCORE.INTRA.VDW>
4.14503

>  <SCORE.INTRA.VDW.0>
-7.0667

>  <SCORE.INTRA.norm>
-0.144107

>  <SCORE.RESTR>
0

>  <SCORE.RESTR.CAVITY>
0

>  <SCORE.RESTR.norm>
0

>  <SCORE.SYSTEM>
0

>  <SCORE.SYSTEM.CONST>
0

>  <SCORE.SYSTEM.DIHEDRAL>
0

>  <SCORE.SYSTEM.SOLV>
0

>  <SCORE.SYSTEM.norm>
0

>  <SCORE.heavy>
42

>  <SCORE.norm>
-1.09686

>  <RMSD>
8.071

$$$$
1fyp_lig
 OpenBabel11021811393D
libRbt.so/2013.1/901 2013/11/27
 42 45  0  0  0  0  0  0  0  0999 V2000
    4.0809    5.5623   25.1385 C   0  0  2  0  0  0  0  0  0  0  0  0
    2.8008    5.1100   25.6669 O   0  0  0  0  0  0  0  0  0  0  0  0
    1.0566    1.2449   26.1762 C   0  0  2  0  0  0  0  0  0  0  0  0
    0.7370   -0.1480   26.5397 N   0  0  0  0  0  0  0  0  0  0  0  0
    2.5942    4.1613   29.1540 C   0  0  1  0  0  0  0  0  0  0  0  0
    5.2660    3.6464   32.5383 C   0  0  1  0  0  0  0  0  0  0  0  0
    4.8779    6.3887   26.1986 C   0  0  2  0  0  0  0  0  0  0  0  0
    4.9660    5.6668   27.4858 N   0  0  0  0  0  0  0  0  0  0  0  0
    2.4591    1.2997   25.5383 C   0  0  0  0  0  0  0  0  0  0  0  0
    2.5641    5.1608   30.3133 C   0  0  2  0  0  0  0  0  0  0  0  0
    3.4040    6.2741   30.0054 O   0  0  0  0  0  0  0  0  0  0  0  0
    4.8143    4.2303   33.9117 C   0  0  2  0  0  0  0  0  0  0  0  0
    4.8234    5.7134   33.9330 N   0  0  0  0  0  0  0  0  0  0  0  0
    4.2315    7.7937   26.4090 C   0  0  1  0  0  0  0  0  0  0  0  0
    5.0552    8.5922   27.2551 O   0  0  0  0  0  0  0  0  0  0  0  0
    2.8517    2.7385   25.1045 C   0  0  2  0  0  0  0  0  0  0  0  0
    4.2341    2.6918   24.5846 N   0  0  0  0  0  0  0  0  0  0  0  0
    3.1429    4.3281   31.4604 C   0  0  2  0  0  0  0  0  0  0  0  0
    4.5974    4.3116   31.4350 O   0  0  0  0  0  0  0  0  0  0  0  0
    5.6706    3.6410   35.0747 C   0  0  1  0  0  0  0  0  0  0  0  0
    5.2751    2.2876   35.2883 O   0  0  0  0  0  0  0  0  0  0  0  0
    4.0310    8.5425   25.0676 C   0  0  2  0  0  0  0  0  0  0  0  0
    3.3554    9.7713   25.3174 O   0  0  0  0  0  0  0  0  0  0  0  0
    2.7107    3.7859   26.2669 C   0  0  2  0  0  0  0  0  0  0  0  0
    2.5819    2.9314   31.1592 C   0  0  2  0  0  0  0  0  0  0  0  0
    2.4765    2.8481   29.7246 O   0  0  0  0  0  0  0  0  0  0  0  0
    7.2065    3.6642   34.8091 C   0  0  2  0  0  0  0  0  0  0  0  0
    7.6669    5.0116   34.9235 O   0  0  0  0  0  0  0  0  0  0  0  0
    3.2191    7.6635   24.0744 C   0  0  2  0  0  0  0  0  0  0  0  0
    3.8796    6.3701   23.9303 O   0  0  0  0  0  0  0  0  0  0  0  0
    1.3503    3.6583   27.0435 C   0  0  2  0  0  0  0  0  0  0  0  0
    1.4613    4.4167   28.2760 O   0  0  0  0  0  0  0  0  0  0  0  0
    1.2080    2.6809   31.8060 C   0  0  0  0  0  0  0  0  0  0  0  0
    1.3527    2.0971   33.0889 O   0  0  0  0  0  0  0  0  0  0  0  0
    7.5319    3.1023   33.3904 C   0  0  1  0  0  0  0  0  0  0  0  0
    6.7195    3.7915   32.3916 O   0  0  0  0  0  0  0  0  0  0  0  0
    3.0814    8.2506   22.6519 C   0  0  0  0  0  0  0  0  0  0  0  0
    2.5390    7.2987   21.7523 O   0  0  0  0  0  0  0  0  0  0  0  0
    0.9919    2.1835   27.4052 C   0  0  1  0  0  0  0  0  0  0  0  0
   -0.3265    2.1516   27.9496 O   0  0  0  0  0  0  0  0  0  0  0  0
    9.0287    3.2531   33.0163 C   0  0  0  0  0  0  0  0  0  0  0  0
    9.2921    2.9241   31.6037 N   0  0  0  0  0  0  0  0  0  0  0  0
  1  2  1  1  0  0  0
  1  7  1  0  0  0  0
  1 30  1  0  0  0  0
  3  4  1  1  0  0  0
  3  9  1  0  0  0  0
  3 39  1  0  0  0  0
  5 10  1  0  0  0  0
  5 26  1  0  0  0  0
  5 32  1  6  0  0  0
  6 12  1  0  0  0  0
  6 36  1  0  0  0  0
  6 19  1  6  0  0  0
  7  8  1  1  0  0  0
  7 14  1  0  0  0  0
  9 16  1  0  0  0  0
 10 11  1  6  0  0  0
 10 18  1  0  0  0  0
 12 13  1  6  0  0  0
 12 20  1  0  0  0  0
 14 15  1  1  0  0  0
 14 22  1  0  0  0  0
 16 17  1  1  0  0  0
 16 24  1  0  0  0  0
 18 19  1  6  0  0  0
 18 25  1  0  0  0  0
 20 21  1  6  0  0  0
 20 27  1  0  0  0  0
 22 23  1  1  0  0  0
 22 29  1  0  0  0  0
 24  2  1  6  0  0  0
 24 31  1  0  0  0  0
 25 26  1  0  0  0  0
 25 33  1  1  0  0  0
 27 28  1  6  0  0  0
 27 35  1  0  0  0  0
 29 30  1  0  0  0  0
 29 37  1  6  0  0  0
 31 32  1  1  0  0  0
 31 39  1  0  0  0  0
 33 34  1  0  0  0  0
 35 36  1  0  0  0  0
 35 41  1  6  0  0  0
 37 38  1  0  0  0  0
 39 40  1  6  0  0  0
 41 42  1  0  0  0  0
M  END
>  <CHROM.1>
-93.86972909,-70.11867888,88.47815035,-84.11637286,-80.62994752,79.85155018
72.32511869,-68.91462615,175.00957683,-55.17588791,178.63459711,-43.41524216
-91.34770259,-48.24580839,169.75103151,-52.24065637,174.87081834,-76.41490925
-170.77577942,91.96660139,70.96087638,176.60829752,3.83285662,4.47187878
28.93836762,-2.01291650,0.78606312,2.14610837

>  <Name>
1fyp_lig

>  <RI>
0

>  <Rbt.Current_Directory>
/home/itssahil/PROJECTS/Mol_Feturizer/New_Systems/rnas/1fyp

>  <Rbt.Executable>
rbdock ($Id: //depot/dev/client3/rdock/2013.1/src/exe/rbdock.cxx#4 $)

>  <Rbt.Library>
libRbt.so (2013.1, Build901 2013/11/27)

>  <Rbt.Parameter_File>
/export/apps/rDock/src/rDock_2013.1_src/data/scripts/dock_solv.prm

>  <Rbt.Receptor>
prm/pocket_docking_7.prm

>  <SCORE>
-33.7596

>  <SCORE.INTER>
-24.3271

>  <SCORE.INTER.CONST>
1

>  <SCORE.INTER.POLAR>
-3.41672

>  <SCORE.INTER.ROT>
14

>  <SCORE.INTER.SOLV>
15.5387

>  <SCORE.INTER.VDW>
-22.9419

>  <SCORE.INTER.norm>
-0.579217

>  <SCORE.INTRA>
-9.43254

>  <SCORE.INTRA.DIHEDRAL>
-26.2385

>  <SCORE.INTRA.DIHEDRAL.0>
48.7173

>  <SCORE.INTRA.POLAR>
0.226242

>  <SCORE.INTRA.POLAR.0>
-1.54691

>  <SCORE.INTRA.REPUL>
0.0451951

>  <SCORE.INTRA.REPUL.0>
0

>  <SCORE.INTRA.SOLV>
-1.64617

>  <SCORE.INTRA.SOLV.lig_0>
-64.052

>  <SCORE.INTRA.VDW>
3.51457

>  <SCORE.INTRA.VDW.0>
-7.0667

>  <SCORE.INTRA.norm>
-0.224584

>  <SCORE.RESTR>
0

>  <SCORE.RESTR.CAVITY>
0

>  <SCORE.RESTR.norm>
0

>  <SCORE.SYSTEM>
0

>  <SCORE.SYSTEM.CONST>
0

>  <SCORE.SYSTEM.DIHEDRAL>
0

>  <SCORE.SYSTEM.SOLV>
0

>  <SCORE.SYSTEM.norm>
0

>  <SCORE.heavy>
42

>  <SCORE.norm>
-0.803801

>  <RMSD>
8.074

$$$$
1fyp_lig
 OpenBabel11021811393D
libRbt.so/2013.1/901 2013/11/27
 42 45  0  0  0  0  0  0  0  0999 V2000
    0.0801    2.6230   28.1082 C   0  0  2  0  0  0  0  0  0  0  0  0
   -0.0005    2.1144   29.4710 O   0  0  0  0  0  0  0  0  0  0  0  0
   -2.8768   -0.5363   31.1861 C   0  0  2  0  0  0  0  0  0  0  0  0
   -4.0468   -1.1609   31.8306 N   0  0  0  0  0  0  0  0  0  0  0  0
   -2.7843    0.6112   26.7312 C   0  0  1  0  0  0  0  0  0  0  0  0
   -3.0450   -1.2775   23.1679 C   0  0  1  0  0  0  0  0  0  0  0  0
    1.2429    1.9468   27.3128 C   0  0  2  0  0  0  0  0  0  0  0  0
    1.1766    0.4734   27.4149 N   0  0  0  0  0  0  0  0  0  0  0  0
   -2.3237    0.5781   32.0967 C   0  0  0  0  0  0  0  0  0  0  0  0
   -3.3951    1.5205   25.6616 C   0  0  2  0  0  0  0  0  0  0  0  0
   -4.8197    1.4542   25.7358 O   0  0  0  0  0  0  0  0  0  0  0  0
   -3.0080   -0.8901   21.6580 C   0  0  2  0  0  0  0  0  0  0  0  0
   -4.3175   -0.4016   21.1612 N   0  0  0  0  0  0  0  0  0  0  0  0
    2.6299    2.4621   27.8097 C   0  0  1  0  0  0  0  0  0  0  0  0
    3.6693    1.9603   26.9734 O   0  0  0  0  0  0  0  0  0  0  0  0
   -1.0689    1.2638   31.4905 C   0  0  2  0  0  0  0  0  0  0  0  0
   -0.6717    2.3610   32.3972 N   0  0  0  0  0  0  0  0  0  0  0  0
   -2.8751    0.8803   24.3716 C   0  0  2  0  0  0  0  0  0  0  0  0
   -3.6939   -0.2503   23.9619 O   0  0  0  0  0  0  0  0  0  0  0  0
   -2.4795   -2.0756   20.7930 C   0  0  1  0  0  0  0  0  0  0  0  0
   -1.0750   -2.2013   21.0058 O   0  0  0  0  0  0  0  0  0  0  0  0
    2.7028    4.0097   27.8114 C   0  0  2  0  0  0  0  0  0  0  0  0
    3.9526    4.4158   28.3606 O   0  0  0  0  0  0  0  0  0  0  0  0
   -1.3057    1.7854   30.0276 C   0  0  2  0  0  0  0  0  0  0  0  0
   -1.4744    0.4097   24.7877 C   0  0  2  0  0  0  0  0  0  0  0  0
   -1.5689    0.0737   26.1856 O   0  0  0  0  0  0  0  0  0  0  0  0
   -3.1465   -3.4468   21.1169 C   0  0  2  0  0  0  0  0  0  0  0  0
   -4.4779   -3.4377   20.5993 O   0  0  0  0  0  0  0  0  0  0  0  0
    1.5244    4.6051   28.6331 C   0  0  2  0  0  0  0  0  0  0  0  0
    0.2658    4.0785   28.1150 O   0  0  0  0  0  0  0  0  0  0  0  0
   -2.0114    0.7251   29.1069 C   0  0  2  0  0  0  0  0  0  0  0  0
   -2.4811    1.4047   27.9136 O   0  0  0  0  0  0  0  0  0  0  0  0
   -0.3900    1.4805   24.5730 C   0  0  0  0  0  0  0  0  0  0  0  0
    0.8733    0.8810   24.3441 O   0  0  0  0  0  0  0  0  0  0  0  0
   -3.1685   -3.7022   22.6560 C   0  0  1  0  0  0  0  0  0  0  0  0
   -3.7558   -2.5510   23.3359 O   0  0  0  0  0  0  0  0  0  0  0  0
    1.4127    6.1454   28.5843 C   0  0  0  0  0  0  0  0  0  0  0  0
    1.4243    6.6205   27.2488 O   0  0  0  0  0  0  0  0  0  0  0  0
   -3.2328    0.0391   29.7941 C   0  0  1  0  0  0  0  0  0  0  0  0
   -3.6975   -1.0178   28.9558 O   0  0  0  0  0  0  0  0  0  0  0  0
   -3.9644   -4.9761   23.0394 C   0  0  0  0  0  0  0  0  0  0  0  0
   -3.7941   -5.3410   24.4575 N   0  0  0  0  0  0  0  0  0  0  0  0
  1  2  1  1  0  0  0
  1  7  1  0  0  0  0
  1 30  1  0  0  0  0
  3  4  1  1  0  0  0
  3  9  1  0  0  0  0
  3 39  1  0  0  0  0
  5 10  1  0  0  0  0
  5 26  1  0  0  0  0
  5 32  1  1  0  0  0
  6 12  1  0  0  0  0
  6 36  1  0  0  0  0
  6 19  1  1  0  0  0
  7  8  1  1  0  0  0
  7 14  1  0  0  0  0
  9 16  1  0  0  0  0
 10 11  1  6  0  0  0
 10 18  1  0  0  0  0
 12 13  1  6  0  0  0
 12 20  1  0  0  0  0
 14 15  1  6  0  0  0
 14 22  1  0  0  0  0
 16 17  1  1  0  0  0
 16 24  1  0  0  0  0
 18 19  1  1  0  0  0
 18 25  1  0  0  0  0
 20 21  1  1  0  0  0
 20 27  1  0  0  0  0
 22 23  1  1  0  0  0
 22 29  1  0  0  0  0
 24  2  1  6  0  0  0
 24 31  1  0  0  0  0
 25 26  1  0  0  0  0
 25 33  1  1  0  0  0
 27 28  1  1  0  0  0
 27 35  1  0  0  0  0
 29 30  1  0  0  0  0
 29 37  1  6  0  0  0
 31 32  1  6  0  0  0
 31 39  1  0  0  0  0
 33 34  1  0  0  0  0
 35 36  1  0  0  0  0
 35 41  1  6  0  0  0
 37 38  1  0  0  0  0
 39 40  1  6  0  0  0
 41 42  1  0  0  0  0
M  END
>  <CHROM.1>
-136.05505351,179.76544222,62.40354655,-54.10632524,-80.46246292,-72.09093132
-67.90661143,77.71029495,-153.44508833,-83.17478073,-54.89104262,68.79918202
-152.10707078,70.38282874,51.34598552,160.86257576,174.13710754,94.02776900
170.29489824,-59.74767596,-60.71380281,175.05485942,-1.41598346,0.56100715
26.40364548,-0.95527556,-0.75233385,-1.80626618

>  <Name>
1fyp_lig

>  <RI>
0

>  <Rbt.Current_Directory>
/home/itssahil/PROJECTS/Mol_Feturizer/New_Systems/rnas/1fyp

>  <Rbt.Executable>
rbdock ($Id: //depot/dev/client3/rdock/2013.1/src/exe/rbdock.cxx#4 $)

>  <Rbt.Library>
libRbt.so (2013.1, Build901 2013/11/27)

>  <Rbt.Parameter_File>
/export/apps/rDock/src/rDock_2013.1_src/data/scripts/dock_solv.prm

>  <Rbt.Receptor>
prm/pocket_docking_7.prm

>  <SCORE>
-57.8333

>  <SCORE.INTER>
-47.0306

>  <SCORE.INTER.CONST>
1

>  <SCORE.INTER.POLAR>
-5.09664

>  <SCORE.INTER.ROT>
14

>  <SCORE.INTER.SOLV>
18.1804

>  <SCORE.INTER.VDW>
-33.3585

>  <SCORE.INTER.norm>
-1.11978

>  <SCORE.INTRA>
-10.8026

>  <SCORE.INTRA.DIHEDRAL>
-23.95

>  <SCORE.INTRA.DIHEDRAL.0>
48.7173

>  <SCORE.INTRA.POLAR>
0.00616025

>  <SCORE.INTRA.POLAR.0>
-1.54691

>  <SCORE.INTRA.REPUL>
0

>  <SCORE.INTRA.REPUL.0>
0

>  <SCORE.INTRA.SOLV>
-1.36559

>  <SCORE.INTRA.SOLV.lig_0>
-64.052

>  <SCORE.INTRA.VDW>
1.83421

>  <SCORE.INTRA.VDW.0>
-7.0667

>  <SCORE.INTRA.norm>
-0.257206

>  <SCORE.RESTR>
0

>  <SCORE.RESTR.CAVITY>
0

>  <SCORE.RESTR.norm>
0

>  <SCORE.SYSTEM>
0

>  <SCORE.SYSTEM.CONST>
0

>  <SCORE.SYSTEM.DIHEDRAL>
0

>  <SCORE.SYSTEM.SOLV>
0

>  <SCORE.SYSTEM.norm>
0

>  <SCORE.heavy>
42

>  <SCORE.norm>
-1.37698

>  <RMSD>
8.203

$$$$
1fyp_lig
 OpenBabel11021811393D
libRbt.so/2013.1/901 2013/11/27
 42 45  0  0  0  0  0  0  0  0999 V2000
   11.3724   10.5265   26.8948 C   0  0  2  0  0  0  0  0  0  0  0  0
   12.3278    9.9261   27.8163 O   0  0  0  0  0  0  0  0  0  0  0  0
   12.1292    6.9039   30.8275 C   0  0  2  0  0  0  0  0  0  0  0  0
   11.8832    6.1002   32.0391 N   0  0  0  0  0  0  0  0  0  0  0  0
    8.9565    7.3358   27.6034 C   0  0  1  0  0  0  0  0  0  0  0  0
    5.3575    5.5608   27.1525 C   0  0  1  0  0  0  0  0  0  0  0  0
   12.0946   11.2720   25.7266 C   0  0  2  0  0  0  0  0  0  0  0  0
   13.1071   10.4075   25.0836 N   0  0  0  0  0  0  0  0  0  0  0  0
   12.7813    8.2434   31.2243 C   0  0  0  0  0  0  0  0  0  0  0  0
    7.5061    7.8173   27.5120 C   0  0  2  0  0  0  0  0  0  0  0  0
    6.7761    7.3511   28.6474 O   0  0  0  0  0  0  0  0  0  0  0  0
    4.9568    4.0542   27.1798 C   0  0  2  0  0  0  0  0  0  0  0  0
    5.0962    3.4017   25.8550 N   0  0  0  0  0  0  0  0  0  0  0  0
   12.7536   12.5930   26.2332 C   0  0  1  0  0  0  0  0  0  0  0  0
   13.2693   13.3385   25.1331 O   0  0  0  0  0  0  0  0  0  0  0  0
   13.0946    9.1329   29.9902 C   0  0  2  0  0  0  0  0  0  0  0  0
   13.6377   10.4153   30.4843 N   0  0  0  0  0  0  0  0  0  0  0  0
    7.0297    7.1356   26.2264 C   0  0  2  0  0  0  0  0  0  0  0  0
    6.6200    5.7602   26.4648 O   0  0  0  0  0  0  0  0  0  0  0  0
    3.5177    3.8723   27.7532 C   0  0  1  0  0  0  0  0  0  0  0  0
    3.5585    4.0982   29.1607 O   0  0  0  0  0  0  0  0  0  0  0  0
   11.7443   13.4828   27.0013 C   0  0  2  0  0  0  0  0  0  0  0  0
   12.4265   14.6226   27.5153 O   0  0  0  0  0  0  0  0  0  0  0  0
   11.8437    9.3573   29.0666 C   0  0  2  0  0  0  0  0  0  0  0  0
    8.2910    7.1794   25.3526 C   0  0  2  0  0  0  0  0  0  0  0  0
    9.4054    7.0888   26.2613 O   0  0  0  0  0  0  0  0  0  0  0  0
    2.4598    4.8360   27.1350 C   0  0  2  0  0  0  0  0  0  0  0  0
    2.1705    4.4004   25.8057 O   0  0  0  0  0  0  0  0  0  0  0  0
   11.0809   12.6762   28.1535 C   0  0  2  0  0  0  0  0  0  0  0  0
   10.4907   11.4586   27.6068 O   0  0  0  0  0  0  0  0  0  0  0  0
   11.0603    8.0286   28.7646 C   0  0  2  0  0  0  0  0  0  0  0  0
    9.7685    8.3833   28.2061 O   0  0  0  0  0  0  0  0  0  0  0  0
    8.3975    8.4637   24.5112 C   0  0  0  0  0  0  0  0  0  0  0  0
    9.2628    9.4011   25.1278 O   0  0  0  0  0  0  0  0  0  0  0  0
    2.9902    6.3032   27.1178 C   0  0  1  0  0  0  0  0  0  0  0  0
    4.3069    6.3414   26.4875 O   0  0  0  0  0  0  0  0  0  0  0  0
    9.9499   13.4200   28.8984 C   0  0  0  0  0  0  0  0  0  0  0  0
    9.2278   12.5427   29.7460 O   0  0  0  0  0  0  0  0  0  0  0  0
   10.8225    7.1593   30.0383 C   0  0  1  0  0  0  0  0  0  0  0  0
   10.2629    5.9080   29.6423 O   0  0  0  0  0  0  0  0  0  0  0  0
    2.0420    7.2731   26.3673 C   0  0  0  0  0  0  0  0  0  0  0  0
    2.0891    7.0881   24.9056 N   0  0  0  0  0  0  0  0  0  0  0  0
  1  2  1  1  0  0  0
  1  7  1  0  0  0  0
  1 30  1  0  0  0  0
  3  4  1  1  0  0  0
  3  9  1  0  0  0  0
  3 39  1  0  0  0  0
  5 10  1  0  0  0  0
  5 26  1  0  0  0  0
  5 32  1  6  0  0  0
  6 12  1  0  0  0  0
  6 36  1  0  0  0  0
  6 19  1  6  0  0  0
  7  8  1  1  0  0  0
  7 14  1  0  0  0  0
  9 16  1  0  0  0  0
 10 11  1  1  0  0  0
 10 18  1  0  0  0  0
 12 13  1  6  0  0  0
 12 20  1  0  0  0  0
 14 15  1  6  0  0  0
 14 22  1  0  0  0  0
 16 17  1  1  0  0  0
 16 24  1  0  0  0  0
 18 19  1  1  0  0  0
 18 25  1  0  0  0  0
 20 21  1  1  0  0  0
 20 27  1  0  0  0  0
 22 23  1  1  0  0  0
 22 29  1  0  0  0  0
 24  2  1  6  0  0  0
 24 31  1  0  0  0  0
 25 26  1  0  0  0  0
 25 33  1  1  0  0  0
 27 28  1  6  0  0  0
 27 35  1  0  0  0  0
 29 30  1  0  0  0  0
 29 37  1  6  0  0  0
 31 32  1  1  0  0  0
 31 39  1  0  0  0  0
 33 34  1  0  0  0  0
 35 36  1  0  0  0  0
 35 41  1  6  0  0  0
 37 38  1  0  0  0  0
 39 40  1  6  0  0  0
 41 42  1  0  0  0  0
M  END
>  <CHROM.1>
171.20738977,-165.73733396,84.44739800,-57.17983007,170.77655260,84.80461945
-170.54186628,63.16484041,73.59353665,172.78193814,63.98401785,73.01425322
98.91787341,145.25988424,168.56916293,168.29067736,161.47782914,66.31131139
-73.39854810,-46.31481865,66.37421919,-177.46879075,8.74719106,8.35790146
27.57772450,0.40611736,-0.50892603,-0.65327221

>  <Name>
1fyp_lig

>  <RI>
0

>  <Rbt.Current_Directory>
/home/itssahil/PROJECTS/Mol_Feturizer/New_Systems/rnas/1fyp

>  <Rbt.Executable>
rbdock ($Id: //depot/dev/client3/rdock/2013.1/src/exe/rbdock.cxx#4 $)

>  <Rbt.Library>
libRbt.so (2013.1, Build901 2013/11/27)

>  <Rbt.Parameter_File>
/export/apps/rDock/src/rDock_2013.1_src/data/scripts/dock_solv.prm

>  <Rbt.Receptor>
prm/pocket_docking_8.prm

>  <SCORE>
-37.4675

>  <SCORE.INTER>
-28.6334

>  <SCORE.INTER.CONST>
1

>  <SCORE.INTER.POLAR>
-4.71261

>  <SCORE.INTER.ROT>
14

>  <SCORE.INTER.SOLV>
9.43517

>  <SCORE.INTER.VDW>
-19.4586

>  <SCORE.INTER.norm>
-0.681747

>  <SCORE.INTRA>
-8.85678

>  <SCORE.INTRA.DIHEDRAL>
-29.5195

>  <SCORE.INTRA.DIHEDRAL.0>
48.7173

>  <SCORE.INTRA.POLAR>
1.21563

>  <SCORE.INTRA.POLAR.0>
-1.54691

>  <SCORE.INTRA.REPUL>
0.00666044

>  <SCORE.INTRA.REPUL.0>
0

>  <SCORE.INTRA.SOLV>
-0.475107

>  <SCORE.INTRA.SOLV.lig_0>
-64.052

>  <SCORE.INTRA.VDW>
1.9741

>  <SCORE.INTRA.VDW.0>
-7.0667

>  <SCORE.INTRA.norm>
-0.210876

>  <SCORE.RESTR>
0.0226023

>  <SCORE.RESTR.CAVITY>
0.0226023

>  <SCORE.RESTR.norm>
0.000538149

>  <SCORE.SYSTEM>
0

>  <SCORE.SYSTEM.CONST>
0

>  <SCORE.SYSTEM.DIHEDRAL>
0

>  <SCORE.SYSTEM.SOLV>
0

>  <SCORE.SYSTEM.norm>
0

>  <SCORE.heavy>
42

>  <SCORE.norm>
-0.892084

>  <RMSD>
8.278

$$$$
1fyp_lig
 OpenBabel11021811393D
libRbt.so/2013.1/901 2013/11/27
 42 45  0  0  0  0  0  0  0  0999 V2000
    2.5473    5.7177   27.8002 C   0  0  2  0  0  0  0  0  0  0  0  0
    3.8566    6.2317   27.4209 O   0  0  0  0  0  0  0  0  0  0  0  0
    4.6891    7.5408   23.4417 C   0  0  2  0  0  0  0  0  0  0  0  0
    4.8285    8.2841   22.1758 N   0  0  0  0  0  0  0  0  0  0  0  0
    6.5903    7.4022   28.1263 C   0  0  1  0  0  0  0  0  0  0  0  0
    7.4506    6.1819   31.2024 C   0  0  1  0  0  0  0  0  0  0  0  0
    2.5418    5.1965   29.2735 C   0  0  2  0  0  0  0  0  0  0  0  0
    3.0974    6.2048   30.2011 N   0  0  0  0  0  0  0  0  0  0  0  0
    3.2143    7.5638   23.8904 C   0  0  0  0  0  0  0  0  0  0  0  0
    7.6439    6.3587   27.7458 C   0  0  2  0  0  0  0  0  0  0  0  0
    7.0136    5.0913   27.5565 O   0  0  0  0  0  0  0  0  0  0  0  0
    8.5778    6.6919   32.1514 C   0  0  2  0  0  0  0  0  0  0  0  0
    9.6126    5.6622   32.4145 N   0  0  0  0  0  0  0  0  0  0  0  0
    3.3338    3.8568   29.3924 C   0  0  1  0  0  0  0  0  0  0  0  0
    3.1869    3.3134   30.7019 O   0  0  0  0  0  0  0  0  0  0  0  0
    2.9884    6.7735   25.2082 C   0  0  2  0  0  0  0  0  0  0  0  0
    1.5688    6.9266   25.5888 N   0  0  0  0  0  0  0  0  0  0  0  0
    8.5421    6.3534   28.9858 C   0  0  2  0  0  0  0  0  0  0  0  0
    8.0015    5.5092   30.0402 O   0  0  0  0  0  0  0  0  0  0  0  0
    7.9772    7.2451   33.4804 C   0  0  1  0  0  0  0  0  0  0  0  0
    7.3555    8.4996   33.2094 O   0  0  0  0  0  0  0  0  0  0  0  0
    2.8450    2.8053   28.3649 C   0  0  2  0  0  0  0  0  0  0  0  0
    3.6654    1.6449   28.4610 O   0  0  0  0  0  0  0  0  0  0  0  0
    3.9458    7.2323   26.3663 C   0  0  2  0  0  0  0  0  0  0  0  0
    8.5156    7.8288   29.4087 C   0  0  2  0  0  0  0  0  0  0  0  0
    7.2169    8.3255   29.0312 O   0  0  0  0  0  0  0  0  0  0  0  0
    6.9193    6.3086   34.1390 C   0  0  2  0  0  0  0  0  0  0  0  0
    7.5972    5.1889   34.7109 O   0  0  0  0  0  0  0  0  0  0  0  0
    2.8941    3.3927   26.9258 C   0  0  2  0  0  0  0  0  0  0  0  0
    2.1375    4.6402   26.8924 O   0  0  0  0  0  0  0  0  0  0  0  0
    5.4419    7.3697   25.9049 C   0  0  2  0  0  0  0  0  0  0  0  0
    6.1633    8.1069   26.9259 O   0  0  0  0  0  0  0  0  0  0  0  0
    9.6182    8.6680   28.7390 C   0  0  0  0  0  0  0  0  0  0  0  0
    9.7553    9.9247   29.3788 O   0  0  0  0  0  0  0  0  0  0  0  0
    5.8747    5.8255   33.0855 C   0  0  1  0  0  0  0  0  0  0  0  0
    6.5679    5.2620   31.9303 O   0  0  0  0  0  0  0  0  0  0  0  0
    2.2929    2.4815   25.8325 C   0  0  0  0  0  0  0  0  0  0  0  0
    1.8579    3.2368   24.7146 O   0  0  0  0  0  0  0  0  0  0  0  0
    5.5938    8.1298   24.5508 C   0  0  1  0  0  0  0  0  0  0  0  0
    6.9559    8.0549   24.1325 O   0  0  0  0  0  0  0  0  0  0  0  0
    4.8971    4.7658   33.6550 C   0  0  0  0  0  0  0  0  0  0  0  0
    3.5588    4.8472   33.0423 N   0  0  0  0  0  0  0  0  0  0  0  0
  1  2  1  6  0  0  0
  1  7  1  0  0  0  0
  1 30  1  0  0  0  0
  3  4  1  6  0  0  0
  3  9  1  0  0  0  0
  3 39  1  0  0  0  0
  5 10  1  0  0  0  0
  5 26  1  0  0  0  0
  5 32  1  6  0  0  0
  6 12  1  0  0  0  0
  6 36  1  0  0  0  0
  6 19  1  6  0  0  0
  7  8  1  1  0  0  0
  7 14  1  0  0  0  0
  9 16  1  0  0  0  0
 10 11  1  1  0  0  0
 10 18  1  0  0  0  0
 12 13  1  1  0  0  0
 12 20  1  0  0  0  0
 14 15  1  1  0  0  0
 14 22  1  0  0  0  0
 16 17  1  1  0  0  0
 16 24  1  0  0  0  0
 18 19  1  1  0  0  0
 18 25  1  0  0  0  0
 20 21  1  6  0  0  0
 20 27  1  0  0  0  0
 22 23  1  6  0  0  0
 22 29  1  0  0  0  0
 24  2  1  1  0  0  0
 24 31  1  0  0  0  0
 25 26  1  0  0  0  0
 25 33  1  6  0  0  0
 27 28  1  6  0  0  0
 27 35  1  0  0  0  0
 29 30  1  0  0  0  0
 29 37  1  6  0  0  0
 31 32  1  1  0  0  0
 31 39  1  0  0  0  0
 33 34  1  0  0  0  0
 35 36  1  0  0  0  0
 35 41  1  1  0  0  0
 37 38  1  0  0  0  0
 39 40  1  6  0  0  0
 41 42  1  0  0  0  0
M  END
>  <CHROM.1>
-154.48631290,-43.81073371,-69.09553141,62.13963597,68.61795944,179.44051002
-61.67353451,-118.93325459,-108.02900148,-77.32852901,62.55356295,-56.40405308
-166.42019474,67.18317279,155.39585111,79.32228680,66.10902834,65.98188331
148.11722516,-62.03701990,53.56911467,-66.53924486,5.45165841,6.10315753
28.73741783,2.20883648,-0.64341723,-1.20508060

>  <Name>
1fyp_lig

>  <RI>
0

>  <Rbt.Current_Directory>
/home/itssahil/PROJECTS/Mol_Feturizer/New_Systems/rnas/1fyp

>  <Rbt.Executable>
rbdock ($Id: //depot/dev/client3/rdock/2013.1/src/exe/rbdock.cxx#4 $)

>  <Rbt.Library>
libRbt.so (2013.1, Build901 2013/11/27)

>  <Rbt.Parameter_File>
/export/apps/rDock/src/rDock_2013.1_src/data/scripts/dock_solv.prm

>  <Rbt.Receptor>
prm/pocket_docking_5.prm

>  <SCORE>
-34.9149

>  <SCORE.INTER>
-27.14

>  <SCORE.INTER.CONST>
1

>  <SCORE.INTER.POLAR>
-4.00985

>  <SCORE.INTER.ROT>
14

>  <SCORE.INTER.SOLV>
11.7008

>  <SCORE.INTER.VDW>
-21.5608

>  <SCORE.INTER.norm>
-0.646191

>  <SCORE.INTRA>
-7.78001

>  <SCORE.INTRA.DIHEDRAL>
-25.4597

>  <SCORE.INTRA.DIHEDRAL.0>
48.7173

>  <SCORE.INTRA.POLAR>
-0.58544

>  <SCORE.INTRA.POLAR.0>
-1.54691

>  <SCORE.INTRA.REPUL>
0.00645627

>  <SCORE.INTRA.REPUL.0>
0

>  <SCORE.INTRA.SOLV>
-0.309539

>  <SCORE.INTRA.SOLV.lig_0>
-64.052

>  <SCORE.INTRA.VDW>
7.0628

>  <SCORE.INTRA.VDW.0>
-7.0667

>  <SCORE.INTRA.norm>
-0.185238

>  <SCORE.RESTR>
0.00518951

>  <SCORE.RESTR.CAVITY>
0.00518951

>  <SCORE.RESTR.norm>
0.00012356

>  <SCORE.SYSTEM>
0

>  <SCORE.SYSTEM.CONST>
0

>  <SCORE.SYSTEM.DIHEDRAL>
0

>  <SCORE.SYSTEM.SOLV>
0

>  <SCORE.SYSTEM.norm>
0

>  <SCORE.heavy>
42

>  <SCORE.norm>
-0.831306

>  <RMSD>
8.288

$$$$
1fyp_lig
 OpenBabel11021811393D
libRbt.so/2013.1/901 2013/11/27
 42 45  0  0  0  0  0  0  0  0999 V2000
    4.7578    4.4917   30.9488 C   0  0  2  0  0  0  0  0  0  0  0  0
    4.0169    3.2843   30.6089 O   0  0  0  0  0  0  0  0  0  0  0  0
    0.5325    1.9572   28.5259 C   0  0  2  0  0  0  0  0  0  0  0  0
   -0.8209    1.7589   27.9751 N   0  0  0  0  0  0  0  0  0  0  0  0
    3.1247    5.1711   26.8095 C   0  0  1  0  0  0  0  0  0  0  0  0
    4.0477    7.8528   23.8495 C   0  0  1  0  0  0  0  0  0  0  0  0
    6.2730    4.3529   30.5925 C   0  0  2  0  0  0  0  0  0  0  0  0
    6.4564    3.8924   29.1997 N   0  0  0  0  0  0  0  0  0  0  0  0
    0.4624    1.9718   30.0659 C   0  0  0  0  0  0  0  0  0  0  0  0
    4.1553    6.2881   26.6258 C   0  0  2  0  0  0  0  0  0  0  0  0
    3.4898    7.5513   26.5963 O   0  0  0  0  0  0  0  0  0  0  0  0
    2.8191    8.3556   23.0316 C   0  0  2  0  0  0  0  0  0  0  0  0
    2.4729    7.4524   21.9071 N   0  0  0  0  0  0  0  0  0  0  0  0
    6.9905    3.3828   31.5825 C   0  0  1  0  0  0  0  0  0  0  0  0
    8.3960    3.3892   31.3454 O   0  0  0  0  0  0  0  0  0  0  0  0
    1.8615    2.1503   30.7164 C   0  0  2  0  0  0  0  0  0  0  0  0
    1.6721    2.2316   32.1796 N   0  0  0  0  0  0  0  0  0  0  0  0
    4.7525    5.9422   25.2590 C   0  0  2  0  0  0  0  0  0  0  0  0
    3.9295    6.4418   24.1683 O   0  0  0  0  0  0  0  0  0  0  0  0
    3.0418    9.8180   22.5368 C   0  0  1  0  0  0  0  0  0  0  0  0
    2.9183   10.6979   23.6521 O   0  0  0  0  0  0  0  0  0  0  0  0
    6.7383    3.7765   33.0596 C   0  0  2  0  0  0  0  0  0  0  0  0
    7.3387    2.8035   33.9092 O   0  0  0  0  0  0  0  0  0  0  0  0
    2.6341    3.4031   30.1671 C   0  0  2  0  0  0  0  0  0  0  0  0
    4.7432    4.4073   25.2829 C   0  0  2  0  0  0  0  0  0  0  0  0
    3.6018    4.0308   26.0775 O   0  0  0  0  0  0  0  0  0  0  0  0
    4.4322   10.0612   21.8753 C   0  0  2  0  0  0  0  0  0  0  0  0
    4.4372    9.4423   20.5878 O   0  0  0  0  0  0  0  0  0  0  0  0
    5.2119    3.8793   33.3382 C   0  0  2  0  0  0  0  0  0  0  0  0
    4.6109    4.7977   32.3764 O   0  0  0  0  0  0  0  0  0  0  0  0
    2.5960    3.5063   28.5993 C   0  0  2  0  0  0  0  0  0  0  0  0
    3.0292    4.8397   28.2240 O   0  0  0  0  0  0  0  0  0  0  0  0
    6.0268    3.8058   25.8822 C   0  0  0  0  0  0  0  0  0  0  0  0
    6.6694    4.7359   26.7365 O   0  0  0  0  0  0  0  0  0  0  0  0
    5.5764    9.4748   22.7593 C   0  0  1  0  0  0  0  0  0  0  0  0
    5.2799    8.0826   23.0853 O   0  0  0  0  0  0  0  0  0  0  0  0
    4.8430    4.4064   34.7429 C   0  0  0  0  0  0  0  0  0  0  0  0
    5.3355    5.7201   34.9457 O   0  0  0  0  0  0  0  0  0  0  0  0
    1.1718    3.2682   28.0081 C   0  0  1  0  0  0  0  0  0  0  0  0
    1.2687    3.2116   26.5857 O   0  0  0  0  0  0  0  0  0  0  0  0
    6.9627    9.5484   22.0694 C   0  0  0  0  0  0  0  0  0  0  0  0
    6.9134   10.2634   20.7812 N   0  0  0  0  0  0  0  0  0  0  0  0
  1  2  1  1  0  0  0
  1  7  1  0  0  0  0
  1 30  1  0  0  0  0
  3  4  1  6  0  0  0
  3  9  1  0  0  0  0
  3 39  1  0  0  0  0
  5 10  1  0  0  0  0
  5 26  1  0  0  0  0
  5 32  1  1  0  0  0
  6 12  1  0  0  0  0
  6 36  1  0  0  0  0
  6 19  1  6  0  0  0
  7  8  1  6  0  0  0
  7 14  1  0  0  0  0
  9 16  1  0  0  0  0
 10 11  1  6  0  0  0
 10 18  1  0  0  0  0
 12 13  1  6  0  0  0
 12 20  1  0  0  0  0
 14 15  1  6  0  0  0
 14 22  1  0  0  0  0
 16 17  1  1  0  0  0
 16 24  1  0  0  0  0
 18 19  1  6  0  0  0
 18 25  1  0  0  0  0
 20 21  1  1  0  0  0
 20 27  1  0  0  0  0
 22 23  1  1  0  0  0
 22 29  1  0  0  0  0
 24  2  1  6  0  0  0
 24 31  1  0  0  0  0
 25 26  1  0  0  0  0
 25 33  1  1  0  0  0
 27 28  1  6  0  0  0
 27 35  1  0  0  0  0
 29 30  1  0  0  0  0
 29 37  1  1  0  0  0
 31 32  1  1  0  0  0
 31 39  1  0  0  0  0
 33 34  1  0  0  0  0
 35 36  1  0  0  0  0
 35 41  1  6  0  0  0
 37 38  1  0  0  0  0
 39 40  1  6  0  0  0
 41 42  1  0  0  0  0
M  END
>  <CHROM.1>
-146.81871897,-145.21951078,-42.40010770,-41.06942746,-57.10767199,-37.52384401
-51.91744317,74.41579763,78.88292654,-160.92128717,-169.04839935,-44.47394070
23.32699884,-44.03603119,61.25224882,177.90786997,-154.03730491,-173.33073392
5.06525415,-60.37618622,-58.78614379,71.11547021,4.18274485,5.38947636,27.54834691
-1.56515113,-0.47690323,-1.05202950

>  <Name>
1fyp_lig

>  <RI>
0

>  <Rbt.Current_Directory>
/home/itssahil/PROJECTS/Mol_Feturizer/New_Systems/rnas/1fyp

>  <Rbt.Executable>
rbdock ($Id: //depot/dev/client3/rdock/2013.1/src/exe/rbdock.cxx#4 $)

>  <Rbt.Library>
libRbt.so (2013.1, Build901 2013/11/27)

>  <Rbt.Parameter_File>
/export/apps/rDock/src/rDock_2013.1_src/data/scripts/dock_solv.prm

>  <Rbt.Receptor>
prm/pocket_docking_8.prm

>  <SCORE>
-42.0576

>  <SCORE.INTER>
-39.5754

>  <SCORE.INTER.CONST>
1

>  <SCORE.INTER.POLAR>
-5.35552

>  <SCORE.INTER.ROT>
14

>  <SCORE.INTER.SOLV>
15.6849

>  <SCORE.INTER.VDW>
-26.6934

>  <SCORE.INTER.norm>
-0.942271

>  <SCORE.INTRA>
-2.48223

>  <SCORE.INTRA.DIHEDRAL>
-19.1928

>  <SCORE.INTRA.DIHEDRAL.0>
48.7173

>  <SCORE.INTRA.POLAR>
-0.0465006

>  <SCORE.INTRA.POLAR.0>
-1.54691

>  <SCORE.INTRA.REPUL>
0

>  <SCORE.INTRA.REPUL.0>
0

>  <SCORE.INTRA.SOLV>
0.795702

>  <SCORE.INTRA.SOLV.lig_0>
-64.052

>  <SCORE.INTRA.VDW>
6.87444

>  <SCORE.INTRA.VDW.0>
-7.0667

>  <SCORE.INTRA.norm>
-0.0591008

>  <SCORE.RESTR>
0

>  <SCORE.RESTR.CAVITY>
0

>  <SCORE.RESTR.norm>
0

>  <SCORE.SYSTEM>
0

>  <SCORE.SYSTEM.CONST>
0

>  <SCORE.SYSTEM.DIHEDRAL>
0

>  <SCORE.SYSTEM.SOLV>
0

>  <SCORE.SYSTEM.norm>
0

>  <SCORE.heavy>
42

>  <SCORE.norm>
-1.00137

>  <RMSD>
8.310

$$$$
1fyp_lig
 OpenBabel11021811393D
libRbt.so/2013.1/901 2013/11/27
 42 45  0  0  0  0  0  0  0  0999 V2000
    4.9921    3.9848   28.5727 C   0  0  2  0  0  0  0  0  0  0  0  0
    4.5678    2.5915   28.5401 O   0  0  0  0  0  0  0  0  0  0  0  0
    1.5591    0.4994   26.3466 C   0  0  2  0  0  0  0  0  0  0  0  0
    0.3081   -0.0715   25.8141 N   0  0  0  0  0  0  0  0  0  0  0  0
    3.4016    4.7563   25.4046 C   0  0  1  0  0  0  0  0  0  0  0  0
    4.5210    8.2395   23.2225 C   0  0  1  0  0  0  0  0  0  0  0  0
    5.7639    4.3175   29.8902 C   0  0  2  0  0  0  0  0  0  0  0  0
    6.8454    3.3408   30.1394 N   0  0  0  0  0  0  0  0  0  0  0  0
    1.6571    0.2016   27.8561 C   0  0  0  0  0  0  0  0  0  0  0  0
    3.7366    6.2070   25.7611 C   0  0  2  0  0  0  0  0  0  0  0  0
    2.6500    7.0538   25.3849 O   0  0  0  0  0  0  0  0  0  0  0  0
    3.0878    8.6340   22.7518 C   0  0  2  0  0  0  0  0  0  0  0  0
    2.5453    7.7041   21.7313 N   0  0  0  0  0  0  0  0  0  0  0  0
    4.7890    4.3683   31.1080 C   0  0  1  0  0  0  0  0  0  0  0  0
    5.4765    4.8269   32.2693 O   0  0  0  0  0  0  0  0  0  0  0  0
    2.9683    0.7526   28.4800 C   0  0  2  0  0  0  0  0  0  0  0  0
    2.9235    0.4867   29.9329 N   0  0  0  0  0  0  0  0  0  0  0  0
    4.9704    6.4665   24.8924 C   0  0  2  0  0  0  0  0  0  0  0  0
    4.6059    6.8236   23.5300 O   0  0  0  0  0  0  0  0  0  0  0  0
    3.0548   10.1101   22.2488 C   0  0  1  0  0  0  0  0  0  0  0  0
    3.1442   10.9762   23.3782 O   0  0  0  0  0  0  0  0  0  0  0  0
    3.5860    5.3084   30.8443 C   0  0  2  0  0  0  0  0  0  0  0  0
    2.6904    5.2388   31.9496 O   0  0  0  0  0  0  0  0  0  0  0  0
    3.1908    2.2792   28.1826 C   0  0  2  0  0  0  0  0  0  0  0  0
    5.6776    5.1044   24.9225 C   0  0  2  0  0  0  0  0  0  0  0  0
    4.6325    4.1182   25.0284 O   0  0  0  0  0  0  0  0  0  0  0  0
    4.2073   10.4727   21.2637 C   0  0  2  0  0  0  0  0  0  0  0  0
    3.9382    9.8565   20.0033 O   0  0  0  0  0  0  0  0  0  0  0  0
    2.8633    4.9047   29.5279 C   0  0  2  0  0  0  0  0  0  0  0  0
    3.8342    4.8760   28.4387 O   0  0  0  0  0  0  0  0  0  0  0  0
    2.9480    2.6502   26.6748 C   0  0  2  0  0  0  0  0  0  0  0  0
    2.8455    4.0946   26.5762 O   0  0  0  0  0  0  0  0  0  0  0  0
    6.6610    4.9614   26.0977 C   0  0  0  0  0  0  0  0  0  0  0  0
    7.1664    3.6399   26.1754 O   0  0  0  0  0  0  0  0  0  0  0  0
    5.5828    9.9877   21.8179 C   0  0  1  0  0  0  0  0  0  0  0  0
    5.4961    8.5750   22.1776 O   0  0  0  0  0  0  0  0  0  0  0  0
    1.7335    5.8624   29.0881 C   0  0  0  0  0  0  0  0  0  0  0  0
    0.9043    5.2641   28.1064 O   0  0  0  0  0  0  0  0  0  0  0  0
    1.6407    2.0247   26.0969 C   0  0  1  0  0  0  0  0  0  0  0  0
    1.5951    2.2721   24.6924 O   0  0  0  0  0  0  0  0  0  0  0  0
    6.7383   10.1809   20.8027 C   0  0  0  0  0  0  0  0  0  0  0  0
    6.4437   11.2267   19.8064 N   0  0  0  0  0  0  0  0  0  0  0  0
  1  2  1  1  0  0  0
  1  7  1  0  0  0  0
  1 30  1  0  0  0  0
  3  4  1  1  0  0  0
  3  9  1  0  0  0  0
  3 39  1  0  0  0  0
  5 10  1  0  0  0  0
  5 26  1  0  0  0  0
  5 32  1  1  0  0  0
  6 12  1  0  0  0  0
  6 36  1  0  0  0  0
  6 19  1  6  0  0  0
  7  8  1  1  0  0  0
  7 14  1  0  0  0  0
  9 16  1  0  0  0  0
 10 11  1  6  0  0  0
 10 18  1  0  0  0  0
 12 13  1  6  0  0  0
 12 20  1  0  0  0  0
 14 15  1  1  0  0  0
 14 22  1  0  0  0  0
 16 17  1  1  0  0  0
 16 24  1  0  0  0  0
 18 19  1  6  0  0  0
 18 25  1  0  0  0  0
 20 21  1  1  0  0  0
 20 27  1  0  0  0  0
 22 23  1  1  0  0  0
 22 29  1  0  0  0  0
 24  2  1  6  0  0  0
 24 31  1  0  0  0  0
 25 26  1  0  0  0  0
 25 33  1  1  0  0  0
 27 28  1  6  0  0  0
 27 35  1  0  0  0  0
 29 30  1  0  0  0  0
 29 37  1  6  0  0  0
 31 32  1  1  0  0  0
 31 39  1  0  0  0  0
 33 34  1  0  0  0  0
 35 36  1  0  0  0  0
 35 41  1  6  0  0  0
 37 38  1  0  0  0  0
 39 40  1  6  0  0  0
 41 42  1  0  0  0  0
M  END
>  <CHROM.1>
131.74693454,-170.14371224,-51.09705117,-27.65740125,69.69199202,-34.29438813
-148.45403704,70.19277123,94.88831817,-119.60224619,-167.81999842,-163.84265394
173.04325839,-58.62316030,-164.59486441,143.59436174,-155.57163697,-168.53241536
23.11539710,-45.34074023,62.72085645,175.68401018,3.84888103,5.37104498,26.08075355
-1.79665134,-0.96151795,-1.01366265

>  <Name>
1fyp_lig

>  <RI>
0

>  <Rbt.Current_Directory>
/home/itssahil/PROJECTS/Mol_Feturizer/New_Systems/rnas/1fyp

>  <Rbt.Executable>
rbdock ($Id: //depot/dev/client3/rdock/2013.1/src/exe/rbdock.cxx#4 $)

>  <Rbt.Library>
libRbt.so (2013.1, Build901 2013/11/27)

>  <Rbt.Parameter_File>
/export/apps/rDock/src/rDock_2013.1_src/data/scripts/dock_solv.prm

>  <Rbt.Receptor>
prm/blind_docking_80.prm

>  <SCORE>
-45.24

>  <SCORE.INTER>
-46.7845

>  <SCORE.INTER.CONST>
1

>  <SCORE.INTER.POLAR>
-7.22178

>  <SCORE.INTER.ROT>
14

>  <SCORE.INTER.SOLV>
23.1535

>  <SCORE.INTER.VDW>
-27.7682

>  <SCORE.INTER.norm>
-1.11392

>  <SCORE.INTRA>
1.27237

>  <SCORE.INTRA.DIHEDRAL>
-7.58073

>  <SCORE.INTRA.DIHEDRAL.0>
48.7173

>  <SCORE.INTRA.POLAR>
0.321971

>  <SCORE.INTRA.POLAR.0>
-1.54691

>  <SCORE.INTRA.REPUL>
0.0121905

>  <SCORE.INTRA.REPUL.0>
0

>  <SCORE.INTRA.SOLV>
0.466306

>  <SCORE.INTRA.SOLV.lig_0>
-64.052

>  <SCORE.INTRA.VDW>
3.67393

>  <SCORE.INTRA.VDW.0>
-7.0667

>  <SCORE.INTRA.norm>
0.0302944

>  <SCORE.RESTR>
0.272124

>  <SCORE.RESTR.CAVITY>
0.272124

>  <SCORE.RESTR.norm>
0.00647914

>  <SCORE.SYSTEM>
0

>  <SCORE.SYSTEM.CONST>
0

>  <SCORE.SYSTEM.DIHEDRAL>
0

>  <SCORE.SYSTEM.SOLV>
0

>  <SCORE.SYSTEM.norm>
0

>  <SCORE.heavy>
42

>  <SCORE.norm>
-1.07714

>  <RMSD>
8.370

$$$$
1fyp_lig
 OpenBabel11021811393D
libRbt.so/2013.1/901 2013/11/27
 42 45  0  0  0  0  0  0  0  0999 V2000
    1.7319    1.5444   29.2490 C   0  0  2  0  0  0  0  0  0  0  0  0
    0.9342    2.5210   28.5193 O   0  0  0  0  0  0  0  0  0  0  0  0
   -0.0589   -0.1935   25.3750 C   0  0  2  0  0  0  0  0  0  0  0  0
   -0.6774   -0.9273   24.2554 N   0  0  0  0  0  0  0  0  0  0  0  0
    2.7174    3.8538   25.7056 C   0  0  1  0  0  0  0  0  0  0  0  0
    5.8283    6.6312   24.6340 C   0  0  1  0  0  0  0  0  0  0  0  0
    1.5241    1.6741   30.7924 C   0  0  2  0  0  0  0  0  0  0  0  0
    0.0876    1.6769   31.1417 N   0  0  0  0  0  0  0  0  0  0  0  0
   -1.0825   -0.0443   26.5182 C   0  0  0  0  0  0  0  0  0  0  0  0
    2.7547    5.2649   25.1130 C   0  0  2  0  0  0  0  0  0  0  0  0
    3.1249    5.1942   23.7355 O   0  0  0  0  0  0  0  0  0  0  0  0
    6.4019    7.7817   25.5164 C   0  0  2  0  0  0  0  0  0  0  0  0
    5.4297    8.2663   26.5264 N   0  0  0  0  0  0  0  0  0  0  0  0
    2.2173    2.9605   31.3407 C   0  0  1  0  0  0  0  0  0  0  0  0
    2.1563    2.9830   32.7646 O   0  0  0  0  0  0  0  0  0  0  0  0
   -0.4881    0.6982   27.7462 C   0  0  2  0  0  0  0  0  0  0  0  0
   -1.5673    0.8578   28.7430 N   0  0  0  0  0  0  0  0  0  0  0  0
    3.8518    5.9278   25.9503 C   0  0  2  0  0  0  0  0  0  0  0  0
    5.1797    5.6164   25.4440 O   0  0  0  0  0  0  0  0  0  0  0  0
    6.9295    8.9516   24.6298 C   0  0  1  0  0  0  0  0  0  0  0  0
    8.1480    8.5399   24.0139 O   0  0  0  0  0  0  0  0  0  0  0  0
    3.7032    3.0427   30.9098 C   0  0  2  0  0  0  0  0  0  0  0  0
    4.2504    4.2781   31.3604 O   0  0  0  0  0  0  0  0  0  0  0  0
    0.1548    2.0815   27.3700 C   0  0  2  0  0  0  0  0  0  0  0  0
    3.6359    5.2875   27.3286 C   0  0  2  0  0  0  0  0  0  0  0  0
    3.1404    3.9587   27.0745 O   0  0  0  0  0  0  0  0  0  0  0  0
    5.9420    9.3957   23.5084 C   0  0  2  0  0  0  0  0  0  0  0  0
    4.8625   10.1113   24.1112 O   0  0  0  0  0  0  0  0  0  0  0  0
    3.8251    2.9213   29.3643 C   0  0  2  0  0  0  0  0  0  0  0  0
    3.1546    1.7014   28.9260 O   0  0  0  0  0  0  0  0  0  0  0  0
    1.0891    1.9989   26.1089 C   0  0  2  0  0  0  0  0  0  0  0  0
    1.3519    3.3514   25.6525 O   0  0  0  0  0  0  0  0  0  0  0  0
    2.6384    6.0654   28.2053 C   0  0  0  0  0  0  0  0  0  0  0  0
    2.3448    5.3501   29.3926 O   0  0  0  0  0  0  0  0  0  0  0  0
    5.3990    8.1593   22.7269 C   0  0  1  0  0  0  0  0  0  0  0  0
    4.8669    7.1785   23.6690 O   0  0  0  0  0  0  0  0  0  0  0  0
    5.2734    2.8456   28.8318 C   0  0  0  0  0  0  0  0  0  0  0  0
    6.0725    3.8892   29.3628 O   0  0  0  0  0  0  0  0  0  0  0  0
    0.4521    1.1983   24.9308 C   0  0  1  0  0  0  0  0  0  0  0  0
    1.4310    1.0323   23.9062 O   0  0  0  0  0  0  0  0  0  0  0  0
    4.2920    8.5345   21.7085 C   0  0  0  0  0  0  0  0  0  0  0  0
    4.7690    9.4764   20.6798 N   0  0  0  0  0  0  0  0  0  0  0  0
  1  2  1  6  0  0  0
  1  7  1  0  0  0  0
  1 30  1  0  0  0  0
  3  4  1  6  0  0  0
  3  9  1  0  0  0  0
  3 39  1  0  0  0  0
  5 10  1  0  0  0  0
  5 26  1  0  0  0  0
  5 32  1  1  0  0  0
  6 12  1  0  0  0  0
  6 36  1  0  0  0  0
  6 19  1  1  0  0  0
  7  8  1  6  0  0  0
  7 14  1  0  0  0  0
  9 16  1  0  0  0  0
 10 11  1  6  0  0  0
 10 18  1  0  0  0  0
 12 13  1  1  0  0  0
 12 20  1  0  0  0  0
 14 15  1  1  0  0  0
 14 22  1  0  0  0  0
 16 17  1  1  0  0  0
 16 24  1  0  0  0  0
 18 19  1  6  0  0  0
 18 25  1  0  0  0  0
 20 21  1  6  0  0  0
 20 27  1  0  0  0  0
 22 23  1  6  0  0  0
 22 29  1  0  0  0  0
 24  2  1  1  0  0  0
 24 31  1  0  0  0  0
 25 26  1  0  0  0  0
 25 33  1  1  0  0  0
 27 28  1  1  0  0  0
 27 35  1  0  0  0  0
 29 30  1  0  0  0  0
 29 37  1  1  0  0  0
 31 32  1  6  0  0  0
 31 39  1  0  0  0  0
 33 34  1  0  0  0  0
 35 36  1  0  0  0  0
 35 41  1  6  0  0  0
 37 38  1  0  0  0  0
 39 40  1  6  0  0  0
 41 42  1  0  0  0  0
M  END
>  <CHROM.1>
-133.05427171,41.03815440,-56.08452077,32.03931052,-167.80002014,131.95236971
57.92909113,-30.19179755,100.43033464,77.19694748,61.53492269,64.87138294
172.61306357,173.62513877,-50.48250031,115.64236097,177.25627245,-168.76578780
60.73366176,-173.11309732,-51.29263284,-64.79789194,3.05569393,4.34880864
26.74709974,-2.38708222,-0.84247762,-1.29918484

>  <Name>
1fyp_lig

>  <RI>
0

>  <Rbt.Current_Directory>
/home/itssahil/PROJECTS/Mol_Feturizer/New_Systems/rnas/1fyp

>  <Rbt.Executable>
rbdock ($Id: //depot/dev/client3/rdock/2013.1/src/exe/rbdock.cxx#4 $)

>  <Rbt.Library>
libRbt.so (2013.1, Build901 2013/11/27)

>  <Rbt.Parameter_File>
/export/apps/rDock/src/rDock_2013.1_src/data/scripts/dock_solv.prm

>  <Rbt.Receptor>
prm/blind_docking_60.prm

>  <SCORE>
-26.3744

>  <SCORE.INTER>
-19.7828

>  <SCORE.INTER.CONST>
1

>  <SCORE.INTER.POLAR>
-3.31304

>  <SCORE.INTER.ROT>
14

>  <SCORE.INTER.SOLV>
16.0674

>  <SCORE.INTER.VDW>
-20.4342

>  <SCORE.INTER.norm>
-0.471019

>  <SCORE.INTRA>
-6.9536

>  <SCORE.INTRA.DIHEDRAL>
-19.1765

>  <SCORE.INTRA.DIHEDRAL.0>
48.7173

>  <SCORE.INTRA.POLAR>
-0.280104

>  <SCORE.INTRA.POLAR.0>
-1.54691

>  <SCORE.INTRA.REPUL>
0

>  <SCORE.INTRA.REPUL.0>
0

>  <SCORE.INTRA.SOLV>
2.59238

>  <SCORE.INTRA.SOLV.lig_0>
-64.052

>  <SCORE.INTRA.VDW>
2.29082

>  <SCORE.INTRA.VDW.0>
-7.0667

>  <SCORE.INTRA.norm>
-0.165562

>  <SCORE.RESTR>
0.361941

>  <SCORE.RESTR.CAVITY>
0.361941

>  <SCORE.RESTR.norm>
0.00861764

>  <SCORE.SYSTEM>
0

>  <SCORE.SYSTEM.CONST>
0

>  <SCORE.SYSTEM.DIHEDRAL>
0

>  <SCORE.SYSTEM.SOLV>
0

>  <SCORE.SYSTEM.norm>
0

>  <SCORE.heavy>
42

>  <SCORE.norm>
-0.627963

>  <RMSD>
8.386

$$$$
1fyp_lig
 OpenBabel11021811393D
libRbt.so/2013.1/901 2013/11/27
 42 45  0  0  0  0  0  0  0  0999 V2000
    2.1438    2.4504   30.0010 C   0  0  2  0  0  0  0  0  0  0  0  0
    1.2384    3.3857   29.3469 O   0  0  0  0  0  0  0  0  0  0  0  0
   -0.5567    0.3422   26.9479 C   0  0  2  0  0  0  0  0  0  0  0  0
   -1.4275   -0.4758   26.0836 N   0  0  0  0  0  0  0  0  0  0  0  0
    2.6502    4.1574   26.4595 C   0  0  1  0  0  0  0  0  0  0  0  0
    6.1811    6.8257   26.4281 C   0  0  1  0  0  0  0  0  0  0  0  0
    1.9484    2.4540   31.5515 C   0  0  2  0  0  0  0  0  0  0  0  0
    0.5249    2.2845   31.9130 N   0  0  0  0  0  0  0  0  0  0  0  0
   -1.3621    0.8374   28.1657 C   0  0  0  0  0  0  0  0  0  0  0  0
    2.7890    5.3878   25.5591 C   0  0  2  0  0  0  0  0  0  0  0  0
    3.3403    4.9982   24.3005 O   0  0  0  0  0  0  0  0  0  0  0  0
    7.3595    6.7503   25.4098 C   0  0  2  0  0  0  0  0  0  0  0  0
    7.8201    5.3607   25.1707 N   0  0  0  0  0  0  0  0  0  0  0  0
    2.5143    3.7657   32.1802 C   0  0  1  0  0  0  0  0  0  0  0  0
    2.4740    3.6861   33.6028 O   0  0  0  0  0  0  0  0  0  0  0  0
   -0.4968    1.6864   29.1368 C   0  0  2  0  0  0  0  0  0  0  0  0
   -1.3784    2.1744   30.2176 N   0  0  0  0  0  0  0  0  0  0  0  0
    3.7736    6.2491   26.3547 C   0  0  2  0  0  0  0  0  0  0  0  0
    5.1525    5.8490   26.1203 O   0  0  0  0  0  0  0  0  0  0  0  0
    8.5381    7.6700   25.8547 C   0  0  1  0  0  0  0  0  0  0  0  0
    8.1627    9.0277   25.6323 O   0  0  0  0  0  0  0  0  0  0  0  0
    3.9768    4.0300   31.7428 C   0  0  2  0  0  0  0  0  0  0  0  0
    4.4013    5.2825   32.2719 O   0  0  0  0  0  0  0  0  0  0  0  0
    0.2407    2.8728   28.4180 C   0  0  2  0  0  0  0  0  0  0  0  0
    3.3640    5.9510   27.8037 C   0  0  2  0  0  0  0  0  0  0  0  0
    2.8865    4.5916   27.8083 O   0  0  0  0  0  0  0  0  0  0  0  0
    8.9366    7.5134   27.3536 C   0  0  2  0  0  0  0  0  0  0  0  0
    9.6204    6.2695   27.5142 O   0  0  0  0  0  0  0  0  0  0  0  0
    4.0859    4.0259   30.1916 C   0  0  2  0  0  0  0  0  0  0  0  0
    3.5375    2.7752   29.6769 O   0  0  0  0  0  0  0  0  0  0  0  0
    0.9480    2.4351   27.0845 C   0  0  2  0  0  0  0  0  0  0  0  0
    1.2966    3.6336   26.3440 O   0  0  0  0  0  0  0  0  0  0  0  0
    2.2697    6.8978   28.3280 C   0  0  0  0  0  0  0  0  0  0  0  0
    2.5297    8.2351   27.9383 O   0  0  0  0  0  0  0  0  0  0  0  0
    7.6745    7.5567   28.2698 C   0  0  1  0  0  0  0  0  0  0  0  0
    6.6853    6.5967   27.7878 O   0  0  0  0  0  0  0  0  0  0  0  0
    5.5258    4.1366   29.6423 C   0  0  0  0  0  0  0  0  0  0  0  0
    5.7074    3.3116   28.5039 O   0  0  0  0  0  0  0  0  0  0  0  0
    0.0418    1.5445   26.1788 C   0  0  1  0  0  0  0  0  0  0  0  0
    0.8201    1.0602   25.0854 O   0  0  0  0  0  0  0  0  0  0  0  0
    8.0010    7.2447   29.7528 C   0  0  0  0  0  0  0  0  0  0  0  0
    8.2501    5.8105   29.9849 N   0  0  0  0  0  0  0  0  0  0  0  0
  1  2  1  6  0  0  0
  1  7  1  0  0  0  0
  1 30  1  0  0  0  0
  3  4  1  6  0  0  0
  3  9  1  0  0  0  0
  3 39  1  0  0  0  0
  5 10  1  0  0  0  0
  5 26  1  0  0  0  0
  5 32  1  1  0  0  0
  6 12  1  0  0  0  0
  6 36  1  0  0  0  0
  6 19  1  6  0  0  0
  7  8  1  6  0  0  0
  7 14  1  0  0  0  0
  9 16  1  0  0  0  0
 10 11  1  6  0  0  0
 10 18  1  0  0  0  0
 12 13  1  1  0  0  0
 12 20  1  0  0  0  0
 14 15  1  1  0  0  0
 14 22  1  0  0  0  0
 16 17  1  1  0  0  0
 16 24  1  0  0  0  0
 18 19  1  1  0  0  0
 18 25  1  0  0  0  0
 20 21  1  1  0  0  0
 20 27  1  0  0  0  0
 22 23  1  6  0  0  0
 22 29  1  0  0  0  0
 24  2  1  1  0  0  0
 24 31  1  0  0  0  0
 25 26  1  0  0  0  0
 25 33  1  6  0  0  0
 27 28  1  6  0  0  0
 27 35  1  0  0  0  0
 29 30  1  0  0  0  0
 29 37  1  1  0  0  0
 31 32  1  6  0  0  0
 31 39  1  0  0  0  0
 33 34  1  0  0  0  0
 35 36  1  0  0  0  0
 35 41  1  1  0  0  0
 37 38  1  0  0  0  0
 39 40  1  6  0  0  0
 41 42  1  0  0  0  0
M  END
>  <CHROM.1>
-117.05520876,49.49681064,64.57149393,97.03547156,66.17543417,-19.48543673
175.12106506,-175.15602889,159.67828626,-143.77077228,-62.78949242,-62.91132569
-42.71891122,168.90114060,141.20887815,97.00144387,178.14801136,-58.49767038
-75.14392000,-174.30241464,172.18973907,-147.19591549,3.65094683,4.45592167
28.19559725,-2.94501119,-0.59279267,-1.50376439

>  <Name>
1fyp_lig

>  <RI>
0

>  <Rbt.Current_Directory>
/home/itssahil/PROJECTS/Mol_Feturizer/New_Systems/rnas/1fyp

>  <Rbt.Executable>
rbdock ($Id: //depot/dev/client3/rdock/2013.1/src/exe/rbdock.cxx#4 $)

>  <Rbt.Library>
libRbt.so (2013.1, Build901 2013/11/27)

>  <Rbt.Parameter_File>
/export/apps/rDock/src/rDock_2013.1_src/data/scripts/dock_solv.prm

>  <Rbt.Receptor>
prm/pocket_docking_7.prm

>  <SCORE>
-35.8276

>  <SCORE.INTER>
-32.287

>  <SCORE.INTER.CONST>
1

>  <SCORE.INTER.POLAR>
-4.01301

>  <SCORE.INTER.ROT>
14

>  <SCORE.INTER.SOLV>
13.6717

>  <SCORE.INTER.VDW>
-25.6385

>  <SCORE.INTER.norm>
-0.768737

>  <SCORE.INTRA>
-3.54065

>  <SCORE.INTRA.DIHEDRAL>
-17.2534

>  <SCORE.INTRA.DIHEDRAL.0>
48.7173

>  <SCORE.INTRA.POLAR>
1.04028

>  <SCORE.INTRA.POLAR.0>
-1.54691

>  <SCORE.INTRA.REPUL>
0

>  <SCORE.INTRA.REPUL.0>
0

>  <SCORE.INTRA.SOLV>
1.12568

>  <SCORE.INTRA.SOLV.lig_0>
-64.052

>  <SCORE.INTRA.VDW>
0.986278

>  <SCORE.INTRA.VDW.0>
-7.0667

>  <SCORE.INTRA.norm>
-0.0843012

>  <SCORE.RESTR>
0

>  <SCORE.RESTR.CAVITY>
0

>  <SCORE.RESTR.norm>
0

>  <SCORE.SYSTEM>
0

>  <SCORE.SYSTEM.CONST>
0

>  <SCORE.SYSTEM.DIHEDRAL>
0

>  <SCORE.SYSTEM.SOLV>
0

>  <SCORE.SYSTEM.norm>
0

>  <SCORE.heavy>
42

>  <SCORE.norm>
-0.853038

>  <RMSD>
8.412

$$$$
1fyp_lig
 OpenBabel11021811393D
libRbt.so/2013.1/901 2013/11/27
 42 45  0  0  0  0  0  0  0  0999 V2000
    5.9620    3.5218   27.9058 C   0  0  2  0  0  0  0  0  0  0  0  0
    5.5125    4.8017   28.4369 O   0  0  0  0  0  0  0  0  0  0  0  0
    3.2216    3.0038   31.5610 C   0  0  2  0  0  0  0  0  0  0  0  0
    2.4686    2.6906   32.7896 N   0  0  0  0  0  0  0  0  0  0  0  0
    2.9801    5.8509   27.3742 C   0  0  1  0  0  0  0  0  0  0  0  0
    3.4439    7.6466   23.4704 C   0  0  1  0  0  0  0  0  0  0  0  0
    6.3122    3.6239   26.3863 C   0  0  2  0  0  0  0  0  0  0  0  0
    7.2283    4.7537   26.1218 N   0  0  0  0  0  0  0  0  0  0  0  0
    4.6180    3.5379   31.9376 C   0  0  0  0  0  0  0  0  0  0  0  0
    1.7348    6.2944   26.6019 C   0  0  2  0  0  0  0  0  0  0  0  0
    1.2006    5.1841   25.8798 O   0  0  0  0  0  0  0  0  0  0  0  0
    4.9846    7.4654   23.3139 C   0  0  2  0  0  0  0  0  0  0  0  0
    5.6907    7.4261   24.6178 N   0  0  0  0  0  0  0  0  0  0  0  0
    5.0178    3.7634   25.5254 C   0  0  1  0  0  0  0  0  0  0  0  0
    5.3399    3.6954   24.1386 O   0  0  0  0  0  0  0  0  0  0  0  0
    5.4795    3.8640   30.6870 C   0  0  2  0  0  0  0  0  0  0  0  0
    6.7566    4.4404   31.1563 N   0  0  0  0  0  0  0  0  0  0  0  0
    2.3128    7.3483   25.6534 C   0  0  2  0  0  0  0  0  0  0  0  0
    2.9037    6.7431   24.4697 O   0  0  0  0  0  0  0  0  0  0  0  0
    5.5810    8.5620   22.3787 C   0  0  1  0  0  0  0  0  0  0  0  0
    5.2034    8.2669   21.0356 O   0  0  0  0  0  0  0  0  0  0  0  0
    3.9890    2.6507   25.8473 C   0  0  2  0  0  0  0  0  0  0  0  0
    2.7992    2.8872   25.1008 O   0  0  0  0  0  0  0  0  0  0  0  0
    4.7522    4.8249   29.6790 C   0  0  2  0  0  0  0  0  0  0  0  0
    3.3955    8.0038   26.5221 C   0  0  2  0  0  0  0  0  0  0  0  0
    3.8850    6.9665   27.3941 O   0  0  0  0  0  0  0  0  0  0  0  0
    5.1068   10.0091   22.7118 C   0  0  2  0  0  0  0  0  0  0  0  0
    5.7563   10.4352   23.9107 O   0  0  0  0  0  0  0  0  0  0  0  0
    3.6823    2.6230   27.3716 C   0  0  2  0  0  0  0  0  0  0  0  0
    4.9349    2.4938   28.1092 O   0  0  0  0  0  0  0  0  0  0  0  0
    3.2681    4.3968   29.3884 C   0  0  2  0  0  0  0  0  0  0  0  0
    2.5977    5.5066   28.7362 O   0  0  0  0  0  0  0  0  0  0  0  0
    2.8679    9.1875   27.3521 C   0  0  0  0  0  0  0  0  0  0  0  0
    3.9036   10.1157   27.6232 O   0  0  0  0  0  0  0  0  0  0  0  0
    3.5578   10.0568   22.8921 C   0  0  1  0  0  0  0  0  0  0  0  0
    3.1434    9.0332   23.8477 O   0  0  0  0  0  0  0  0  0  0  0  0
    2.7770    1.4579   27.8301 C   0  0  0  0  0  0  0  0  0  0  0  0
    1.8800    1.0683   26.8040 O   0  0  0  0  0  0  0  0  0  0  0  0
    2.4744    4.0356   30.6823 C   0  0  1  0  0  0  0  0  0  0  0  0
    1.2058    3.5003   30.3083 O   0  0  0  0  0  0  0  0  0  0  0  0
    3.0550   11.4390   23.3820 C   0  0  0  0  0  0  0  0  0  0  0  0
    3.2571   11.6312   24.8294 N   0  0  0  0  0  0  0  0  0  0  0  0
  1  2  1  6  0  0  0
  1  7  1  0  0  0  0
  1 30  1  0  0  0  0
  3  4  1  1  0  0  0
  3  9  1  0  0  0  0
  3 39  1  0  0  0  0
  5 10  1  0  0  0  0
  5 26  1  0  0  0  0
  5 32  1  1  0  0  0
  6 12  1  0  0  0  0
  6 36  1  0  0  0  0
  6 19  1  1  0  0  0
  7  8  1  1  0  0  0
  7 14  1  0  0  0  0
  9 16  1  0  0  0  0
 10 11  1  6  0  0  0
 10 18  1  0  0  0  0
 12 13  1  1  0  0  0
 12 20  1  0  0  0  0
 14 15  1  6  0  0  0
 14 22  1  0  0  0  0
 16 17  1  1  0  0  0
 16 24  1  0  0  0  0
 18 19  1  6  0  0  0
 18 25  1  0  0  0  0
 20 21  1  6  0  0  0
 20 27  1  0  0  0  0
 22 23  1  6  0  0  0
 22 29  1  0  0  0  0
 24  2  1  6  0  0  0
 24 31  1  0  0  0  0
 25 26  1  0  0  0  0
 25 33  1  1  0  0  0
 27 28  1  1  0  0  0
 27 35  1  0  0  0  0
 29 30  1  0  0  0  0
 29 37  1  6  0  0  0
 31 32  1  1  0  0  0
 31 39  1  0  0  0  0
 33 34  1  0  0  0  0
 35 36  1  0  0  0  0
 35 41  1  1  0  0  0
 37 38  1  0  0  0  0
 39 40  1  6  0  0  0
 41 42  1  0  0  0  0
M  END
>  <CHROM.1>
160.62304594,45.03150490,82.57236187,-59.21059303,-48.87290275,177.48273907
57.89865312,-55.66978434,177.87017550,116.17935479,-54.53103520,-166.28845748
-152.70033892,82.94451976,-29.99473633,69.74084022,143.56782146,-62.51825420
-78.76389255,-169.77503748,157.82816008,173.53494715,3.95315809,5.83456707
26.69502064,-1.85586580,1.34090044,-0.50455725

>  <Name>
1fyp_lig

>  <RI>
0

>  <Rbt.Current_Directory>
/home/itssahil/PROJECTS/Mol_Feturizer/New_Systems/rnas/1fyp

>  <Rbt.Executable>
rbdock ($Id: //depot/dev/client3/rdock/2013.1/src/exe/rbdock.cxx#4 $)

>  <Rbt.Library>
libRbt.so (2013.1, Build901 2013/11/27)

>  <Rbt.Parameter_File>
/export/apps/rDock/src/rDock_2013.1_src/data/scripts/dock_solv.prm

>  <Rbt.Receptor>
prm/blind_docking_40.prm

>  <SCORE>
0.792726

>  <SCORE.INTER>
6.84152

>  <SCORE.INTER.CONST>
1

>  <SCORE.INTER.POLAR>
-6.33974

>  <SCORE.INTER.ROT>
14

>  <SCORE.INTER.SOLV>
22.0585

>  <SCORE.INTER.VDW>
5.40734

>  <SCORE.INTER.norm>
0.162893

>  <SCORE.INTRA>
-6.82085

>  <SCORE.INTRA.DIHEDRAL>
-19.5452

>  <SCORE.INTRA.DIHEDRAL.0>
48.7173

>  <SCORE.INTRA.POLAR>
-0.659791

>  <SCORE.INTRA.POLAR.0>
-1.54691

>  <SCORE.INTRA.REPUL>
0.406518

>  <SCORE.INTRA.REPUL.0>
0

>  <SCORE.INTRA.SOLV>
3.00415

>  <SCORE.INTRA.SOLV.lig_0>
-64.052

>  <SCORE.INTRA.VDW>
1.66035

>  <SCORE.INTRA.VDW.0>
-7.0667

>  <SCORE.INTRA.norm>
-0.162401

>  <SCORE.RESTR>
0.772054

>  <SCORE.RESTR.CAVITY>
0.772054

>  <SCORE.RESTR.norm>
0.0183822

>  <SCORE.SYSTEM>
0

>  <SCORE.SYSTEM.CONST>
0

>  <SCORE.SYSTEM.DIHEDRAL>
0

>  <SCORE.SYSTEM.SOLV>
0

>  <SCORE.SYSTEM.norm>
0

>  <SCORE.heavy>
42

>  <SCORE.norm>
0.0188744

>  <RMSD>
8.420

$$$$
1fyp_lig
 OpenBabel11021811393D
libRbt.so/2013.1/901 2013/11/27
 42 45  0  0  0  0  0  0  0  0999 V2000
    2.0685    2.3743   28.9001 C   0  0  2  0  0  0  0  0  0  0  0  0
    1.5320    3.4639   28.0956 O   0  0  0  0  0  0  0  0  0  0  0  0
   -0.6553    0.8063   25.5670 C   0  0  2  0  0  0  0  0  0  0  0  0
   -1.5598    0.1793   24.5855 N   0  0  0  0  0  0  0  0  0  0  0  0
    3.1680    4.1033   25.9320 C   0  0  1  0  0  0  0  0  0  0  0  0
    6.6213    6.8069   26.5908 C   0  0  1  0  0  0  0  0  0  0  0  0
    1.8980    2.6534   30.4282 C   0  0  2  0  0  0  0  0  0  0  0  0
    0.5050    3.0275   30.7529 N   0  0  0  0  0  0  0  0  0  0  0  0
   -1.4755    1.6863   26.5313 C   0  0  0  0  0  0  0  0  0  0  0  0
    4.2009    4.7039   24.9748 C   0  0  2  0  0  0  0  0  0  0  0  0
    5.3768    3.8935   24.9722 O   0  0  0  0  0  0  0  0  0  0  0  0
    7.7435    6.0936   25.7766 C   0  0  2  0  0  0  0  0  0  0  0  0
    7.9587    4.6907   26.2078 N   0  0  0  0  0  0  0  0  0  0  0  0
    2.8826    3.7674   30.9033 C   0  0  1  0  0  0  0  0  0  0  0  0
    2.8285    3.8992   32.3216 O   0  0  0  0  0  0  0  0  0  0  0  0
   -0.5869    2.3589   27.6131 C   0  0  2  0  0  0  0  0  0  0  0  0
   -1.4533    3.2363   28.4274 N   0  0  0  0  0  0  0  0  0  0  0  0
    4.4673    6.0682   25.6168 C   0  0  2  0  0  0  0  0  0  0  0  0
    5.4360    5.9760   26.6982 O   0  0  0  0  0  0  0  0  0  0  0  0
    9.0706    6.9118   25.8250 C   0  0  1  0  0  0  0  0  0  0  0  0
    8.9223    8.0657   25.0003 O   0  0  0  0  0  0  0  0  0  0  0  0
    4.3441    3.4582   30.4927 C   0  0  2  0  0  0  0  0  0  0  0  0
    5.1747    4.5516   30.8712 O   0  0  0  0  0  0  0  0  0  0  0  0
    0.6221    3.1541   27.0012 C   0  0  2  0  0  0  0  0  0  0  0  0
    3.0825    6.4427   26.1631 C   0  0  2  0  0  0  0  0  0  0  0  0
    2.4478    5.1991   26.5188 O   0  0  0  0  0  0  0  0  0  0  0  0
    9.4761    7.3829   27.2546 C   0  0  2  0  0  0  0  0  0  0  0  0
    9.9459    6.2515   27.9894 O   0  0  0  0  0  0  0  0  0  0  0  0
    4.4333    3.2078   28.9605 C   0  0  2  0  0  0  0  0  0  0  0  0
    3.4869    2.1600   28.5913 O   0  0  0  0  0  0  0  0  0  0  0  0
    1.3928    2.3421   25.8982 C   0  0  2  0  0  0  0  0  0  0  0  0
    2.2501    3.2636   25.1755 O   0  0  0  0  0  0  0  0  0  0  0  0
    2.2180    7.2052   25.1434 C   0  0  0  0  0  0  0  0  0  0  0  0
    1.5413    8.2853   25.7624 O   0  0  0  0  0  0  0  0  0  0  0  0
    8.2632    8.0356   27.9875 C   0  0  1  0  0  0  0  0  0  0  0  0
    7.1151    7.1348   27.9339 O   0  0  0  0  0  0  0  0  0  0  0  0
    5.8201    2.7480   28.4581 C   0  0  0  0  0  0  0  0  0  0  0  0
    5.7742    2.3722   27.0920 O   0  0  0  0  0  0  0  0  0  0  0  0
    0.4400    1.6517   24.8734 C   0  0  1  0  0  0  0  0  0  0  0  0
    1.2144    0.8074   24.0230 O   0  0  0  0  0  0  0  0  0  0  0  0
    8.5713    8.3746   29.4685 C   0  0  0  0  0  0  0  0  0  0  0  0
    9.4451    9.5537   29.6064 N   0  0  0  0  0  0  0  0  0  0  0  0
  1  2  1  6  0  0  0
  1  7  1  0  0  0  0
  1 30  1  0  0  0  0
  3  4  1  6  0  0  0
  3  9  1  0  0  0  0
  3 39  1  0  0  0  0
  5 10  1  0  0  0  0
  5 26  1  0  0  0  0
  5 32  1  6  0  0  0
  6 12  1  0  0  0  0
  6 36  1  0  0  0  0
  6 19  1  1  0  0  0
  7  8  1  6  0  0  0
  7 14  1  0  0  0  0
  9 16  1  0  0  0  0
 10 11  1  1  0  0  0
 10 18  1  0  0  0  0
 12 13  1  1  0  0  0
 12 20  1  0  0  0  0
 14 15  1  1  0  0  0
 14 22  1  0  0  0  0
 16 17  1  6  0  0  0
 16 24  1  0  0  0  0
 18 19  1  1  0  0  0
 18 25  1  0  0  0  0
 20 21  1  6  0  0  0
 20 27  1  0  0  0  0
 22 23  1  6  0  0  0
 22 29  1  0  0  0  0
 24  2  1  1  0  0  0
 24 31  1  0  0  0  0
 25 26  1  0  0  0  0
 25 33  1  6  0  0  0
 27 28  1  1  0  0  0
 27 35  1  0  0  0  0
 29 30  1  0  0  0  0
 29 37  1  1  0  0  0
 31 32  1  6  0  0  0
 31 39  1  0  0  0  0
 33 34  1  0  0  0  0
 35 36  1  0  0  0  0
 35 41  1  1  0  0  0
 37 38  1  0  0  0  0
 39 40  1  6  0  0  0
 41 42  1  0  0  0  0
M  END
>  <CHROM.1>
-130.34962126,57.06289496,-53.74080746,151.95224556,168.86701999,84.21868903
-172.16312379,30.71139707,123.18342611,-86.90561325,-164.67640999,174.62388870
-137.38433022,65.23790811,172.21819913,52.91617467,165.32277792,-177.38260922
74.37730685,65.27909069,136.44367186,166.67185868,3.98126128,4.50086657,27.31475234
3.12808093,-0.56159832,-1.48464285

>  <Name>
1fyp_lig

>  <RI>
0

>  <Rbt.Current_Directory>
/home/itssahil/PROJECTS/Mol_Feturizer/New_Systems/rnas/1fyp

>  <Rbt.Executable>
rbdock ($Id: //depot/dev/client3/rdock/2013.1/src/exe/rbdock.cxx#4 $)

>  <Rbt.Library>
libRbt.so (2013.1, Build901 2013/11/27)

>  <Rbt.Parameter_File>
/export/apps/rDock/src/rDock_2013.1_src/data/scripts/dock_solv.prm

>  <Rbt.Receptor>
prm/blind_docking_40.prm

>  <SCORE>
-57.0058

>  <SCORE.INTER>
-50.1611

>  <SCORE.INTER.CONST>
1

>  <SCORE.INTER.POLAR>
-6.69955

>  <SCORE.INTER.ROT>
14

>  <SCORE.INTER.SOLV>
17.6464

>  <SCORE.INTER.VDW>
-29.9244

>  <SCORE.INTER.norm>
-1.19431

>  <SCORE.INTRA>
-8.97932

>  <SCORE.INTRA.DIHEDRAL>
-13.3952

>  <SCORE.INTRA.DIHEDRAL.0>
48.7173

>  <SCORE.INTRA.POLAR>
-1.22911

>  <SCORE.INTRA.POLAR.0>
-1.54691

>  <SCORE.INTRA.REPUL>
0.147574

>  <SCORE.INTRA.REPUL.0>
0

>  <SCORE.INTRA.SOLV>
0.369296

>  <SCORE.INTRA.SOLV.lig_0>
-64.052

>  <SCORE.INTRA.VDW>
0.974712

>  <SCORE.INTRA.VDW.0>
-7.0667

>  <SCORE.INTRA.norm>
-0.213793

>  <SCORE.RESTR>
2.1347

>  <SCORE.RESTR.CAVITY>
2.1347

>  <SCORE.RESTR.norm>
0.0508261

>  <SCORE.SYSTEM>
0

>  <SCORE.SYSTEM.CONST>
0

>  <SCORE.SYSTEM.DIHEDRAL>
0

>  <SCORE.SYSTEM.SOLV>
0

>  <SCORE.SYSTEM.norm>
0

>  <SCORE.heavy>
42

>  <SCORE.norm>
-1.35728

>  <RMSD>
8.438

$$$$
1fyp_lig
 OpenBabel11021811393D
libRbt.so/2013.1/901 2013/11/27
 42 45  0  0  0  0  0  0  0  0999 V2000
    0.3731    1.9452   27.9509 C   0  0  2  0  0  0  0  0  0  0  0  0
   -0.2165    1.5045   29.2081 O   0  0  0  0  0  0  0  0  0  0  0  0
   -4.0030   -0.1357   30.3097 C   0  0  2  0  0  0  0  0  0  0  0  0
   -5.4198   -0.3798   30.6376 N   0  0  0  0  0  0  0  0  0  0  0  0
   -2.9445    0.1619   26.0404 C   0  0  1  0  0  0  0  0  0  0  0  0
   -4.1630   -1.9682   22.6327 C   0  0  1  0  0  0  0  0  0  0  0  0
    1.8698    1.5105   27.8372 C   0  0  2  0  0  0  0  0  0  0  0  0
    2.0322    0.0682   28.1187 N   0  0  0  0  0  0  0  0  0  0  0  0
   -3.4728    1.0329   31.1642 C   0  0  0  0  0  0  0  0  0  0  0  0
   -2.9201    0.9531   24.7301 C   0  0  2  0  0  0  0  0  0  0  0  0
   -4.1351    1.6915   24.5958 O   0  0  0  0  0  0  0  0  0  0  0  0
   -5.3193   -1.9707   21.5868 C   0  0  2  0  0  0  0  0  0  0  0  0
   -6.6119   -1.5259   22.1629 N   0  0  0  0  0  0  0  0  0  0  0  0
    2.7681    2.3537   28.7953 C   0  0  1  0  0  0  0  0  0  0  0  0
    4.1437    2.0583   28.5665 O   0  0  0  0  0  0  0  0  0  0  0  0
   -1.9729    1.3286   30.8896 C   0  0  2  0  0  0  0  0  0  0  0  0
   -1.5908    2.5081   31.6936 N   0  0  0  0  0  0  0  0  0  0  0  0
   -2.8320   -0.1665   23.6893 C   0  0  2  0  0  0  0  0  0  0  0  0
   -4.1393   -0.7316   23.3923 O   0  0  0  0  0  0  0  0  0  0  0  0
   -5.4519   -3.3690   20.9084 C   0  0  1  0  0  0  0  0  0  0  0  0
   -4.3607   -3.5407   20.0065 O   0  0  0  0  0  0  0  0  0  0  0  0
    2.5516    3.8750   28.5982 C   0  0  2  0  0  0  0  0  0  0  0  0
    3.3263    4.5836   29.5608 O   0  0  0  0  0  0  0  0  0  0  0  0
   -1.6639    1.5487   29.3650 C   0  0  2  0  0  0  0  0  0  0  0  0
   -1.9469   -1.1989   24.4014 C   0  0  2  0  0  0  0  0  0  0  0  0
   -2.2355   -1.0655   25.8067 O   0  0  0  0  0  0  0  0  0  0  0  0
   -5.4505   -4.5644   21.9089 C   0  0  2  0  0  0  0  0  0  0  0  0
   -6.7048   -4.5863   22.5921 O   0  0  0  0  0  0  0  0  0  0  0  0
    1.0441    4.2291   28.7408 C   0  0  2  0  0  0  0  0  0  0  0  0
    0.2696    3.4030   27.8201 O   0  0  0  0  0  0  0  0  0  0  0  0
   -2.3205    0.4574   28.4441 C   0  0  2  0  0  0  0  0  0  0  0  0
   -2.2648    0.9307   27.0732 O   0  0  0  0  0  0  0  0  0  0  0  0
   -0.4444   -0.9829   24.1471 C   0  0  0  0  0  0  0  0  0  0  0  0
    0.1214   -2.1003   23.4845 O   0  0  0  0  0  0  0  0  0  0  0  0
   -4.2813   -4.4283   22.9330 C   0  0  1  0  0  0  0  0  0  0  0  0
   -4.3202   -3.1047   23.5487 O   0  0  0  0  0  0  0  0  0  0  0  0
    0.6899    5.6986   28.4211 C   0  0  0  0  0  0  0  0  0  0  0  0
    1.0845    6.0489   27.1054 O   0  0  0  0  0  0  0  0  0  0  0  0
   -3.8116    0.1732   28.8052 C   0  0  1  0  0  0  0  0  0  0  0  0
   -4.2658   -0.9402   28.0374 O   0  0  0  0  0  0  0  0  0  0  0  0
   -4.3333   -5.5056   24.0466 C   0  0  0  0  0  0  0  0  0  0  0  0
   -3.5508   -5.1241   25.2362 N   0  0  0  0  0  0  0  0  0  0  0  0
  1  2  1  1  0  0  0
  1  7  1  0  0  0  0
  1 30  1  0  0  0  0
  3  4  1  6  0  0  0
  3  9  1  0  0  0  0
  3 39  1  0  0  0  0
  5 10  1  0  0  0  0
  5 26  1  0  0  0  0
  5 32  1  1  0  0  0
  6 12  1  0  0  0  0
  6 36  1  0  0  0  0
  6 19  1  1  0  0  0
  7  8  1  1  0  0  0
  7 14  1  0  0  0  0
  9 16  1  0  0  0  0
 10 11  1  6  0  0  0
 10 18  1  0  0  0  0
 12 13  1  1  0  0  0
 12 20  1  0  0  0  0
 14 15  1  6  0  0  0
 14 22  1  0  0  0  0
 16 17  1  1  0  0  0
 16 24  1  0  0  0  0
 18 19  1  1  0  0  0
 18 25  1  0  0  0  0
 20 21  1  6  0  0  0
 20 27  1  0  0  0  0
 22 23  1  1  0  0  0
 22 29  1  0  0  0  0
 24  2  1  1  0  0  0
 24 31  1  0  0  0  0
 25 26  1  0  0  0  0
 25 33  1  1  0  0  0
 27 28  1  1  0  0  0
 27 35  1  0  0  0  0
 29 30  1  0  0  0  0
 29 37  1  6  0  0  0
 31 32  1  6  0  0  0
 31 39  1  0  0  0  0
 33 34  1  0  0  0  0
 35 36  1  0  0  0  0
 35 41  1  1  0  0  0
 37 38  1  0  0  0  0
 39 40  1  6  0  0  0
 41 42  1  0  0  0  0
M  END
>  <CHROM.1>
-166.28304204,-167.68551325,79.63091820,-144.70618876,-176.50056755,28.22954892
-110.14994004,-172.47718705,-167.94281025,-140.31437189,176.85779560,-178.40626081
-118.03511902,-42.97664920,57.75277545,-173.29117688,171.86314898,-150.49624115
-160.29386744,48.17516983,57.11518822,39.88958299,-2.05630587,0.02234663
26.29634609,-0.89562568,-0.53317939,-1.95864815

>  <Name>
1fyp_lig

>  <RI>
0

>  <Rbt.Current_Directory>
/home/itssahil/PROJECTS/Mol_Feturizer/New_Systems/rnas/1fyp

>  <Rbt.Executable>
rbdock ($Id: //depot/dev/client3/rdock/2013.1/src/exe/rbdock.cxx#4 $)

>  <Rbt.Library>
libRbt.so (2013.1, Build901 2013/11/27)

>  <Rbt.Parameter_File>
/export/apps/rDock/src/rDock_2013.1_src/data/scripts/dock_solv.prm

>  <Rbt.Receptor>
prm/pocket_docking_7.prm

>  <SCORE>
-50.6356

>  <SCORE.INTER>
-46.3179

>  <SCORE.INTER.CONST>
1

>  <SCORE.INTER.POLAR>
-6.0768

>  <SCORE.INTER.ROT>
14

>  <SCORE.INTER.SOLV>
19.9501

>  <SCORE.INTER.VDW>
-30.206

>  <SCORE.INTER.norm>
-1.10281

>  <SCORE.INTRA>
-4.31764

>  <SCORE.INTRA.DIHEDRAL>
-17.1561

>  <SCORE.INTRA.DIHEDRAL.0>
48.7173

>  <SCORE.INTRA.POLAR>
0.468762

>  <SCORE.INTRA.POLAR.0>
-1.54691

>  <SCORE.INTRA.REPUL>
0

>  <SCORE.INTRA.REPUL.0>
0

>  <SCORE.INTRA.SOLV>
-3.36412

>  <SCORE.INTRA.SOLV.lig_0>
-64.052

>  <SCORE.INTRA.VDW>
4.34867

>  <SCORE.INTRA.VDW.0>
-7.0667

>  <SCORE.INTRA.norm>
-0.102801

>  <SCORE.RESTR>
0

>  <SCORE.RESTR.CAVITY>
0

>  <SCORE.RESTR.norm>
0

>  <SCORE.SYSTEM>
0

>  <SCORE.SYSTEM.CONST>
0

>  <SCORE.SYSTEM.DIHEDRAL>
0

>  <SCORE.SYSTEM.SOLV>
0

>  <SCORE.SYSTEM.norm>
0

>  <SCORE.heavy>
42

>  <SCORE.norm>
-1.20561

>  <RMSD>
8.510

$$$$
1fyp_lig
 OpenBabel11021811393D
libRbt.so/2013.1/901 2013/11/27
 42 45  0  0  0  0  0  0  0  0999 V2000
    5.8996    4.3419   32.6088 C   0  0  2  0  0  0  0  0  0  0  0  0
    6.5259    5.4928   31.9719 O   0  0  0  0  0  0  0  0  0  0  0  0
   10.1641    6.7449   30.1182 C   0  0  2  0  0  0  0  0  0  0  0  0
   11.4530    6.8418   29.4084 N   0  0  0  0  0  0  0  0  0  0  0  0
    5.7958    6.5950   28.2504 C   0  0  1  0  0  0  0  0  0  0  0  0
    3.5835    8.3646   24.8112 C   0  0  1  0  0  0  0  0  0  0  0  0
    4.7580    3.7479   31.7222 C   0  0  2  0  0  0  0  0  0  0  0  0
    5.2232    3.5064   30.3398 N   0  0  0  0  0  0  0  0  0  0  0  0
   10.2791    5.7048   31.2504 C   0  0  0  0  0  0  0  0  0  0  0  0
    5.8146    6.2407   26.7611 C   0  0  2  0  0  0  0  0  0  0  0  0
    6.7681    7.0629   26.0870 O   0  0  0  0  0  0  0  0  0  0  0  0
    4.1740    7.5614   23.6123 C   0  0  2  0  0  0  0  0  0  0  0  0
    5.6573    7.5532   23.6051 N   0  0  0  0  0  0  0  0  0  0  0  0
    3.5115    4.6873   31.7177 C   0  0  1  0  0  0  0  0  0  0  0  0
    2.4261    4.0607   31.0387 O   0  0  0  0  0  0  0  0  0  0  0  0
    8.9609    5.5701   32.0608 C   0  0  2  0  0  0  0  0  0  0  0  0
    9.1528    4.4984   33.0600 N   0  0  0  0  0  0  0  0  0  0  0  0
    4.3843    6.5869   26.3383 C   0  0  2  0  0  0  0  0  0  0  0  0
    4.2327    8.0066   26.0590 O   0  0  0  0  0  0  0  0  0  0  0  0
    3.6030    8.0842   22.2582 C   0  0  1  0  0  0  0  0  0  0  0  0
    2.2475    7.6567   22.1423 O   0  0  0  0  0  0  0  0  0  0  0  0
    3.0538    5.0443   33.1541 C   0  0  2  0  0  0  0  0  0  0  0  0
    1.9768    5.9735   33.0815 O   0  0  0  0  0  0  0  0  0  0  0  0
    7.7115    5.2891   31.1507 C   0  0  2  0  0  0  0  0  0  0  0  0
    3.5765    6.1923   27.5826 C   0  0  2  0  0  0  0  0  0  0  0  0
    4.4448    6.4253   28.7084 O   0  0  0  0  0  0  0  0  0  0  0  0
    3.6397    9.6354   22.1085 C   0  0  2  0  0  0  0  0  0  0  0  0
    4.9926   10.0389   21.8908 O   0  0  0  0  0  0  0  0  0  0  0  0
    4.2382    5.6414   33.9658 C   0  0  2  0  0  0  0  0  0  0  0  0
    5.3634    4.7129   33.9232 O   0  0  0  0  0  0  0  0  0  0  0  0
    7.6438    6.2335   29.8963 C   0  0  2  0  0  0  0  0  0  0  0  0
    6.6742    5.6819   28.9678 O   0  0  0  0  0  0  0  0  0  0  0  0
    3.1181    4.7233   27.5631 C   0  0  0  0  0  0  0  0  0  0  0  0
    2.2883    4.4680   26.4433 O   0  0  0  0  0  0  0  0  0  0  0  0
    3.0694   10.3287   23.3847 C   0  0  1  0  0  0  0  0  0  0  0  0
    3.7422    9.8041   24.5699 O   0  0  0  0  0  0  0  0  0  0  0  0
    3.9358    5.9015   35.4585 C   0  0  0  0  0  0  0  0  0  0  0  0
    5.0123    6.5709   36.0929 O   0  0  0  0  0  0  0  0  0  0  0  0
    9.0120    6.3635   29.1577 C   0  0  1  0  0  0  0  0  0  0  0  0
    8.8950    7.3636   28.1469 O   0  0  0  0  0  0  0  0  0  0  0  0
    3.2324   11.8700   23.3515 C   0  0  0  0  0  0  0  0  0  0  0  0
    2.3623   12.5067   22.3463 N   0  0  0  0  0  0  0  0  0  0  0  0
  1  2  1  6  0  0  0
  1  7  1  0  0  0  0
  1 30  1  0  0  0  0
  3  4  1  6  0  0  0
  3  9  1  0  0  0  0
  3 39  1  0  0  0  0
  5 10  1  0  0  0  0
  5 26  1  0  0  0  0
  5 32  1  1  0  0  0
  6 12  1  0  0  0  0
  6 36  1  0  0  0  0
  6 19  1  1  0  0  0
  7  8  1  6  0  0  0
  7 14  1  0  0  0  0
  9 16  1  0  0  0  0
 10 11  1  6  0  0  0
 10 18  1  0  0  0  0
 12 13  1  6  0  0  0
 12 20  1  0  0  0  0
 14 15  1  1  0  0  0
 14 22  1  0  0  0  0
 16 17  1  1  0  0  0
 16 24  1  0  0  0  0
 18 19  1  1  0  0  0
 18 25  1  0  0  0  0
 20 21  1  1  0  0  0
 20 27  1  0  0  0  0
 22 23  1  6  0  0  0
 22 29  1  0  0  0  0
 24  2  1  1  0  0  0
 24 31  1  0  0  0  0
 25 26  1  0  0  0  0
 25 33  1  6  0  0  0
 27 28  1  1  0  0  0
 27 35  1  0  0  0  0
 29 30  1  0  0  0  0
 29 37  1  1  0  0  0
 31 32  1  6  0  0  0
 31 39  1  0  0  0  0
 33 34  1  0  0  0  0
 35 36  1  0  0  0  0
 35 41  1  6  0  0  0
 37 38  1  0  0  0  0
 39 40  1  6  0  0  0
 41 42  1  0  0  0  0
M  END
>  <CHROM.1>
-93.07574409,-95.92639434,-56.00082527,-39.43802445,154.28123072,0.99260867
67.98568756,174.06637736,130.98576000,-47.64699336,56.45898772,53.16859607
-60.30839918,-171.36227286,-173.91120206,140.87573591,131.11698682,-173.63049182
69.58141070,66.67465118,-51.27086778,-68.61891685,5.28212838,6.66824488,28.46611259
1.34500872,0.04308663,1.97900132

>  <Name>
1fyp_lig

>  <RI>
0

>  <Rbt.Current_Directory>
/home/itssahil/PROJECTS/Mol_Feturizer/New_Systems/rnas/1fyp

>  <Rbt.Executable>
rbdock ($Id: //depot/dev/client3/rdock/2013.1/src/exe/rbdock.cxx#4 $)

>  <Rbt.Library>
libRbt.so (2013.1, Build901 2013/11/27)

>  <Rbt.Parameter_File>
/export/apps/rDock/src/rDock_2013.1_src/data/scripts/dock_solv.prm

>  <Rbt.Receptor>
prm/pocket_docking_6.prm

>  <SCORE>
-27.4926

>  <SCORE.INTER>
-24.6921

>  <SCORE.INTER.CONST>
1

>  <SCORE.INTER.POLAR>
-3.78078

>  <SCORE.INTER.ROT>
14

>  <SCORE.INTER.SOLV>
13.5486

>  <SCORE.INTER.VDW>
-21.3083

>  <SCORE.INTER.norm>
-0.587907

>  <SCORE.INTRA>
-2.80198

>  <SCORE.INTRA.DIHEDRAL>
-12.4911

>  <SCORE.INTRA.DIHEDRAL.0>
48.7173

>  <SCORE.INTRA.POLAR>
0.318516

>  <SCORE.INTRA.POLAR.0>
-1.54691

>  <SCORE.INTRA.REPUL>
0

>  <SCORE.INTRA.REPUL.0>
0

>  <SCORE.INTRA.SOLV>
-0.452719

>  <SCORE.INTRA.SOLV.lig_0>
-64.052

>  <SCORE.INTRA.VDW>
2.58697

>  <SCORE.INTRA.VDW.0>
-7.0667

>  <SCORE.INTRA.norm>
-0.0667137

>  <SCORE.RESTR>
0.00143403

>  <SCORE.RESTR.CAVITY>
0.00143403

>  <SCORE.RESTR.norm>
3.41437e-05

>  <SCORE.SYSTEM>
0

>  <SCORE.SYSTEM.CONST>
0

>  <SCORE.SYSTEM.DIHEDRAL>
0

>  <SCORE.SYSTEM.SOLV>
0

>  <SCORE.SYSTEM.norm>
0

>  <SCORE.heavy>
42

>  <SCORE.norm>
-0.654586

>  <RMSD>
8.528

$$$$
1fyp_lig
 OpenBabel11021811393D
libRbt.so/2013.1/901 2013/11/27
 42 45  0  0  0  0  0  0  0  0999 V2000
    3.7710    4.0568   26.5087 C   0  0  2  0  0  0  0  0  0  0  0  0
    3.5938    5.0214   25.4314 O   0  0  0  0  0  0  0  0  0  0  0  0
    3.4885    9.1684   24.4154 C   0  0  2  0  0  0  0  0  0  0  0  0
    3.4773   10.6429   24.4052 N   0  0  0  0  0  0  0  0  0  0  0  0
    6.3380    6.8400   26.9129 C   0  0  1  0  0  0  0  0  0  0  0  0
    7.2159    5.3456   30.6097 C   0  0  1  0  0  0  0  0  0  0  0  0
    3.7602    2.5896   25.9709 C   0  0  2  0  0  0  0  0  0  0  0  0
    4.6988    2.4260   24.8404 N   0  0  0  0  0  0  0  0  0  0  0  0
    2.3879    8.6536   25.3644 C   0  0  0  0  0  0  0  0  0  0  0  0
    7.2514    5.7400   27.4602 C   0  0  2  0  0  0  0  0  0  0  0  0
    6.4559    4.6855   28.0030 O   0  0  0  0  0  0  0  0  0  0  0  0
    6.4903    5.5977   31.9666 C   0  0  2  0  0  0  0  0  0  0  0  0
    6.9526    6.8356   32.6405 N   0  0  0  0  0  0  0  0  0  0  0  0
    2.3202    2.1640   25.5451 C   0  0  1  0  0  0  0  0  0  0  0  0
    2.2963    0.7792   25.2081 O   0  0  0  0  0  0  0  0  0  0  0  0
    2.3240    7.1022   25.4036 C   0  0  2  0  0  0  0  0  0  0  0  0
    1.2992    6.7176   26.3964 N   0  0  0  0  0  0  0  0  0  0  0  0
    8.0139    6.4839   28.5600 C   0  0  2  0  0  0  0  0  0  0  0  0
    7.2510    6.5477   29.7972 O   0  0  0  0  0  0  0  0  0  0  0  0
    6.6206    4.3585   32.9050 C   0  0  1  0  0  0  0  0  0  0  0  0
    5.7735    3.3237   32.4098 O   0  0  0  0  0  0  0  0  0  0  0  0
    1.2881    2.4144   26.6730 C   0  0  2  0  0  0  0  0  0  0  0  0
   -0.0137    2.0948   26.1915 O   0  0  0  0  0  0  0  0  0  0  0  0
    3.7126    6.4426   25.7272 C   0  0  2  0  0  0  0  0  0  0  0  0
    8.1726    7.8840   27.9510 C   0  0  2  0  0  0  0  0  0  0  0  0
    7.0079    8.0924   27.1288 O   0  0  0  0  0  0  0  0  0  0  0  0
    8.0689    3.7926   33.0145 C   0  0  2  0  0  0  0  0  0  0  0  0
    8.8484    4.6899   33.8070 O   0  0  0  0  0  0  0  0  0  0  0  0
    1.3497    3.8956   27.1425 C   0  0  2  0  0  0  0  0  0  0  0  0
    2.7212    4.2208   27.5207 O   0  0  0  0  0  0  0  0  0  0  0  0
    4.8907    7.0525   24.8844 C   0  0  2  0  0  0  0  0  0  0  0  0
    6.1421    6.6294   25.4857 O   0  0  0  0  0  0  0  0  0  0  0  0
    9.4502    8.0328   27.1059 C   0  0  0  0  0  0  0  0  0  0  0  0
    9.4088    7.1817   25.9738 O   0  0  0  0  0  0  0  0  0  0  0  0
    8.7079    3.6284   31.6006 C   0  0  1  0  0  0  0  0  0  0  0  0
    8.5859    4.8804   30.8588 O   0  0  0  0  0  0  0  0  0  0  0  0
    0.4638    4.2261   28.3645 C   0  0  0  0  0  0  0  0  0  0  0  0
   -0.6164    5.0703   28.0042 O   0  0  0  0  0  0  0  0  0  0  0  0
    4.8673    8.6121   24.8454 C   0  0  1  0  0  0  0  0  0  0  0  0
    5.8612    9.0634   23.9265 O   0  0  0  0  0  0  0  0  0  0  0  0
   10.2025    3.2215   31.6634 C   0  0  0  0  0  0  0  0  0  0  0  0
   11.0422    4.2571   32.2922 N   0  0  0  0  0  0  0  0  0  0  0  0
  1  2  1  6  0  0  0
  1  7  1  0  0  0  0
  1 30  1  0  0  0  0
  3  4  1  1  0  0  0
  3  9  1  0  0  0  0
  3 39  1  0  0  0  0
  5 10  1  0  0  0  0
  5 26  1  0  0  0  0
  5 32  1  6  0  0  0
  6 12  1  0  0  0  0
  6 36  1  0  0  0  0
  6 19  1  6  0  0  0
  7  8  1  6  0  0  0
  7 14  1  0  0  0  0
  9 16  1  0  0  0  0
 10 11  1  1  0  0  0
 10 18  1  0  0  0  0
 12 13  1  1  0  0  0
 12 20  1  0  0  0  0
 14 15  1  1  0  0  0
 14 22  1  0  0  0  0
 16 17  1  1  0  0  0
 16 24  1  0  0  0  0
 18 19  1  1  0  0  0
 18 25  1  0  0  0  0
 20 21  1  6  0  0  0
 20 27  1  0  0  0  0
 22 23  1  6  0  0  0
 22 29  1  0  0  0  0
 24  2  1  6  0  0  0
 24 31  1  0  0  0  0
 25 26  1  0  0  0  0
 25 33  1  6  0  0  0
 27 28  1  1  0  0  0
 27 35  1  0  0  0  0
 29 30  1  0  0  0  0
 29 37  1  1  0  0  0
 31 32  1  1  0  0  0
 31 39  1  0  0  0  0
 33 34  1  0  0  0  0
 35 36  1  0  0  0  0
 35 41  1  1  0  0  0
 37 38  1  0  0  0  0
 39 40  1  6  0  0  0
 41 42  1  0  0  0  0
M  END
>  <CHROM.1>
-173.85991604,-118.16454834,97.94013603,-6.58031504,-50.86511454,-16.97545419
31.39342126,-63.74513918,77.43177889,174.20854332,-176.24984517,179.80042107
64.24571695,70.58653542,-111.34700460,-51.59278667,149.59542113,-176.21321254
-63.93670920,-57.14782399,76.61240184,36.98829962,5.28487928,5.48276317,27.88898535
2.58186527,-0.54936184,-0.79846399

>  <Name>
1fyp_lig

>  <RI>
0

>  <Rbt.Current_Directory>
/home/itssahil/PROJECTS/Mol_Feturizer/New_Systems/rnas/1fyp

>  <Rbt.Executable>
rbdock ($Id: //depot/dev/client3/rdock/2013.1/src/exe/rbdock.cxx#4 $)

>  <Rbt.Library>
libRbt.so (2013.1, Build901 2013/11/27)

>  <Rbt.Parameter_File>
/export/apps/rDock/src/rDock_2013.1_src/data/scripts/dock_solv.prm

>  <Rbt.Receptor>
prm/pocket_docking_7.prm

>  <SCORE>
-50.6228

>  <SCORE.INTER>
-43.9777

>  <SCORE.INTER.CONST>
1

>  <SCORE.INTER.POLAR>
-6.47611

>  <SCORE.INTER.ROT>
14

>  <SCORE.INTER.SOLV>
17.6499

>  <SCORE.INTER.VDW>
-26.548

>  <SCORE.INTER.norm>
-1.04709

>  <SCORE.INTRA>
-6.64517

>  <SCORE.INTRA.DIHEDRAL>
-18.0614

>  <SCORE.INTRA.DIHEDRAL.0>
48.7173

>  <SCORE.INTRA.POLAR>
-0.244587

>  <SCORE.INTRA.POLAR.0>
-1.54691

>  <SCORE.INTRA.REPUL>
0.0627055

>  <SCORE.INTRA.REPUL.0>
0

>  <SCORE.INTRA.SOLV>
0.701164

>  <SCORE.INTRA.SOLV.lig_0>
-64.052

>  <SCORE.INTRA.VDW>
2.55302

>  <SCORE.INTRA.VDW.0>
-7.0667

>  <SCORE.INTRA.norm>
-0.158218

>  <SCORE.RESTR>
0

>  <SCORE.RESTR.CAVITY>
0

>  <SCORE.RESTR.norm>
0

>  <SCORE.SYSTEM>
0

>  <SCORE.SYSTEM.CONST>
0

>  <SCORE.SYSTEM.DIHEDRAL>
0

>  <SCORE.SYSTEM.SOLV>
0

>  <SCORE.SYSTEM.norm>
0

>  <SCORE.heavy>
42

>  <SCORE.norm>
-1.20531

>  <RMSD>
8.530

$$$$
1fyp_lig
 OpenBabel11021811393D
libRbt.so/2013.1/901 2013/11/27
 42 45  0  0  0  0  0  0  0  0999 V2000
    1.1427    1.8240   29.7610 C   0  0  2  0  0  0  0  0  0  0  0  0
    0.4055    2.7190   28.8791 O   0  0  0  0  0  0  0  0  0  0  0  0
    0.1706   -0.1045   25.6833 C   0  0  2  0  0  0  0  0  0  0  0  0
   -0.1972   -0.9058   24.5013 N   0  0  0  0  0  0  0  0  0  0  0  0
    2.3690    4.2714   26.4877 C   0  0  1  0  0  0  0  0  0  0  0  0
    6.1449    6.4903   26.5534 C   0  0  1  0  0  0  0  0  0  0  0  0
    1.3639    2.4627   31.1699 C   0  0  2  0  0  0  0  0  0  0  0  0
    0.0951    2.9713   31.7333 N   0  0  0  0  0  0  0  0  0  0  0  0
   -1.0213   -0.0544   26.6599 C   0  0  0  0  0  0  0  0  0  0  0  0
    3.4509    4.0474   25.4280 C   0  0  2  0  0  0  0  0  0  0  0  0
    4.2832    2.9548   25.8194 O   0  0  0  0  0  0  0  0  0  0  0  0
    7.3505    6.1955   25.6096 C   0  0  2  0  0  0  0  0  0  0  0  0
    7.9095    4.8354   25.8044 N   0  0  0  0  0  0  0  0  0  0  0  0
    2.4232    3.6069   31.1017 C   0  0  1  0  0  0  0  0  0  0  0  0
    2.7308    4.0711   32.4139 O   0  0  0  0  0  0  0  0  0  0  0  0
   -0.6942    0.7538   27.9453 C   0  0  2  0  0  0  0  0  0  0  0  0
   -1.9200    0.8076   28.7689 N   0  0  0  0  0  0  0  0  0  0  0  0
    4.2153    5.3733   25.4750 C   0  0  2  0  0  0  0  0  0  0  0  0
    5.1923    5.3951   26.5527 O   0  0  0  0  0  0  0  0  0  0  0  0
    8.4531    7.2886   25.7588 C   0  0  1  0  0  0  0  0  0  0  0  0
    7.9929    8.4851   25.1342 O   0  0  0  0  0  0  0  0  0  0  0  0
    3.7355    3.1377   30.4250 C   0  0  2  0  0  0  0  0  0  0  0  0
    4.6217    4.2468   30.3097 O   0  0  0  0  0  0  0  0  0  0  0  0
   -0.1460    2.1936   27.6376 C   0  0  2  0  0  0  0  0  0  0  0  0
    3.0913    6.3833   25.7449 C   0  0  2  0  0  0  0  0  0  0  0  0
    2.1131    5.6842   26.5388 O   0  0  0  0  0  0  0  0  0  0  0  0
    8.8240    7.6211   27.2359 C   0  0  2  0  0  0  0  0  0  0  0  0
    9.5858    6.5362   27.7681 O   0  0  0  0  0  0  0  0  0  0  0  0
    3.4344    2.5298   29.0257 C   0  0  2  0  0  0  0  0  0  0  0  0
    2.4381    1.4729   29.1677 O   0  0  0  0  0  0  0  0  0  0  0  0
    0.9688    2.1997   26.5297 C   0  0  2  0  0  0  0  0  0  0  0  0
    1.1582    3.5689   26.0874 O   0  0  0  0  0  0  0  0  0  0  0  0
    2.4415    6.9208   24.4575 C   0  0  0  0  0  0  0  0  0  0  0  0
    2.2154    5.8732   23.5305 O   0  0  0  0  0  0  0  0  0  0  0  0
    7.5395    7.8485   28.0918 C   0  0  1  0  0  0  0  0  0  0  0  0
    6.6294    6.7194   27.9202 O   0  0  0  0  0  0  0  0  0  0  0  0
    4.6529    1.8966   28.3176 C   0  0  0  0  0  0  0  0  0  0  0  0
    5.8707    2.3510   28.8833 O   0  0  0  0  0  0  0  0  0  0  0  0
    0.5983    1.3296   25.2887 C   0  0  1  0  0  0  0  0  0  0  0  0
    1.7303    1.2589   24.4230 O   0  0  0  0  0  0  0  0  0  0  0  0
    7.8494    8.0233   29.6006 C   0  0  0  0  0  0  0  0  0  0  0  0
    8.4678    6.8225   30.1913 N   0  0  0  0  0  0  0  0  0  0  0  0
  1  2  1  6  0  0  0
  1  7  1  0  0  0  0
  1 30  1  0  0  0  0
  3  4  1  6  0  0  0
  3  9  1  0  0  0  0
  3 39  1  0  0  0  0
  5 10  1  0  0  0  0
  5 26  1  0  0  0  0
  5 32  1  6  0  0  0
  6 12  1  0  0  0  0
  6 36  1  0  0  0  0
  6 19  1  1  0  0  0
  7  8  1  6  0  0  0
  7 14  1  0  0  0  0
  9 16  1  0  0  0  0
 10 11  1  1  0  0  0
 10 18  1  0  0  0  0
 12 13  1  1  0  0  0
 12 20  1  0  0  0  0
 14 15  1  1  0  0  0
 14 22  1  0  0  0  0
 16 17  1  1  0  0  0
 16 24  1  0  0  0  0
 18 19  1  1  0  0  0
 18 25  1  0  0  0  0
 20 21  1  1  0  0  0
 20 27  1  0  0  0  0
 22 23  1  6  0  0  0
 22 29  1  0  0  0  0
 24  2  1  1  0  0  0
 24 31  1  0  0  0  0
 25 26  1  0  0  0  0
 25 33  1  6  0  0  0
 27 28  1  1  0  0  0
 27 35  1  0  0  0  0
 29 30  1  0  0  0  0
 29 37  1  1  0  0  0
 31 32  1  6  0  0  0
 31 39  1  0  0  0  0
 33 34  1  0  0  0  0
 35 36  1  0  0  0  0
 35 41  1  1  0  0  0
 37 38  1  0  0  0  0
 39 40  1  6  0  0  0
 41 42  1  0  0  0  0
M  END
>  <CHROM.1>
-166.72967694,39.01191560,100.26729555,-53.40595115,178.35280192,-41.19769171
63.91167629,155.73446704,169.07553454,-83.30063485,-57.05041181,-57.55742123
43.42276868,-61.77829581,-18.20652481,107.35036495,90.57094051,74.69092311
-62.65374493,138.83358481,83.93374003,-42.83180378,3.59325777,4.00320525
27.48969682,-3.02369026,-0.63658216,-1.44786646

>  <Name>
1fyp_lig

>  <RI>
0

>  <Rbt.Current_Directory>
/home/itssahil/PROJECTS/Mol_Feturizer/New_Systems/rnas/1fyp

>  <Rbt.Executable>
rbdock ($Id: //depot/dev/client3/rdock/2013.1/src/exe/rbdock.cxx#4 $)

>  <Rbt.Library>
libRbt.so (2013.1, Build901 2013/11/27)

>  <Rbt.Parameter_File>
/export/apps/rDock/src/rDock_2013.1_src/data/scripts/dock_solv.prm

>  <Rbt.Receptor>
prm/blind_docking_40.prm

>  <SCORE>
-42.1381

>  <SCORE.INTER>
-42.7111

>  <SCORE.INTER.CONST>
1

>  <SCORE.INTER.POLAR>
-5.33357

>  <SCORE.INTER.ROT>
14

>  <SCORE.INTER.SOLV>
16.8555

>  <SCORE.INTER.VDW>
-29.2474

>  <SCORE.INTER.norm>
-1.01693

>  <SCORE.INTRA>
0.530267

>  <SCORE.INTRA.DIHEDRAL>
-14.2201

>  <SCORE.INTRA.DIHEDRAL.0>
48.7173

>  <SCORE.INTRA.POLAR>
1.47343

>  <SCORE.INTRA.POLAR.0>
-1.54691

>  <SCORE.INTRA.REPUL>
2.79755e-05

>  <SCORE.INTRA.REPUL.0>
0

>  <SCORE.INTRA.SOLV>
1.08461

>  <SCORE.INTRA.SOLV.lig_0>
-64.052

>  <SCORE.INTRA.VDW>
2.08821

>  <SCORE.INTRA.VDW.0>
-7.0667

>  <SCORE.INTRA.norm>
0.0126254

>  <SCORE.RESTR>
0.0427833

>  <SCORE.RESTR.CAVITY>
0.0427833

>  <SCORE.RESTR.norm>
0.00101865

>  <SCORE.SYSTEM>
0

>  <SCORE.SYSTEM.CONST>
0

>  <SCORE.SYSTEM.DIHEDRAL>
0

>  <SCORE.SYSTEM.SOLV>
0

>  <SCORE.SYSTEM.norm>
0

>  <SCORE.heavy>
42

>  <SCORE.norm>
-1.00329

>  <RMSD>
8.542

$$$$
1fyp_lig
 OpenBabel11021811393D
libRbt.so/2013.1/901 2013/11/27
 42 45  0  0  0  0  0  0  0  0999 V2000
    4.0703    2.0504   28.7585 C   0  0  2  0  0  0  0  0  0  0  0  0
    3.6833    3.3455   29.3018 O   0  0  0  0  0  0  0  0  0  0  0  0
   -0.3925    2.2557   29.9657 C   0  0  2  0  0  0  0  0  0  0  0  0
   -1.7748    2.1025   30.4559 N   0  0  0  0  0  0  0  0  0  0  0  0
    2.2245    5.5456   27.2596 C   0  0  1  0  0  0  0  0  0  0  0  0
    3.9551    8.1970   24.2217 C   0  0  1  0  0  0  0  0  0  0  0  0
    5.5511    2.0584   28.2593 C   0  0  2  0  0  0  0  0  0  0  0  0
    6.4636    2.5863   29.2958 N   0  0  0  0  0  0  0  0  0  0  0  0
    0.5931    2.0138   31.1263 C   0  0  0  0  0  0  0  0  0  0  0  0
    2.4031    7.0624   27.1550 C   0  0  2  0  0  0  0  0  0  0  0  0
    1.3665    7.6098   26.3392 O   0  0  0  0  0  0  0  0  0  0  0  0
    3.4073    8.0451   22.7698 C   0  0  2  0  0  0  0  0  0  0  0  0
    3.7411    6.7313   22.1675 N   0  0  0  0  0  0  0  0  0  0  0  0
    5.6899    2.8861   26.9433 C   0  0  1  0  0  0  0  0  0  0  0  0
    7.0073    2.7533   26.4156 O   0  0  0  0  0  0  0  0  0  0  0  0
    2.0742    2.1327   30.6741 C   0  0  2  0  0  0  0  0  0  0  0  0
    2.9261    1.9650   31.8698 N   0  0  0  0  0  0  0  0  0  0  0  0
    3.7671    7.1709   26.4680 C   0  0  2  0  0  0  0  0  0  0  0  0
    3.6577    7.0250   25.0246 O   0  0  0  0  0  0  0  0  0  0  0  0
    3.8910    9.2220   21.8675 C   0  0  1  0  0  0  0  0  0  0  0  0
    3.1738   10.3988   22.2341 O   0  0  0  0  0  0  0  0  0  0  0  0
    4.6781    2.4260   25.8639 C   0  0  2  0  0  0  0  0  0  0  0  0
    4.7914    3.2772   24.7275 O   0  0  0  0  0  0  0  0  0  0  0  0
    2.3800    3.4859   29.9367 C   0  0  2  0  0  0  0  0  0  0  0  0
    4.5282    5.9837   27.0743 C   0  0  2  0  0  0  0  0  0  0  0  0
    3.5383    4.9690   27.3319 O   0  0  0  0  0  0  0  0  0  0  0  0
    5.4159    9.5252   21.9802 C   0  0  2  0  0  0  0  0  0  0  0  0
    6.1357    8.4891   21.3101 O   0  0  0  0  0  0  0  0  0  0  0  0
    3.2305    2.4598   26.4310 C   0  0  2  0  0  0  0  0  0  0  0  0
    3.1786    1.6700   27.6571 O   0  0  0  0  0  0  0  0  0  0  0  0
    1.3063    3.8445   28.8465 C   0  0  2  0  0  0  0  0  0  0  0  0
    1.4866    5.2362   28.4760 O   0  0  0  0  0  0  0  0  0  0  0  0
    5.2686    6.3428   28.3749 C   0  0  0  0  0  0  0  0  0  0  0  0
    5.5465    5.1801   29.1354 O   0  0  0  0  0  0  0  0  0  0  0  0
    5.8555    9.6068   23.4750 C   0  0  1  0  0  0  0  0  0  0  0  0
    5.4069    8.4116   24.1841 O   0  0  0  0  0  0  0  0  0  0  0  0
    2.1508    1.8837   25.4879 C   0  0  0  0  0  0  0  0  0  0  0  0
    2.2493    2.4438   24.1894 O   0  0  0  0  0  0  0  0  0  0  0  0
   -0.1585    3.6561   29.3496 C   0  0  1  0  0  0  0  0  0  0  0  0
   -1.0489    3.8383   28.2497 O   0  0  0  0  0  0  0  0  0  0  0  0
    7.3905    9.7464   23.6402 C   0  0  0  0  0  0  0  0  0  0  0  0
    8.0839    8.4469   23.5810 N   0  0  0  0  0  0  0  0  0  0  0  0
  1  2  1  6  0  0  0
  1  7  1  0  0  0  0
  1 30  1  0  0  0  0
  3  4  1  1  0  0  0
  3  9  1  0  0  0  0
  3 39  1  0  0  0  0
  5 10  1  0  0  0  0
  5 26  1  0  0  0  0
  5 32  1  1  0  0  0
  6 12  1  0  0  0  0
  6 36  1  0  0  0  0
  6 19  1  1  0  0  0
  7  8  1  1  0  0  0
  7 14  1  0  0  0  0
  9 16  1  0  0  0  0
 10 11  1  6  0  0  0
 10 18  1  0  0  0  0
 12 13  1  6  0  0  0
 12 20  1  0  0  0  0
 14 15  1  6  0  0  0
 14 22  1  0  0  0  0
 16 17  1  1  0  0  0
 16 24  1  0  0  0  0
 18 19  1  6  0  0  0
 18 25  1  0  0  0  0
 20 21  1  1  0  0  0
 20 27  1  0  0  0  0
 22 23  1  6  0  0  0
 22 29  1  0  0  0  0
 24  2  1  6  0  0  0
 24 31  1  0  0  0  0
 25 26  1  0  0  0  0
 25 33  1  1  0  0  0
 27 28  1  6  0  0  0
 27 35  1  0  0  0  0
 29 30  1  0  0  0  0
 29 37  1  6  0  0  0
 31 32  1  1  0  0  0
 31 39  1  0  0  0  0
 33 34  1  0  0  0  0
 35 36  1  0  0  0  0
 35 41  1  6  0  0  0
 37 38  1  0  0  0  0
 39 40  1  6  0  0  0
 41 42  1  0  0  0  0
M  END
>  <CHROM.1>
-173.92450031,35.14496011,-179.31713657,-167.63153617,-49.80308453,-2.28018857
-61.96387142,174.58319487,112.74014854,-163.22608916,-40.94832178,69.60335555
159.33283157,-34.50949217,-50.08456544,99.14920519,-174.38834069,-45.94474546
-83.30346294,80.72963879,170.77010513,-41.15313374,3.56065788,5.09626137
26.58533612,-1.94256096,0.21091636,-0.73624710

>  <Name>
1fyp_lig

>  <RI>
0

>  <Rbt.Current_Directory>
/home/itssahil/PROJECTS/Mol_Feturizer/New_Systems/rnas/1fyp

>  <Rbt.Executable>
rbdock ($Id: //depot/dev/client3/rdock/2013.1/src/exe/rbdock.cxx#4 $)

>  <Rbt.Library>
libRbt.so (2013.1, Build901 2013/11/27)

>  <Rbt.Parameter_File>
/export/apps/rDock/src/rDock_2013.1_src/data/scripts/dock_solv.prm

>  <Rbt.Receptor>
prm/blind_docking_100.prm

>  <SCORE>
-66.3881

>  <SCORE.INTER>
-57.4913

>  <SCORE.INTER.CONST>
1

>  <SCORE.INTER.POLAR>
-6.44109

>  <SCORE.INTER.ROT>
14

>  <SCORE.INTER.SOLV>
24.2085

>  <SCORE.INTER.VDW>
-37.8601

>  <SCORE.INTER.norm>
-1.36884

>  <SCORE.INTRA>
-9.30458

>  <SCORE.INTRA.DIHEDRAL>
-16.612

>  <SCORE.INTRA.DIHEDRAL.0>
48.7173

>  <SCORE.INTRA.POLAR>
-1.5207

>  <SCORE.INTRA.POLAR.0>
-1.54691

>  <SCORE.INTRA.REPUL>
0.304556

>  <SCORE.INTRA.REPUL.0>
0

>  <SCORE.INTRA.SOLV>
1.96434

>  <SCORE.INTRA.SOLV.lig_0>
-64.052

>  <SCORE.INTRA.VDW>
1.66685

>  <SCORE.INTRA.VDW.0>
-7.0667

>  <SCORE.INTRA.norm>
-0.221538

>  <SCORE.RESTR>
0.407783

>  <SCORE.RESTR.CAVITY>
0.407783

>  <SCORE.RESTR.norm>
0.00970913

>  <SCORE.SYSTEM>
0

>  <SCORE.SYSTEM.CONST>
0

>  <SCORE.SYSTEM.DIHEDRAL>
0

>  <SCORE.SYSTEM.SOLV>
0

>  <SCORE.SYSTEM.norm>
0

>  <SCORE.heavy>
42

>  <SCORE.norm>
-1.58067

>  <RMSD>
8.549

$$$$
1fyp_lig
 OpenBabel11021811393D
libRbt.so/2013.1/901 2013/11/27
 42 45  0  0  0  0  0  0  0  0999 V2000
   -0.4632    1.5002   28.3889 C   0  0  2  0  0  0  0  0  0  0  0  0
   -0.5963    2.5453   27.3827 O   0  0  0  0  0  0  0  0  0  0  0  0
   -1.3470   -0.1993   24.1977 C   0  0  2  0  0  0  0  0  0  0  0  0
   -1.7696   -0.8780   22.9586 N   0  0  0  0  0  0  0  0  0  0  0  0
    2.0407    3.1919   25.7518 C   0  0  1  0  0  0  0  0  0  0  0  0
    5.7674    4.7377   27.5016 C   0  0  1  0  0  0  0  0  0  0  0  0
   -0.5132    2.0888   29.8356 C   0  0  2  0  0  0  0  0  0  0  0  0
   -1.6876    2.9685   30.0164 N   0  0  0  0  0  0  0  0  0  0  0  0
   -2.5770    0.4267   24.8847 C   0  0  0  0  0  0  0  0  0  0  0  0
    3.4066    2.9878   25.0912 C   0  0  2  0  0  0  0  0  0  0  0  0
    3.9522    1.7332   25.5011 O   0  0  0  0  0  0  0  0  0  0  0  0
    5.1794    5.7620   28.5196 C   0  0  2  0  0  0  0  0  0  0  0  0
    3.9397    6.4103   28.0264 N   0  0  0  0  0  0  0  0  0  0  0  0
    0.8003    2.8644   30.1662 C   0  0  1  0  0  0  0  0  0  0  0  0
    0.8075    3.2577   31.5362 O   0  0  0  0  0  0  0  0  0  0  0  0
   -2.2086    1.1377   26.2155 C   0  0  2  0  0  0  0  0  0  0  0  0
   -3.4358    1.7674   26.7457 N   0  0  0  0  0  0  0  0  0  0  0  0
    4.2104    4.1578   25.6650 C   0  0  2  0  0  0  0  0  0  0  0  0
    4.7382    3.8537   26.9862 O   0  0  0  0  0  0  0  0  0  0  0  0
    6.2509    6.8207   28.9244 C   0  0  1  0  0  0  0  0  0  0  0  0
    7.2005    6.1980   29.7870 O   0  0  0  0  0  0  0  0  0  0  0  0
    2.0607    2.0058   29.8934 C   0  0  2  0  0  0  0  0  0  0  0  0
    3.2218    2.7979   30.1242 O   0  0  0  0  0  0  0  0  0  0  0  0
   -1.0519    2.1873   26.0464 C   0  0  2  0  0  0  0  0  0  0  0  0
    3.1511    5.2656   25.7488 C   0  0  2  0  0  0  0  0  0  0  0  0
    1.9005    4.5986   26.0075 O   0  0  0  0  0  0  0  0  0  0  0  0
    7.0202    7.4406   27.7186 C   0  0  2  0  0  0  0  0  0  0  0  0
    6.1443    8.3372   27.0334 O   0  0  0  0  0  0  0  0  0  0  0  0
    2.0443    1.4707   28.4334 C   0  0  2  0  0  0  0  0  0  0  0  0
    0.7905    0.7620   28.1978 O   0  0  0  0  0  0  0  0  0  0  0  0
    0.1607    1.6325   25.2147 C   0  0  2  0  0  0  0  0  0  0  0  0
    0.9983    2.7550   24.8340 O   0  0  0  0  0  0  0  0  0  0  0  0
    3.0487    6.1008   24.4601 C   0  0  0  0  0  0  0  0  0  0  0  0
    4.3046    6.6623   24.1210 O   0  0  0  0  0  0  0  0  0  0  0  0
    7.5181    6.3259   26.7470 C   0  0  1  0  0  0  0  0  0  0  0  0
    6.4030    5.4538   26.3887 O   0  0  0  0  0  0  0  0  0  0  0  0
    3.1817    0.4824   28.0920 C   0  0  0  0  0  0  0  0  0  0  0  0
    4.4536    1.0916   28.2353 O   0  0  0  0  0  0  0  0  0  0  0  0
   -0.2814    0.8874   23.9170 C   0  0  1  0  0  0  0  0  0  0  0  0
    0.8645    0.2774   23.3248 O   0  0  0  0  0  0  0  0  0  0  0  0
    8.1481    6.8992   25.4518 C   0  0  0  0  0  0  0  0  0  0  0  0
    7.1879    7.6897   24.6606 N   0  0  0  0  0  0  0  0  0  0  0  0
  1  2  1  6  0  0  0
  1  7  1  0  0  0  0
  1 30  1  0  0  0  0
  3  4  1  6  0  0  0
  3  9  1  0  0  0  0
  3 39  1  0  0  0  0
  5 10  1  0  0  0  0
  5 26  1  0  0  0  0
  5 32  1  6  0  0  0
  6 12  1  0  0  0  0
  6 36  1  0  0  0  0
  6 19  1  6  0  0  0
  7  8  1  6  0  0  0
  7 14  1  0  0  0  0
  9 16  1  0  0  0  0
 10 11  1  1  0  0  0
 10 18  1  0  0  0  0
 12 13  1  6  0  0  0
 12 20  1  0  0  0  0
 14 15  1  1  0  0  0
 14 22  1  0  0  0  0
 16 17  1  6  0  0  0
 16 24  1  0  0  0  0
 18 19  1  1  0  0  0
 18 25  1  0  0  0  0
 20 21  1  1  0  0  0
 20 27  1  0  0  0  0
 22 23  1  6  0  0  0
 22 29  1  0  0  0  0
 24  2  1  1  0  0  0
 24 31  1  0  0  0  0
 25 26  1  0  0  0  0
 25 33  1  6  0  0  0
 27 28  1  6  0  0  0
 27 35  1  0  0  0  0
 29 30  1  0  0  0  0
 29 37  1  1  0  0  0
 31 32  1  6  0  0  0
 31 39  1  0  0  0  0
 33 34  1  0  0  0  0
 35 36  1  0  0  0  0
 35 41  1  6  0  0  0
 37 38  1  0  0  0  0
 39 40  1  1  0  0  0
 41 42  1  0  0  0  0
M  END
>  <CHROM.1>
-157.98328258,40.99979666,-175.31174018,52.23331420,-177.85282629,81.26209871
62.69727090,-169.47853624,165.83736080,100.67574362,-173.48674564,-61.84275744
-56.18462411,-51.13878247,-61.39960487,87.50105147,116.35719515,74.48770151
-61.70804810,-66.73267630,73.45185367,-59.98634612,2.52662174,3.45771829
26.87703799,3.03040334,-0.63409165,-1.61760836

>  <Name>
1fyp_lig

>  <RI>
0

>  <Rbt.Current_Directory>
/home/itssahil/PROJECTS/Mol_Feturizer/New_Systems/rnas/1fyp

>  <Rbt.Executable>
rbdock ($Id: //depot/dev/client3/rdock/2013.1/src/exe/rbdock.cxx#4 $)

>  <Rbt.Library>
libRbt.so (2013.1, Build901 2013/11/27)

>  <Rbt.Parameter_File>
/export/apps/rDock/src/rDock_2013.1_src/data/scripts/dock_solv.prm

>  <Rbt.Receptor>
prm/blind_docking_100.prm

>  <SCORE>
-42.3566

>  <SCORE.INTER>
-27.2194

>  <SCORE.INTER.CONST>
1

>  <SCORE.INTER.POLAR>
-3.55334

>  <SCORE.INTER.ROT>
14

>  <SCORE.INTER.SOLV>
18.4079

>  <SCORE.INTER.VDW>
-25.3711

>  <SCORE.INTER.norm>
-0.648081

>  <SCORE.INTRA>
-15.2145

>  <SCORE.INTRA.DIHEDRAL>
-24.0318

>  <SCORE.INTRA.DIHEDRAL.0>
48.7173

>  <SCORE.INTRA.POLAR>
-1.47187

>  <SCORE.INTRA.POLAR.0>
-1.54691

>  <SCORE.INTRA.REPUL>
0.0375305

>  <SCORE.INTRA.REPUL.0>
0

>  <SCORE.INTRA.SOLV>
3.27199

>  <SCORE.INTRA.SOLV.lig_0>
-64.052

>  <SCORE.INTRA.VDW>
-0.0179161

>  <SCORE.INTRA.VDW.0>
-7.0667

>  <SCORE.INTRA.norm>
-0.362251

>  <SCORE.RESTR>
0.0773296

>  <SCORE.RESTR.CAVITY>
0.0773296

>  <SCORE.RESTR.norm>
0.00184118

>  <SCORE.SYSTEM>
0

>  <SCORE.SYSTEM.CONST>
0

>  <SCORE.SYSTEM.DIHEDRAL>
0

>  <SCORE.SYSTEM.SOLV>
0

>  <SCORE.SYSTEM.norm>
0

>  <SCORE.heavy>
42

>  <SCORE.norm>
-1.00849

>  <RMSD>
8.593

$$$$
1fyp_lig
 OpenBabel11021811393D
libRbt.so/2013.1/901 2013/11/27
 42 45  0  0  0  0  0  0  0  0999 V2000
   -0.6740    1.5818   29.4295 C   0  0  2  0  0  0  0  0  0  0  0  0
   -1.1094    2.6623   28.5547 O   0  0  0  0  0  0  0  0  0  0  0  0
    0.0789    0.5844   25.0176 C   0  0  2  0  0  0  0  0  0  0  0  0
    0.2879    0.0989   23.6409 N   0  0  0  0  0  0  0  0  0  0  0  0
    2.3731    4.1591   26.5374 C   0  0  1  0  0  0  0  0  0  0  0  0
    5.6069    6.3745   24.8292 C   0  0  1  0  0  0  0  0  0  0  0  0
   -0.8270    1.9681   30.9360 C   0  0  2  0  0  0  0  0  0  0  0  0
   -2.1836    2.4810   31.2230 N   0  0  0  0  0  0  0  0  0  0  0  0
   -1.4325    0.6505   25.3143 C   0  0  0  0  0  0  0  0  0  0  0  0
    2.5356    5.5529   25.9255 C   0  0  2  0  0  0  0  0  0  0  0  0
    2.6394    5.4415   24.5055 O   0  0  0  0  0  0  0  0  0  0  0  0
    6.3718    7.5524   25.5063 C   0  0  2  0  0  0  0  0  0  0  0  0
    5.5802    8.2082   26.5757 N   0  0  0  0  0  0  0  0  0  0  0  0
    0.2487    3.0195   31.3525 C   0  0  1  0  0  0  0  0  0  0  0  0
    0.1994    3.2424   32.7595 O   0  0  0  0  0  0  0  0  0  0  0  0
   -1.7269    1.1299   26.7620 C   0  0  2  0  0  0  0  0  0  0  0  0
   -3.1931    1.2346   26.9135 N   0  0  0  0  0  0  0  0  0  0  0  0
    3.8573    6.0153   26.5450 C   0  0  2  0  0  0  0  0  0  0  0  0
    5.0052    5.4972   25.8167 O   0  0  0  0  0  0  0  0  0  0  0  0
    6.8541    8.5862   24.4425 C   0  0  1  0  0  0  0  0  0  0  0  0
    7.9473    8.0198   23.7229 O   0  0  0  0  0  0  0  0  0  0  0  0
    1.6797    2.5598   30.9765 C   0  0  2  0  0  0  0  0  0  0  0  0
    2.6008    3.5981   31.2963 O   0  0  0  0  0  0  0  0  0  0  0  0
   -1.0155    2.4863   27.1119 C   0  0  2  0  0  0  0  0  0  0  0  0
    3.7869    5.4001   27.9497 C   0  0  2  0  0  0  0  0  0  0  0  0
    3.0432    4.1743   27.8080 O   0  0  0  0  0  0  0  0  0  0  0  0
    5.7572    9.0016   23.4158 C   0  0  2  0  0  0  0  0  0  0  0  0
    4.8206    9.8569   24.0729 O   0  0  0  0  0  0  0  0  0  0  0  0
    1.7542    2.2088   29.4634 C   0  0  2  0  0  0  0  0  0  0  0  0
    0.7217    1.2265   29.1488 O   0  0  0  0  0  0  0  0  0  0  0  0
    0.4960    2.5128   26.6820 C   0  0  2  0  0  0  0  0  0  0  0  0
    0.9562    3.8883   26.7346 O   0  0  0  0  0  0  0  0  0  0  0  0
    3.1016    6.3190   28.9767 C   0  0  0  0  0  0  0  0  0  0  0  0
    2.0535    5.6377   29.6438 O   0  0  0  0  0  0  0  0  0  0  0  0
    5.0302    7.7454   22.8431 C   0  0  1  0  0  0  0  0  0  0  0  0
    4.5639    6.9050   23.9425 O   0  0  0  0  0  0  0  0  0  0  0  0
    3.0980    1.6003   29.0040 C   0  0  0  0  0  0  0  0  0  0  0  0
    3.0878    1.3189   27.6147 O   0  0  0  0  0  0  0  0  0  0  0  0
    0.7273    1.9726   25.2366 C   0  0  1  0  0  0  0  0  0  0  0  0
    2.1313    1.8757   25.0018 O   0  0  0  0  0  0  0  0  0  0  0  0
    3.8245    8.1120   21.9403 C   0  0  0  0  0  0  0  0  0  0  0  0
    2.5678    7.4945   22.4011 N   0  0  0  0  0  0  0  0  0  0  0  0
  1  2  1  6  0  0  0
  1  7  1  0  0  0  0
  1 30  1  0  0  0  0
  3  4  1  6  0  0  0
  3  9  1  0  0  0  0
  3 39  1  0  0  0  0
  5 10  1  0  0  0  0
  5 26  1  0  0  0  0
  5 32  1  1  0  0  0
  6 12  1  0  0  0  0
  6 36  1  0  0  0  0
  6 19  1  1  0  0  0
  7  8  1  6  0  0  0
  7 14  1  0  0  0  0
  9 16  1  0  0  0  0
 10 11  1  6  0  0  0
 10 18  1  0  0  0  0
 12 13  1  1  0  0  0
 12 20  1  0  0  0  0
 14 15  1  1  0  0  0
 14 22  1  0  0  0  0
 16 17  1  6  0  0  0
 16 24  1  0  0  0  0
 18 19  1  6  0  0  0
 18 25  1  0  0  0  0
 20 21  1  6  0  0  0
 20 27  1  0  0  0  0
 22 23  1  6  0  0  0
 22 29  1  0  0  0  0
 24  2  1  1  0  0  0
 24 31  1  0  0  0  0
 25 26  1  0  0  0  0
 25 33  1  1  0  0  0
 27 28  1  1  0  0  0
 27 35  1  0  0  0  0
 29 30  1  0  0  0  0
 29 37  1  1  0  0  0
 31 32  1  6  0  0  0
 31 39  1  0  0  0  0
 33 34  1  0  0  0  0
 35 36  1  0  0  0  0
 35 41  1  1  0  0  0
 37 38  1  0  0  0  0
 39 40  1  1  0  0  0
 41 42  1  0  0  0  0
M  END
>  <CHROM.1>
178.94397675,51.91515320,4.64691202,-9.50146998,-87.06639358,147.30688815
63.34595091,-43.91133921,96.73984830,71.44589268,-58.18045155,-57.19192970
127.03711222,175.59788173,-179.55943112,172.58929161,151.00415541,-57.60346117
-123.64571544,-167.95730129,28.81238748,-83.85862618,2.22642401,4.29629722
26.84881915,-2.60336266,-0.80472779,-1.55978567

>  <Name>
1fyp_lig

>  <RI>
0

>  <Rbt.Current_Directory>
/home/itssahil/PROJECTS/Mol_Feturizer/New_Systems/rnas/1fyp

>  <Rbt.Executable>
rbdock ($Id: //depot/dev/client3/rdock/2013.1/src/exe/rbdock.cxx#4 $)

>  <Rbt.Library>
libRbt.so (2013.1, Build901 2013/11/27)

>  <Rbt.Parameter_File>
/export/apps/rDock/src/rDock_2013.1_src/data/scripts/dock_solv.prm

>  <Rbt.Receptor>
prm/blind_docking_40.prm

>  <SCORE>
-37.4943

>  <SCORE.INTER>
-38.0691

>  <SCORE.INTER.CONST>
1

>  <SCORE.INTER.POLAR>
-5.61382

>  <SCORE.INTER.ROT>
14

>  <SCORE.INTER.SOLV>
18.2196

>  <SCORE.INTER.VDW>
-25.6732

>  <SCORE.INTER.norm>
-0.906407

>  <SCORE.INTRA>
0.574825

>  <SCORE.INTRA.DIHEDRAL>
-13.8989

>  <SCORE.INTRA.DIHEDRAL.0>
48.7173

>  <SCORE.INTRA.POLAR>
-0.188047

>  <SCORE.INTRA.POLAR.0>
-1.54691

>  <SCORE.INTRA.REPUL>
0.181919

>  <SCORE.INTRA.REPUL.0>
0

>  <SCORE.INTRA.SOLV>
4.37063

>  <SCORE.INTRA.SOLV.lig_0>
-64.052

>  <SCORE.INTRA.VDW>
5.06872

>  <SCORE.INTRA.VDW.0>
-7.0667

>  <SCORE.INTRA.norm>
0.0136863

>  <SCORE.RESTR>
0

>  <SCORE.RESTR.CAVITY>
0

>  <SCORE.RESTR.norm>
0

>  <SCORE.SYSTEM>
0

>  <SCORE.SYSTEM.CONST>
0

>  <SCORE.SYSTEM.DIHEDRAL>
0

>  <SCORE.SYSTEM.SOLV>
0

>  <SCORE.SYSTEM.norm>
0

>  <SCORE.heavy>
42

>  <SCORE.norm>
-0.89272

>  <RMSD>
8.604

$$$$
1fyp_lig
 OpenBabel11021811393D
libRbt.so/2013.1/901 2013/11/27
 42 45  0  0  0  0  0  0  0  0999 V2000
    2.0577    3.5865   30.3436 C   0  0  2  0  0  0  0  0  0  0  0  0
    1.4546    4.4384   29.3274 O   0  0  0  0  0  0  0  0  0  0  0  0
   -0.4290    1.1829   27.3040 C   0  0  2  0  0  0  0  0  0  0  0  0
   -1.2968    0.3035   26.4990 N   0  0  0  0  0  0  0  0  0  0  0  0
    3.2040    4.5747   26.5907 C   0  0  1  0  0  0  0  0  0  0  0  0
    6.9866    6.8715   26.4293 C   0  0  1  0  0  0  0  0  0  0  0  0
    3.3149    4.2598   30.9826 C   0  0  2  0  0  0  0  0  0  0  0  0
    3.0153    5.6353   31.4341 N   0  0  0  0  0  0  0  0  0  0  0  0
   -1.2906    1.9728   28.3094 C   0  0  0  0  0  0  0  0  0  0  0  0
    3.6744    5.3775   25.3750 C   0  0  2  0  0  0  0  0  0  0  0  0
    4.4085    4.5251   24.4953 O   0  0  0  0  0  0  0  0  0  0  0  0
    8.3023    6.3893   25.7455 C   0  0  2  0  0  0  0  0  0  0  0  0
    8.6359    4.9824   26.0766 N   0  0  0  0  0  0  0  0  0  0  0  0
    4.5115    4.2673   29.9804 C   0  0  1  0  0  0  0  0  0  0  0  0
    5.6915    4.7374   30.6272 O   0  0  0  0  0  0  0  0  0  0  0  0
   -0.4354    2.9030   29.2126 C   0  0  2  0  0  0  0  0  0  0  0  0
   -1.3593    3.6674   30.0763 N   0  0  0  0  0  0  0  0  0  0  0  0
    4.5848    6.4240   26.0233 C   0  0  2  0  0  0  0  0  0  0  0  0
    5.9199    5.9005   26.2682 O   0  0  0  0  0  0  0  0  0  0  0  0
    9.4866    7.3472   26.0815 C   0  0  1  0  0  0  0  0  0  0  0  0
    9.3101    8.5597   25.3519 O   0  0  0  0  0  0  0  0  0  0  0  0
    4.7926    2.8554   29.4080 C   0  0  2  0  0  0  0  0  0  0  0  0
    5.8288    2.9459   28.4349 O   0  0  0  0  0  0  0  0  0  0  0  0
    0.5032    3.8573   28.3901 C   0  0  2  0  0  0  0  0  0  0  0  0
    3.8626    6.7018   27.3491 C   0  0  2  0  0  0  0  0  0  0  0  0
    3.2233    5.4646   27.7184 O   0  0  0  0  0  0  0  0  0  0  0  0
    9.6087    7.7018   27.5945 C   0  0  2  0  0  0  0  0  0  0  0  0
   10.1105    6.5593   28.2898 O   0  0  0  0  0  0  0  0  0  0  0  0
    3.5009    2.2607   28.7784 C   0  0  2  0  0  0  0  0  0  0  0  0
    2.4295    2.2886   29.7690 O   0  0  0  0  0  0  0  0  0  0  0  0
    1.2862    3.1111   27.2498 C   0  0  2  0  0  0  0  0  0  0  0  0
    1.8441    4.1102   26.3570 O   0  0  0  0  0  0  0  0  0  0  0  0
    2.8170    7.8262   27.2421 C   0  0  0  0  0  0  0  0  0  0  0  0
    3.4234    9.0436   26.8449 O   0  0  0  0  0  0  0  0  0  0  0  0
    8.2243    8.1227   28.1783 C   0  0  1  0  0  0  0  0  0  0  0  0
    7.2272    7.1048   27.8586 O   0  0  0  0  0  0  0  0  0  0  0  0
    3.6260    0.7958   28.3035 C   0  0  0  0  0  0  0  0  0  0  0  0
    2.4328    0.0711   28.5495 O   0  0  0  0  0  0  0  0  0  0  0  0
    0.3792    2.1565   26.4128 C   0  0  1  0  0  0  0  0  0  0  0  0
    1.2026    1.4032   25.5238 O   0  0  0  0  0  0  0  0  0  0  0  0
    8.2610    8.3298   29.7142 C   0  0  0  0  0  0  0  0  0  0  0  0
    6.9191    8.5437   30.2858 N   0  0  0  0  0  0  0  0  0  0  0  0
  1  2  1  6  0  0  0
  1  7  1  0  0  0  0
  1 30  1  0  0  0  0
  3  4  1  6  0  0  0
  3  9  1  0  0  0  0
  3 39  1  0  0  0  0
  5 10  1  0  0  0  0
  5 26  1  0  0  0  0
  5 32  1  6  0  0  0
  6 12  1  0  0  0  0
  6 36  1  0  0  0  0
  6 19  1  1  0  0  0
  7  8  1  6  0  0  0
  7 14  1  0  0  0  0
  9 16  1  0  0  0  0
 10 11  1  6  0  0  0
 10 18  1  0  0  0  0
 12 13  1  1  0  0  0
 12 20  1  0  0  0  0
 14 15  1  1  0  0  0
 14 22  1  0  0  0  0
 16 17  1  6  0  0  0
 16 24  1  0  0  0  0
 18 19  1  1  0  0  0
 18 25  1  0  0  0  0
 20 21  1  6  0  0  0
 20 27  1  0  0  0  0
 22 23  1  6  0  0  0
 22 29  1  0  0  0  0
 24  2  1  1  0  0  0
 24 31  1  0  0  0  0
 25 26  1  0  0  0  0
 25 33  1  6  0  0  0
 27 28  1  1  0  0  0
 27 35  1  0  0  0  0
 29 30  1  0  0  0  0
 29 37  1  1  0  0  0
 31 32  1  6  0  0  0
 31 39  1  0  0  0  0
 33 34  1  0  0  0  0
 35 36  1  0  0  0  0
 35 41  1  1  0  0  0
 37 38  1  0  0  0  0
 39 40  1  6  0  0  0
 41 42  1  0  0  0  0
M  END
>  <CHROM.1>
164.20450548,42.36905690,-40.55518736,31.56806995,-157.44576059,-28.48390184
-61.29679142,-106.39998343,159.04619261,-141.17491572,-86.94595986,61.02376971
-60.17052101,-52.30303932,142.61206233,93.30879390,167.90010955,-69.89725932
-172.08452461,-92.56593482,179.58726496,144.74657160,4.09926605,4.74371252
27.87448113,3.12811868,-0.59999939,-1.74889512

>  <Name>
1fyp_lig

>  <RI>
0

>  <Rbt.Current_Directory>
/home/itssahil/PROJECTS/Mol_Feturizer/New_Systems/rnas/1fyp

>  <Rbt.Executable>
rbdock ($Id: //depot/dev/client3/rdock/2013.1/src/exe/rbdock.cxx#4 $)

>  <Rbt.Library>
libRbt.so (2013.1, Build901 2013/11/27)

>  <Rbt.Parameter_File>
/export/apps/rDock/src/rDock_2013.1_src/data/scripts/dock_solv.prm

>  <Rbt.Receptor>
prm/blind_docking_80.prm

>  <SCORE>
-47.3684

>  <SCORE.INTER>
-47.4437

>  <SCORE.INTER.CONST>
1

>  <SCORE.INTER.POLAR>
-6.62624

>  <SCORE.INTER.ROT>
14

>  <SCORE.INTER.SOLV>
20.3971

>  <SCORE.INTER.VDW>
-29.2741

>  <SCORE.INTER.norm>
-1.12961

>  <SCORE.INTRA>
-0.22327

>  <SCORE.INTRA.DIHEDRAL>
-13.3507

>  <SCORE.INTRA.DIHEDRAL.0>
48.7173

>  <SCORE.INTRA.POLAR>
1.14415

>  <SCORE.INTRA.POLAR.0>
-1.54691

>  <SCORE.INTRA.REPUL>
0.172516

>  <SCORE.INTRA.REPUL.0>
0

>  <SCORE.INTRA.SOLV>
-0.144638

>  <SCORE.INTRA.SOLV.lig_0>
-64.052

>  <SCORE.INTRA.VDW>
1.77173

>  <SCORE.INTRA.VDW.0>
-7.0667

>  <SCORE.INTRA.norm>
-0.00531596

>  <SCORE.RESTR>
0.298608

>  <SCORE.RESTR.CAVITY>
0.298608

>  <SCORE.RESTR.norm>
0.00710972

>  <SCORE.SYSTEM>
0

>  <SCORE.SYSTEM.CONST>
0

>  <SCORE.SYSTEM.DIHEDRAL>
0

>  <SCORE.SYSTEM.SOLV>
0

>  <SCORE.SYSTEM.norm>
0

>  <SCORE.heavy>
42

>  <SCORE.norm>
-1.12782

>  <RMSD>
8.617

$$$$
1fyp_lig
 OpenBabel11021811393D
libRbt.so/2013.1/901 2013/11/27
 42 45  0  0  0  0  0  0  0  0999 V2000
    2.3935    3.0595   29.2305 C   0  0  2  0  0  0  0  0  0  0  0  0
    1.6785    4.1080   28.5151 O   0  0  0  0  0  0  0  0  0  0  0  0
   -0.1915    1.3267   25.8678 C   0  0  2  0  0  0  0  0  0  0  0  0
   -1.0082    0.6452   24.8465 N   0  0  0  0  0  0  0  0  0  0  0  0
    3.4725    4.7924   26.3875 C   0  0  1  0  0  0  0  0  0  0  0  0
    7.1775    6.7066   26.7289 C   0  0  1  0  0  0  0  0  0  0  0  0
    2.0341    3.0568   30.7513 C   0  0  2  0  0  0  0  0  0  0  0  0
    0.5700    3.0508   30.9564 N   0  0  0  0  0  0  0  0  0  0  0  0
   -1.1138    2.1099   26.8233 C   0  0  0  0  0  0  0  0  0  0  0  0
    4.4398    5.4887   25.4265 C   0  0  2  0  0  0  0  0  0  0  0  0
    5.6060    4.6822   25.2558 O   0  0  0  0  0  0  0  0  0  0  0  0
    8.1833    6.5144   27.9048 C   0  0  2  0  0  0  0  0  0  0  0  0
    7.8074    7.2914   29.1111 N   0  0  0  0  0  0  0  0  0  0  0  0
    2.6775    4.2798   31.4769 C   0  0  1  0  0  0  0  0  0  0  0  0
    2.4754    4.1786   32.8843 O   0  0  0  0  0  0  0  0  0  0  0  0
   -0.3198    2.8332   27.9453 C   0  0  2  0  0  0  0  0  0  0  0  0
   -1.2835    3.6130   28.7495 N   0  0  0  0  0  0  0  0  0  0  0  0
    4.7622    6.7785   26.1860 C   0  0  2  0  0  0  0  0  0  0  0  0
    5.8044    6.5735   27.1801 O   0  0  0  0  0  0  0  0  0  0  0  0
    9.6390    6.8417   27.4499 C   0  0  1  0  0  0  0  0  0  0  0  0
   10.1007    5.7845   26.6117 O   0  0  0  0  0  0  0  0  0  0  0  0
    4.1994    4.3769   31.2034 C   0  0  2  0  0  0  0  0  0  0  0  0
    4.7069    5.5598   31.8133 O   0  0  0  0  0  0  0  0  0  0  0  0
    0.8318    3.7445   27.3871 C   0  0  2  0  0  0  0  0  0  0  0  0
    3.4227    7.0950   26.8657 C   0  0  2  0  0  0  0  0  0  0  0  0
    2.8048    5.8216   27.1349 O   0  0  0  0  0  0  0  0  0  0  0  0
    9.7743    8.1814   26.6646 C   0  0  2  0  0  0  0  0  0  0  0  0
    9.6355    9.2641   27.5860 O   0  0  0  0  0  0  0  0  0  0  0  0
    4.4735    4.3893   29.6728 C   0  0  2  0  0  0  0  0  0  0  0  0
    3.8422    3.2226   29.0644 O   0  0  0  0  0  0  0  0  0  0  0  0
    1.7029    3.0278   26.2927 C   0  0  2  0  0  0  0  0  0  0  0  0
    2.4965    4.0367   25.6154 O   0  0  0  0  0  0  0  0  0  0  0  0
    2.4942    7.9602   25.9951 C   0  0  0  0  0  0  0  0  0  0  0  0
    1.8555    7.1752   25.0034 O   0  0  0  0  0  0  0  0  0  0  0  0
    8.6886    8.2813   25.5484 C   0  0  1  0  0  0  0  0  0  0  0  0
    7.3698    8.0299   26.1231 O   0  0  0  0  0  0  0  0  0  0  0  0
    5.9672    4.3386   29.2809 C   0  0  0  0  0  0  0  0  0  0  0  0
    6.1307    3.9690   27.9222 O   0  0  0  0  0  0  0  0  0  0  0  0
    0.8449    2.2799   25.2255 C   0  0  1  0  0  0  0  0  0  0  0  0
    1.7152    1.5258   24.3830 O   0  0  0  0  0  0  0  0  0  0  0  0
    8.6788    9.6629   24.8455 C   0  0  0  0  0  0  0  0  0  0  0  0
    9.7378    9.7842   23.8272 N   0  0  0  0  0  0  0  0  0  0  0  0
  1  2  1  6  0  0  0
  1  7  1  0  0  0  0
  1 30  1  0  0  0  0
  3  4  1  6  0  0  0
  3  9  1  0  0  0  0
  3 39  1  0  0  0  0
  5 10  1  0  0  0  0
  5 26  1  0  0  0  0
  5 32  1  6  0  0  0
  6 12  1  0  0  0  0
  6 36  1  0  0  0  0
  6 19  1  1  0  0  0
  7  8  1  6  0  0  0
  7 14  1  0  0  0  0
  9 16  1  0  0  0  0
 10 11  1  1  0  0  0
 10 18  1  0  0  0  0
 12 13  1  1  0  0  0
 12 20  1  0  0  0  0
 14 15  1  1  0  0  0
 14 22  1  0  0  0  0
 16 17  1  6  0  0  0
 16 24  1  0  0  0  0
 18 19  1  1  0  0  0
 18 25  1  0  0  0  0
 20 21  1  6  0  0  0
 20 27  1  0  0  0  0
 22 23  1  6  0  0  0
 22 29  1  0  0  0  0
 24  2  1  1  0  0  0
 24 31  1  0  0  0  0
 25 26  1  0  0  0  0
 25 33  1  6  0  0  0
 27 28  1  1  0  0  0
 27 35  1  0  0  0  0
 29 30  1  0  0  0  0
 29 37  1  1  0  0  0
 31 32  1  6  0  0  0
 31 39  1  0  0  0  0
 33 34  1  0  0  0  0
 35 36  1  0  0  0  0
 35 41  1  1  0  0  0
 37 38  1  0  0  0  0
 39 40  1  6  0  0  0
 41 42  1  0  0  0  0
M  END
>  <CHROM.1>
-122.88866997,63.24016319,-58.70231450,-169.23299550,168.81809449,68.01759505
-61.74130791,-75.15953449,86.84131584,177.87561528,-158.55257149,58.26428186
78.55902126,176.63979910,163.12721022,62.60439635,164.17347732,173.19680352
80.01620901,-178.55961102,79.13763149,87.62654371,4.21693929,5.14363307,27.46953014
-2.93244577,-0.54419901,-1.43668793

>  <Name>
1fyp_lig

>  <RI>
0

>  <Rbt.Current_Directory>
/home/itssahil/PROJECTS/Mol_Feturizer/New_Systems/rnas/1fyp

>  <Rbt.Executable>
rbdock ($Id: //depot/dev/client3/rdock/2013.1/src/exe/rbdock.cxx#4 $)

>  <Rbt.Library>
libRbt.so (2013.1, Build901 2013/11/27)

>  <Rbt.Parameter_File>
/export/apps/rDock/src/rDock_2013.1_src/data/scripts/dock_solv.prm

>  <Rbt.Receptor>
prm/blind_docking_80.prm

>  <SCORE>
-47.0211

>  <SCORE.INTER>
-40.8597

>  <SCORE.INTER.CONST>
1

>  <SCORE.INTER.POLAR>
-5.38171

>  <SCORE.INTER.ROT>
14

>  <SCORE.INTER.SOLV>
15.5524

>  <SCORE.INTER.VDW>
-27.4182

>  <SCORE.INTER.norm>
-0.972851

>  <SCORE.INTRA>
-6.57281

>  <SCORE.INTRA.DIHEDRAL>
-26.9926

>  <SCORE.INTRA.DIHEDRAL.0>
48.7173

>  <SCORE.INTRA.POLAR>
1.01814

>  <SCORE.INTRA.POLAR.0>
-1.54691

>  <SCORE.INTRA.REPUL>
0.371641

>  <SCORE.INTRA.REPUL.0>
0

>  <SCORE.INTRA.SOLV>
1.91159

>  <SCORE.INTRA.SOLV.lig_0>
-64.052

>  <SCORE.INTRA.VDW>
0.647819

>  <SCORE.INTRA.VDW.0>
-7.0667

>  <SCORE.INTRA.norm>
-0.156495

>  <SCORE.RESTR>
0.411405

>  <SCORE.RESTR.CAVITY>
0.411405

>  <SCORE.RESTR.norm>
0.00979535

>  <SCORE.SYSTEM>
0

>  <SCORE.SYSTEM.CONST>
0

>  <SCORE.SYSTEM.DIHEDRAL>
0

>  <SCORE.SYSTEM.SOLV>
0

>  <SCORE.SYSTEM.norm>
0

>  <SCORE.heavy>
42

>  <SCORE.norm>
-1.11955

>  <RMSD>
8.641

$$$$
1fyp_lig
 OpenBabel11021811393D
libRbt.so/2013.1/901 2013/11/27
 42 45  0  0  0  0  0  0  0  0999 V2000
    2.5261    3.5012   25.7050 C   0  0  2  0  0  0  0  0  0  0  0  0
    2.4894    2.4573   26.7205 O   0  0  0  0  0  0  0  0  0  0  0  0
   -1.7485    1.9276   26.7410 C   0  0  2  0  0  0  0  0  0  0  0  0
   -3.1295    1.4118   26.7789 N   0  0  0  0  0  0  0  0  0  0  0  0
    1.8231    2.9025   30.0592 C   0  0  1  0  0  0  0  0  0  0  0  0
    4.6945    4.5333   33.0395 C   0  0  1  0  0  0  0  0  0  0  0  0
    3.9559    3.6547   25.0933 C   0  0  2  0  0  0  0  0  0  0  0  0
    4.4930    2.3500   24.6516 N   0  0  0  0  0  0  0  0  0  0  0  0
   -0.9588    1.1982   25.6358 C   0  0  0  0  0  0  0  0  0  0  0  0
    2.6992    2.2092   31.1058 C   0  0  2  0  0  0  0  0  0  0  0  0
    2.0182    2.1897   32.3609 O   0  0  0  0  0  0  0  0  0  0  0  0
    4.1030    5.3798   34.2077 C   0  0  2  0  0  0  0  0  0  0  0  0
    3.3349    6.5553   33.7298 N   0  0  0  0  0  0  0  0  0  0  0  0
    4.9289    4.3231   26.1144 C   0  0  1  0  0  0  0  0  0  0  0  0
    6.1805    4.6008   25.4915 O   0  0  0  0  0  0  0  0  0  0  0  0
    0.5023    1.7123   25.5206 C   0  0  2  0  0  0  0  0  0  0  0  0
    1.1881    0.8976   24.4962 N   0  0  0  0  0  0  0  0  0  0  0  0
    3.9219    3.1296   31.1509 C   0  0  2  0  0  0  0  0  0  0  0  0
    3.6999    4.2802   32.0131 O   0  0  0  0  0  0  0  0  0  0  0  0
    5.2214    5.8021   35.2096 C   0  0  1  0  0  0  0  0  0  0  0  0
    5.6103    4.6564   35.9644 O   0  0  0  0  0  0  0  0  0  0  0  0
    4.3537    5.6474   26.6764 C   0  0  2  0  0  0  0  0  0  0  0  0
    5.2416    6.1568   27.6667 O   0  0  0  0  0  0  0  0  0  0  0  0
    1.2708    1.6778   26.8904 C   0  0  2  0  0  0  0  0  0  0  0  0
    4.0477    3.5696   29.6856 C   0  0  2  0  0  0  0  0  0  0  0  0
    2.7046    3.6003   29.1649 O   0  0  0  0  0  0  0  0  0  0  0  0
    6.4938    6.3938   34.5306 C   0  0  2  0  0  0  0  0  0  0  0  0
    6.1865    7.7051   34.0548 O   0  0  0  0  0  0  0  0  0  0  0  0
    2.9399    5.4097   27.2790 C   0  0  2  0  0  0  0  0  0  0  0  0
    2.0901    4.7825   26.2719 O   0  0  0  0  0  0  0  0  0  0  0  0
    0.4322    2.2759   28.0775 C   0  0  2  0  0  0  0  0  0  0  0  0
    1.0751    1.8945   29.3215 O   0  0  0  0  0  0  0  0  0  0  0  0
    4.9198    2.6211   28.8439 C   0  0  0  0  0  0  0  0  0  0  0  0
    4.2059    1.4447   28.5063 O   0  0  0  0  0  0  0  0  0  0  0  0
    6.9634    5.4884   33.3499 C   0  0  1  0  0  0  0  0  0  0  0  0
    5.8416    5.2348   32.4501 O   0  0  0  0  0  0  0  0  0  0  0  0
    2.2079    6.6896   27.7404 C   0  0  0  0  0  0  0  0  0  0  0  0
    0.9179    6.3909   28.2466 O   0  0  0  0  0  0  0  0  0  0  0  0
   -1.0389    1.7566   28.1058 C   0  0  1  0  0  0  0  0  0  0  0  0
   -1.7614    2.4778   29.1025 O   0  0  0  0  0  0  0  0  0  0  0  0
    8.1280    6.1158   32.5417 C   0  0  0  0  0  0  0  0  0  0  0  0
    9.2752    6.4761   33.3943 N   0  0  0  0  0  0  0  0  0  0  0  0
  1  2  1  1  0  0  0
  1  7  1  0  0  0  0
  1 30  1  0  0  0  0
  3  4  1  1  0  0  0
  3  9  1  0  0  0  0
  3 39  1  0  0  0  0
  5 10  1  0  0  0  0
  5 26  1  0  0  0  0
  5 32  1  6  0  0  0
  6 12  1  0  0  0  0
  6 36  1  0  0  0  0
  6 19  1  6  0  0  0
  7  8  1  1  0  0  0
  7 14  1  0  0  0  0
  9 16  1  0  0  0  0
 10 11  1  1  0  0  0
 10 18  1  0  0  0  0
 12 13  1  6  0  0  0
 12 20  1  0  0  0  0
 14 15  1  6  0  0  0
 14 22  1  0  0  0  0
 16 17  1  6  0  0  0
 16 24  1  0  0  0  0
 18 19  1  1  0  0  0
 18 25  1  0  0  0  0
 20 21  1  6  0  0  0
 20 27  1  0  0  0  0
 22 23  1  1  0  0  0
 22 29  1  0  0  0  0
 24  2  1  6  0  0  0
 24 31  1  0  0  0  0
 25 26  1  0  0  0  0
 25 33  1  6  0  0  0
 27 28  1  6  0  0  0
 27 35  1  0  0  0  0
 29 30  1  0  0  0  0
 29 37  1  6  0  0  0
 31 32  1  1  0  0  0
 31 39  1  0  0  0  0
 33 34  1  0  0  0  0
 35 36  1  0  0  0  0
 35 41  1  6  0  0  0
 37 38  1  0  0  0  0
 39 40  1  1  0  0  0
 41 42  1  0  0  0  0
M  END
>  <CHROM.1>
-147.47592327,25.28789839,159.82624851,-171.86645676,-68.25519499,169.73500013
43.26681652,95.64557066,127.57459337,-157.34751573,-59.22936288,59.18451872
77.13363897,169.60195315,178.61953649,105.49463124,-165.21125462,167.00163170
54.70194319,-149.67267839,-63.96054809,173.07682679,3.20876491,3.91557080
29.38802978,-2.23406575,0.44656140,1.45595630

>  <Name>
1fyp_lig

>  <RI>
0

>  <Rbt.Current_Directory>
/home/itssahil/PROJECTS/Mol_Feturizer/New_Systems/rnas/1fyp

>  <Rbt.Executable>
rbdock ($Id: //depot/dev/client3/rdock/2013.1/src/exe/rbdock.cxx#4 $)

>  <Rbt.Library>
libRbt.so (2013.1, Build901 2013/11/27)

>  <Rbt.Parameter_File>
/export/apps/rDock/src/rDock_2013.1_src/data/scripts/dock_solv.prm

>  <Rbt.Receptor>
prm/pocket_docking_7.prm

>  <SCORE>
-43.9999

>  <SCORE.INTER>
-43.1599

>  <SCORE.INTER.CONST>
1

>  <SCORE.INTER.POLAR>
-7.75953

>  <SCORE.INTER.ROT>
14

>  <SCORE.INTER.SOLV>
11.7462

>  <SCORE.INTER.VDW>
-19.7569

>  <SCORE.INTER.norm>
-1.02762

>  <SCORE.INTRA>
-0.839993

>  <SCORE.INTRA.DIHEDRAL>
-13.2434

>  <SCORE.INTRA.DIHEDRAL.0>
48.7173

>  <SCORE.INTRA.POLAR>
1.1363

>  <SCORE.INTRA.POLAR.0>
-1.54691

>  <SCORE.INTRA.REPUL>
0.00574717

>  <SCORE.INTRA.REPUL.0>
0

>  <SCORE.INTRA.SOLV>
1.17102

>  <SCORE.INTRA.SOLV.lig_0>
-64.052

>  <SCORE.INTRA.VDW>
1.30403

>  <SCORE.INTRA.VDW.0>
-7.0667

>  <SCORE.INTRA.norm>
-0.0199998

>  <SCORE.RESTR>
0

>  <SCORE.RESTR.CAVITY>
0

>  <SCORE.RESTR.norm>
0

>  <SCORE.SYSTEM>
0

>  <SCORE.SYSTEM.CONST>
0

>  <SCORE.SYSTEM.DIHEDRAL>
0

>  <SCORE.SYSTEM.SOLV>
0

>  <SCORE.SYSTEM.norm>
0

>  <SCORE.heavy>
42

>  <SCORE.norm>
-1.04762

>  <RMSD>
8.658

$$$$
1fyp_lig
 OpenBabel11021811393D
libRbt.so/2013.1/901 2013/11/27
 42 45  0  0  0  0  0  0  0  0999 V2000
    2.5754    1.8591   25.7432 C   0  0  2  0  0  0  0  0  0  0  0  0
    2.8715    3.2780   25.5966 O   0  0  0  0  0  0  0  0  0  0  0  0
    5.6028    3.7506   28.8459 C   0  0  2  0  0  0  0  0  0  0  0  0
    6.7370    4.0745   29.7308 N   0  0  0  0  0  0  0  0  0  0  0  0
    3.8921    6.7132   26.0016 C   0  0  1  0  0  0  0  0  0  0  0  0
    4.6242    8.7217   24.1710 C   0  0  1  0  0  0  0  0  0  0  0  0
    1.1602    1.5086   25.1806 C   0  0  2  0  0  0  0  0  0  0  0  0
    0.9828    2.0339   23.8101 N   0  0  0  0  0  0  0  0  0  0  0  0
    6.1208    3.0026   27.6012 C   0  0  0  0  0  0  0  0  0  0  0  0
    4.9531    7.5231   26.7512 C   0  0  2  0  0  0  0  0  0  0  0  0
    4.4669    8.8454   26.9853 O   0  0  0  0  0  0  0  0  0  0  0  0
    4.4269    7.8081   22.9230 C   0  0  2  0  0  0  0  0  0  0  0  0
    5.5652    7.8823   21.9747 N   0  0  0  0  0  0  0  0  0  0  0  0
    0.0382    2.0535   26.1188 C   0  0  1  0  0  0  0  0  0  0  0  0
   -1.2369    1.5917   25.6800 O   0  0  0  0  0  0  0  0  0  0  0  0
    4.9722    2.6047   26.6343 C   0  0  2  0  0  0  0  0  0  0  0  0
    5.5813    1.9711   25.4463 N   0  0  0  0  0  0  0  0  0  0  0  0
    6.1112    7.5257   25.7497 C   0  0  2  0  0  0  0  0  0  0  0  0
    5.9496    8.5609   24.7403 O   0  0  0  0  0  0  0  0  0  0  0  0
    3.0748    8.1230   22.2119 C   0  0  1  0  0  0  0  0  0  0  0  0
    2.0116    7.6089   23.0112 O   0  0  0  0  0  0  0  0  0  0  0  0
    0.2462    1.6045   27.5870 C   0  0  2  0  0  0  0  0  0  0  0  0
   -0.7523    2.2082   28.4038 O   0  0  0  0  0  0  0  0  0  0  0  0
    4.0634    3.8217   26.2332 C   0  0  2  0  0  0  0  0  0  0  0  0
    5.9929    6.1320   25.1172 C   0  0  2  0  0  0  0  0  0  0  0  0
    4.5884    5.8108   25.1271 O   0  0  0  0  0  0  0  0  0  0  0  0
    2.8180    9.6426   21.9774 C   0  0  2  0  0  0  0  0  0  0  0  0
    3.6732   10.0906   20.9246 O   0  0  0  0  0  0  0  0  0  0  0  0
    1.6677    2.0013   28.0770 C   0  0  2  0  0  0  0  0  0  0  0  0
    2.6601    1.4614   27.1531 O   0  0  0  0  0  0  0  0  0  0  0  0
    3.6398    4.7010   27.4651 C   0  0  2  0  0  0  0  0  0  0  0  0
    3.1058    5.9538   26.9632 O   0  0  0  0  0  0  0  0  0  0  0  0
    6.7872    5.0553   25.8778 C   0  0  0  0  0  0  0  0  0  0  0  0
    8.1759    5.3349   25.8455 O   0  0  0  0  0  0  0  0  0  0  0  0
    3.0928   10.4582   23.2788 C   0  0  1  0  0  0  0  0  0  0  0  0
    4.4176   10.1258   23.7953 O   0  0  0  0  0  0  0  0  0  0  0  0
    2.0397    1.4763   29.4817 C   0  0  0  0  0  0  0  0  0  0  0  0
    3.3180    1.9394   29.8827 O   0  0  0  0  0  0  0  0  0  0  0  0
    4.8301    5.0226   28.4213 C   0  0  1  0  0  0  0  0  0  0  0  0
    4.3213    5.6716   29.5856 O   0  0  0  0  0  0  0  0  0  0  0  0
    3.0072   11.9896   23.0541 C   0  0  0  0  0  0  0  0  0  0  0  0
    4.2512   12.6846   23.4317 N   0  0  0  0  0  0  0  0  0  0  0  0
  1  2  1  1  0  0  0
  1  7  1  0  0  0  0
  1 30  1  0  0  0  0
  3  4  1  1  0  0  0
  3  9  1  0  0  0  0
  3 39  1  0  0  0  0
  5 10  1  0  0  0  0
  5 26  1  0  0  0  0
  5 32  1  1  0  0  0
  6 12  1  0  0  0  0
  6 36  1  0  0  0  0
  6 19  1  6  0  0  0
  7  8  1  6  0  0  0
  7 14  1  0  0  0  0
  9 16  1  0  0  0  0
 10 11  1  6  0  0  0
 10 18  1  0  0  0  0
 12 13  1  6  0  0  0
 12 20  1  0  0  0  0
 14 15  1  6  0  0  0
 14 22  1  0  0  0  0
 16 17  1  6  0  0  0
 16 24  1  0  0  0  0
 18 19  1  6  0  0  0
 18 25  1  0  0  0  0
 20 21  1  1  0  0  0
 20 27  1  0  0  0  0
 22 23  1  1  0  0  0
 22 29  1  0  0  0  0
 24  2  1  1  0  0  0
 24 31  1  0  0  0  0
 25 26  1  0  0  0  0
 25 33  1  1  0  0  0
 27 28  1  6  0  0  0
 27 35  1  0  0  0  0
 29 30  1  0  0  0  0
 29 37  1  1  0  0  0
 31 32  1  6  0  0  0
 31 39  1  0  0  0  0
 33 34  1  0  0  0  0
 35 36  1  0  0  0  0
 35 41  1  6  0  0  0
 37 38  1  0  0  0  0
 39 40  1  1  0  0  0
 41 42  1  0  0  0  0
M  END
>  <CHROM.1>
171.40909405,15.02744683,34.19723560,-21.24285796,171.22808437,-149.08193577
-174.61120559,-166.72799214,-43.38792185,-89.14192770,-175.78399307,-51.04716978
-63.38978296,-57.44177027,-176.86650011,-51.35299090,-81.36158621,-176.38835791
-122.75869990,-175.13786323,73.81011686,1.10349208,3.72567796,5.49993989
25.78023227,1.82129099,0.50736762,2.50348073

>  <Name>
1fyp_lig

>  <RI>
0

>  <Rbt.Current_Directory>
/home/itssahil/PROJECTS/Mol_Feturizer/New_Systems/rnas/1fyp

>  <Rbt.Executable>
rbdock ($Id: //depot/dev/client3/rdock/2013.1/src/exe/rbdock.cxx#4 $)

>  <Rbt.Library>
libRbt.so (2013.1, Build901 2013/11/27)

>  <Rbt.Parameter_File>
/export/apps/rDock/src/rDock_2013.1_src/data/scripts/dock_solv.prm

>  <Rbt.Receptor>
prm/pocket_docking_3.prm

>  <SCORE>
-26.8565

>  <SCORE.INTER>
-42.0462

>  <SCORE.INTER.CONST>
1

>  <SCORE.INTER.POLAR>
-5.55477

>  <SCORE.INTER.ROT>
14

>  <SCORE.INTER.SOLV>
20.8074

>  <SCORE.INTER.VDW>
-29.3841

>  <SCORE.INTER.norm>
-1.0011

>  <SCORE.INTRA>
11.3668

>  <SCORE.INTRA.DIHEDRAL>
-20.8086

>  <SCORE.INTRA.DIHEDRAL.0>
48.7173

>  <SCORE.INTRA.POLAR>
1.12319

>  <SCORE.INTRA.POLAR.0>
-1.54691

>  <SCORE.INTRA.REPUL>
0

>  <SCORE.INTRA.REPUL.0>
0

>  <SCORE.INTRA.SOLV>
1.94063

>  <SCORE.INTRA.SOLV.lig_0>
-64.052

>  <SCORE.INTRA.VDW>
16.9819

>  <SCORE.INTRA.VDW.0>
-7.0667

>  <SCORE.INTRA.norm>
0.270637

>  <SCORE.RESTR>
3.823

>  <SCORE.RESTR.CAVITY>
3.823

>  <SCORE.RESTR.norm>
0.0910238

>  <SCORE.SYSTEM>
0

>  <SCORE.SYSTEM.CONST>
0

>  <SCORE.SYSTEM.DIHEDRAL>
0

>  <SCORE.SYSTEM.SOLV>
0

>  <SCORE.SYSTEM.norm>
0

>  <SCORE.heavy>
42

>  <SCORE.norm>
-0.63944

>  <RMSD>
8.663

$$$$
1fyp_lig
 OpenBabel11021811393D
libRbt.so/2013.1/901 2013/11/27
 42 45  0  0  0  0  0  0  0  0999 V2000
    2.2936    2.5016   29.5860 C   0  0  2  0  0  0  0  0  0  0  0  0
    3.1913    3.5766   29.1850 O   0  0  0  0  0  0  0  0  0  0  0  0
    6.3478    5.5453   31.2829 C   0  0  2  0  0  0  0  0  0  0  0  0
    7.5766    5.9101   32.0120 N   0  0  0  0  0  0  0  0  0  0  0  0
    5.2621    4.8494   26.5381 C   0  0  1  0  0  0  0  0  0  0  0  0
    4.0111    6.8338   23.9110 C   0  0  1  0  0  0  0  0  0  0  0  0
    2.4869    1.2322   28.6953 C   0  0  2  0  0  0  0  0  0  0  0  0
    3.9114    0.8445   28.6163 N   0  0  0  0  0  0  0  0  0  0  0  0
    5.6483    4.3786   32.0084 C   0  0  0  0  0  0  0  0  0  0  0  0
    4.3457    3.8719   25.7975 C   0  0  2  0  0  0  0  0  0  0  0  0
    5.0936    3.1832   24.7946 O   0  0  0  0  0  0  0  0  0  0  0  0
    2.6658    7.6056   24.0702 C   0  0  2  0  0  0  0  0  0  0  0  0
    1.5986    7.0832   23.1822 N   0  0  0  0  0  0  0  0  0  0  0  0
    1.9085    1.4635   27.2643 C   0  0  1  0  0  0  0  0  0  0  0  0
    1.9477    0.2508   26.5162 O   0  0  0  0  0  0  0  0  0  0  0  0
    4.3272    3.9584   31.3079 C   0  0  2  0  0  0  0  0  0  0  0  0
    3.7846    2.7897   32.0314 N   0  0  0  0  0  0  0  0  0  0  0  0
    3.3173    4.8185   25.1724 C   0  0  2  0  0  0  0  0  0  0  0  0
    3.8025    5.3976   23.9291 O   0  0  0  0  0  0  0  0  0  0  0  0
    2.8761    9.1373   23.8639 C   0  0  1  0  0  0  0  0  0  0  0  0
    3.5482    9.6609   25.0074 O   0  0  0  0  0  0  0  0  0  0  0  0
    0.4442    1.9676   27.3091 C   0  0  2  0  0  0  0  0  0  0  0  0
    0.0079    2.2474   25.9825 O   0  0  0  0  0  0  0  0  0  0  0  0
    4.5189    3.6489   29.7796 C   0  0  2  0  0  0  0  0  0  0  0  0
    3.1769    5.8999   26.2527 C   0  0  2  0  0  0  0  0  0  0  0  0
    4.4653    5.9915   26.8910 O   0  0  0  0  0  0  0  0  0  0  0  0
    3.7112    9.5003   22.5986 C   0  0  2  0  0  0  0  0  0  0  0  0
    2.9018    9.2815   21.4421 O   0  0  0  0  0  0  0  0  0  0  0  0
    0.3371    3.2377   28.1999 C   0  0  2  0  0  0  0  0  0  0  0  0
    0.8974    2.9475   29.5159 O   0  0  0  0  0  0  0  0  0  0  0  0
    5.3634    4.7454   29.0348 C   0  0  2  0  0  0  0  0  0  0  0  0
    5.7627    4.2097   27.7464 O   0  0  0  0  0  0  0  0  0  0  0  0
    2.0922    5.5740   27.2948 C   0  0  0  0  0  0  0  0  0  0  0  0
    1.5154    6.7606   27.8115 O   0  0  0  0  0  0  0  0  0  0  0  0
    5.0060    8.6331   22.5221 C   0  0  1  0  0  0  0  0  0  0  0  0
    4.6588    7.2206   22.6515 O   0  0  0  0  0  0  0  0  0  0  0  0
   -1.1029    3.7459   28.4347 C   0  0  0  0  0  0  0  0  0  0  0  0
   -1.1144    5.1220   28.7745 O   0  0  0  0  0  0  0  0  0  0  0  0
    6.6500    5.1572   29.8155 C   0  0  1  0  0  0  0  0  0  0  0  0
    7.2538    6.2672   29.1527 O   0  0  0  0  0  0  0  0  0  0  0  0
    5.7886    8.8424   21.2003 C   0  0  0  0  0  0  0  0  0  0  0  0
    5.9072   10.2656   20.8352 N   0  0  0  0  0  0  0  0  0  0  0  0
  1  2  1  6  0  0  0
  1  7  1  0  0  0  0
  1 30  1  0  0  0  0
  3  4  1  1  0  0  0
  3  9  1  0  0  0  0
  3 39  1  0  0  0  0
  5 10  1  0  0  0  0
  5 26  1  0  0  0  0
  5 32  1  1  0  0  0
  6 12  1  0  0  0  0
  6 36  1  0  0  0  0
  6 19  1  6  0  0  0
  7  8  1  6  0  0  0
  7 14  1  0  0  0  0
  9 16  1  0  0  0  0
 10 11  1  6  0  0  0
 10 18  1  0  0  0  0
 12 13  1  6  0  0  0
 12 20  1  0  0  0  0
 14 15  1  6  0  0  0
 14 22  1  0  0  0  0
 16 17  1  1  0  0  0
 16 24  1  0  0  0  0
 18 19  1  6  0  0  0
 18 25  1  0  0  0  0
 20 21  1  1  0  0  0
 20 27  1  0  0  0  0
 22 23  1  6  0  0  0
 22 29  1  0  0  0  0
 24  2  1  6  0  0  0
 24 31  1  0  0  0  0
 25 26  1  0  0  0  0
 25 33  1  1  0  0  0
 27 28  1  6  0  0  0
 27 35  1  0  0  0  0
 29 30  1  0  0  0  0
 29 37  1  1  0  0  0
 31 32  1  6  0  0  0
 31 39  1  0  0  0  0
 33 34  1  0  0  0  0
 35 36  1  0  0  0  0
 35 41  1  6  0  0  0
 37 38  1  0  0  0  0
 39 40  1  6  0  0  0
 41 42  1  0  0  0  0
M  END
>  <CHROM.1>
-88.74871162,-65.86821685,-171.44104833,74.47386133,76.94382400,-21.72492505
67.23107028,-58.46274600,-115.18899531,-65.60745545,-61.87176367,176.18219751
-149.96616398,68.24292518,-156.98237943,116.02093375,-114.47808135,91.63326402
44.79167416,-156.93579877,-174.42596499,170.24492017,3.50963991,5.15583979
26.83443938,1.68345637,0.55683460,2.16864635

>  <Name>
1fyp_lig

>  <RI>
0

>  <Rbt.Current_Directory>
/home/itssahil/PROJECTS/Mol_Feturizer/New_Systems/rnas/1fyp

>  <Rbt.Executable>
rbdock ($Id: //depot/dev/client3/rdock/2013.1/src/exe/rbdock.cxx#4 $)

>  <Rbt.Library>
libRbt.so (2013.1, Build901 2013/11/27)

>  <Rbt.Parameter_File>
/export/apps/rDock/src/rDock_2013.1_src/data/scripts/dock_solv.prm

>  <Rbt.Receptor>
prm/pocket_docking_4.prm

>  <SCORE>
-49.5221

>  <SCORE.INTER>
-55.6656

>  <SCORE.INTER.CONST>
1

>  <SCORE.INTER.POLAR>
-7.70963

>  <SCORE.INTER.ROT>
14

>  <SCORE.INTER.SOLV>
20.307

>  <SCORE.INTER.VDW>
-31.114

>  <SCORE.INTER.norm>
-1.32537

>  <SCORE.INTRA>
4.71139

>  <SCORE.INTRA.DIHEDRAL>
-8.09404

>  <SCORE.INTRA.DIHEDRAL.0>
48.7173

>  <SCORE.INTRA.POLAR>
1.54691

>  <SCORE.INTRA.POLAR.0>
-1.54691

>  <SCORE.INTRA.REPUL>
0

>  <SCORE.INTRA.REPUL.0>
0

>  <SCORE.INTRA.SOLV>
-0.958451

>  <SCORE.INTRA.SOLV.lig_0>
-64.052

>  <SCORE.INTRA.VDW>
3.97812

>  <SCORE.INTRA.VDW.0>
-7.0667

>  <SCORE.INTRA.norm>
0.112176

>  <SCORE.RESTR>
1.43216

>  <SCORE.RESTR.CAVITY>
1.43216

>  <SCORE.RESTR.norm>
0.034099

>  <SCORE.SYSTEM>
0

>  <SCORE.SYSTEM.CONST>
0

>  <SCORE.SYSTEM.DIHEDRAL>
0

>  <SCORE.SYSTEM.SOLV>
0

>  <SCORE.SYSTEM.norm>
0

>  <SCORE.heavy>
42

>  <SCORE.norm>
-1.1791

>  <RMSD>
8.687

$$$$
1fyp_lig
 OpenBabel11021811393D
libRbt.so/2013.1/901 2013/11/27
 42 45  0  0  0  0  0  0  0  0999 V2000
    3.5403    6.1208   28.5696 C   0  0  2  0  0  0  0  0  0  0  0  0
    4.0966    6.0375   27.2257 O   0  0  0  0  0  0  0  0  0  0  0  0
    3.0115    7.1864   23.2579 C   0  0  2  0  0  0  0  0  0  0  0  0
    2.5349    7.8730   22.0431 N   0  0  0  0  0  0  0  0  0  0  0  0
    6.5262    7.4914   26.8986 C   0  0  1  0  0  0  0  0  0  0  0  0
    9.0161    6.4506   29.8998 C   0  0  1  0  0  0  0  0  0  0  0  0
    4.5935    5.7171   29.6511 C   0  0  2  0  0  0  0  0  0  0  0  0
    5.8620    6.4535   29.4656 N   0  0  0  0  0  0  0  0  0  0  0  0
    1.8871    7.1707   24.3127 C   0  0  0  0  0  0  0  0  0  0  0  0
    7.3767    6.2768   26.5176 C   0  0  2  0  0  0  0  0  0  0  0  0
    6.6458    5.0795   26.7853 O   0  0  0  0  0  0  0  0  0  0  0  0
    9.5579    5.3398   30.8505 C   0  0  2  0  0  0  0  0  0  0  0  0
    8.5309    4.3231   31.1850 N   0  0  0  0  0  0  0  0  0  0  0  0
    4.8525    4.1781   29.6281 C   0  0  1  0  0  0  0  0  0  0  0  0
    5.6904    3.8041   30.7188 O   0  0  0  0  0  0  0  0  0  0  0  0
    2.3119    6.4362   25.6137 C   0  0  2  0  0  0  0  0  0  0  0  0
    1.1994    6.5493   26.5797 N   0  0  0  0  0  0  0  0  0  0  0  0
    8.5720    6.4219   27.4635 C   0  0  2  0  0  0  0  0  0  0  0  0
    8.2848    5.8808   28.7831 O   0  0  0  0  0  0  0  0  0  0  0  0
   10.1781    5.9645   32.1382 C   0  0  1  0  0  0  0  0  0  0  0  0
   11.4250    6.5655   31.7953 O   0  0  0  0  0  0  0  0  0  0  0  0
    3.5337    3.3704   29.7205 C   0  0  2  0  0  0  0  0  0  0  0  0
    3.8292    1.9822   29.6006 O   0  0  0  0  0  0  0  0  0  0  0  0
    3.6534    6.9890   26.2160 C   0  0  2  0  0  0  0  0  0  0  0  0
    8.7459    7.9456   27.5310 C   0  0  2  0  0  0  0  0  0  0  0  0
    7.4249    8.5016   27.3840 O   0  0  0  0  0  0  0  0  0  0  0  0
    9.2841    7.0478   32.8143 C   0  0  2  0  0  0  0  0  0  0  0  0
    8.1851    6.3958   33.4528 O   0  0  0  0  0  0  0  0  0  0  0  0
    2.5466    3.8182   28.6054 C   0  0  2  0  0  0  0  0  0  0  0  0
    2.3558    5.2628   28.6875 O   0  0  0  0  0  0  0  0  0  0  0  0
    4.7819    7.1650   25.1363 C   0  0  2  0  0  0  0  0  0  0  0  0
    5.8356    7.9793   25.7133 O   0  0  0  0  0  0  0  0  0  0  0  0
    9.6763    8.4955   26.4353 C   0  0  0  0  0  0  0  0  0  0  0  0
    9.9820    9.8590   26.6698 O   0  0  0  0  0  0  0  0  0  0  0  0
    8.7635    8.0733   31.7599 C   0  0  1  0  0  0  0  0  0  0  0  0
    8.1400    7.3602   30.6484 O   0  0  0  0  0  0  0  0  0  0  0  0
    1.1415    3.1812   28.6888 C   0  0  0  0  0  0  0  0  0  0  0  0
    0.5716    3.3575   29.9747 O   0  0  0  0  0  0  0  0  0  0  0  0
    4.2768    7.8646   23.8363 C   0  0  1  0  0  0  0  0  0  0  0  0
    5.3165    7.8253   22.8601 O   0  0  0  0  0  0  0  0  0  0  0  0
    7.7413    9.0756   32.3545 C   0  0  0  0  0  0  0  0  0  0  0  0
    7.2521   10.0414   31.3540 N   0  0  0  0  0  0  0  0  0  0  0  0
  1  2  1  6  0  0  0
  1  7  1  0  0  0  0
  1 30  1  0  0  0  0
  3  4  1  6  0  0  0
  3  9  1  0  0  0  0
  3 39  1  0  0  0  0
  5 10  1  0  0  0  0
  5 26  1  0  0  0  0
  5 32  1  6  0  0  0
  6 12  1  0  0  0  0
  6 36  1  0  0  0  0
  6 19  1  6  0  0  0
  7  8  1  6  0  0  0
  7 14  1  0  0  0  0
  9 16  1  0  0  0  0
 10 11  1  1  0  0  0
 10 18  1  0  0  0  0
 12 13  1  1  0  0  0
 12 20  1  0  0  0  0
 14 15  1  1  0  0  0
 14 22  1  0  0  0  0
 16 17  1  1  0  0  0
 16 24  1  0  0  0  0
 18 19  1  1  0  0  0
 18 25  1  0  0  0  0
 20 21  1  6  0  0  0
 20 27  1  0  0  0  0
 22 23  1  6  0  0  0
 22 29  1  0  0  0  0
 24  2  1  1  0  0  0
 24 31  1  0  0  0  0
 25 26  1  0  0  0  0
 25 33  1  6  0  0  0
 27 28  1  6  0  0  0
 27 35  1  0  0  0  0
 29 30  1  0  0  0  0
 29 37  1  1  0  0  0
 31 32  1  1  0  0  0
 31 39  1  0  0  0  0
 33 34  1  0  0  0  0
 35 36  1  0  0  0  0
 35 41  1  1  0  0  0
 37 38  1  0  0  0  0
 39 40  1  6  0  0  0
 41 42  1  0  0  0  0
M  END
>  <CHROM.1>
-146.18443595,-83.39258215,86.59491806,42.10742803,-48.95088545,-16.03134212
61.57522553,-162.45081567,-153.01631577,-134.73446664,62.47834613,175.28744958
-170.26916839,-47.96164595,52.73331131,60.90012253,68.97029165,-176.70885653
-179.96028285,-176.87513756,-50.59698802,154.47957412,5.92140400,6.39482752
28.32529228,2.55847442,-0.47501766,-1.08129507

>  <Name>
1fyp_lig

>  <RI>
0

>  <Rbt.Current_Directory>
/home/itssahil/PROJECTS/Mol_Feturizer/New_Systems/rnas/1fyp

>  <Rbt.Executable>
rbdock ($Id: //depot/dev/client3/rdock/2013.1/src/exe/rbdock.cxx#4 $)

>  <Rbt.Library>
libRbt.so (2013.1, Build901 2013/11/27)

>  <Rbt.Parameter_File>
/export/apps/rDock/src/rDock_2013.1_src/data/scripts/dock_solv.prm

>  <Rbt.Receptor>
prm/pocket_docking_5.prm

>  <SCORE>
-40.2237

>  <SCORE.INTER>
-24.1642

>  <SCORE.INTER.CONST>
1

>  <SCORE.INTER.POLAR>
-3.73106

>  <SCORE.INTER.ROT>
14

>  <SCORE.INTER.SOLV>
14.9836

>  <SCORE.INTER.VDW>
-21.6004

>  <SCORE.INTER.norm>
-0.575337

>  <SCORE.INTRA>
-16.0595

>  <SCORE.INTRA.DIHEDRAL>
-24.977

>  <SCORE.INTRA.DIHEDRAL.0>
48.7173

>  <SCORE.INTRA.POLAR>
-2.08937

>  <SCORE.INTRA.POLAR.0>
-1.54691

>  <SCORE.INTRA.REPUL>
0.00425026

>  <SCORE.INTRA.REPUL.0>
0

>  <SCORE.INTRA.SOLV>
2.30557

>  <SCORE.INTRA.SOLV.lig_0>
-64.052

>  <SCORE.INTRA.VDW>
2.35884

>  <SCORE.INTRA.VDW.0>
-7.0667

>  <SCORE.INTRA.norm>
-0.382369

>  <SCORE.RESTR>
0

>  <SCORE.RESTR.CAVITY>
0

>  <SCORE.RESTR.norm>
0

>  <SCORE.SYSTEM>
0

>  <SCORE.SYSTEM.CONST>
0

>  <SCORE.SYSTEM.DIHEDRAL>
0

>  <SCORE.SYSTEM.SOLV>
0

>  <SCORE.SYSTEM.norm>
0

>  <SCORE.heavy>
42

>  <SCORE.norm>
-0.957706

>  <RMSD>
8.736

$$$$
1fyp_lig
 OpenBabel11021811393D
libRbt.so/2013.1/901 2013/11/27
 42 45  0  0  0  0  0  0  0  0999 V2000
    5.1325    5.9319   28.0122 C   0  0  2  0  0  0  0  0  0  0  0  0
    4.9569    4.6392   27.3638 O   0  0  0  0  0  0  0  0  0  0  0  0
    2.0807    1.8748   25.8385 C   0  0  2  0  0  0  0  0  0  0  0  0
    0.8820    1.0674   25.5455 N   0  0  0  0  0  0  0  0  0  0  0  0
    3.3380    6.2720   24.3144 C   0  0  1  0  0  0  0  0  0  0  0  0
    3.9752    9.0856   20.9479 C   0  0  1  0  0  0  0  0  0  0  0  0
    5.7843    5.7800   29.4243 C   0  0  2  0  0  0  0  0  0  0  0  0
    7.0080    4.9526   29.3640 N   0  0  0  0  0  0  0  0  0  0  0  0
    2.4004    1.7903   27.3444 C   0  0  0  0  0  0  0  0  0  0  0  0
    2.2409    7.1275   23.6755 C   0  0  2  0  0  0  0  0  0  0  0  0
    1.5998    6.3846   22.6380 O   0  0  0  0  0  0  0  0  0  0  0  0
    5.4088    9.6173   21.2531 C   0  0  2  0  0  0  0  0  0  0  0  0
    5.6508    9.8078   22.7041 N   0  0  0  0  0  0  0  0  0  0  0  0
    4.7696    5.1725   30.4428 C   0  0  1  0  0  0  0  0  0  0  0  0
    5.3227    5.1876   31.7564 O   0  0  0  0  0  0  0  0  0  0  0  0
    3.6721    2.5984   27.7214 C   0  0  2  0  0  0  0  0  0  0  0  0
    3.8402    2.5176   29.1873 N   0  0  0  0  0  0  0  0  0  0  0  0
    3.0478    8.2970   23.1048 C   0  0  2  0  0  0  0  0  0  0  0  0
    3.6291    7.9715   21.8115 O   0  0  0  0  0  0  0  0  0  0  0  0
    5.6985   10.9246   20.4532 C   0  0  1  0  0  0  0  0  0  0  0  0
    5.8949   10.5835   19.0825 O   0  0  0  0  0  0  0  0  0  0  0  0
    3.4332    5.9561   30.4619 C   0  0  2  0  0  0  0  0  0  0  0  0
    2.5216    5.2996   31.3375 O   0  0  0  0  0  0  0  0  0  0  0  0
    3.6143    4.0901   27.2318 C   0  0  2  0  0  0  0  0  0  0  0  0
    4.1472    8.4754   24.1611 C   0  0  2  0  0  0  0  0  0  0  0  0
    4.4002    7.1612   24.6949 O   0  0  0  0  0  0  0  0  0  0  0  0
    4.5592   11.9855   20.5333 C   0  0  2  0  0  0  0  0  0  0  0  0
    4.5772   12.5739   21.8349 O   0  0  0  0  0  0  0  0  0  0  0  0
    2.8419    6.0508   29.0267 C   0  0  2  0  0  0  0  0  0  0  0  0
    3.8440    6.6232   28.1334 O   0  0  0  0  0  0  0  0  0  0  0  0
    3.1412    4.2260   25.7392 C   0  0  2  0  0  0  0  0  0  0  0  0
    2.8010    5.6162   25.4983 O   0  0  0  0  0  0  0  0  0  0  0  0
    3.7455    9.4377   25.2930 C   0  0  0  0  0  0  0  0  0  0  0  0
    3.4914   10.7361   24.7857 O   0  0  0  0  0  0  0  0  0  0  0  0
    3.1708   11.3291   20.2579 C   0  0  1  0  0  0  0  0  0  0  0  0
    2.9974   10.1664   21.1243 O   0  0  0  0  0  0  0  0  0  0  0  0
    1.5812    6.9352   28.9017 C   0  0  0  0  0  0  0  0  0  0  0  0
    0.9721    6.7867   27.6303 O   0  0  0  0  0  0  0  0  0  0  0  0
    1.8905    3.3512   25.4151 C   0  0  1  0  0  0  0  0  0  0  0  0
    1.6424    3.4072   24.0111 O   0  0  0  0  0  0  0  0  0  0  0  0
    1.9908   12.3087   20.4841 C   0  0  0  0  0  0  0  0  0  0  0  0
    2.0030   13.4345   19.5326 N   0  0  0  0  0  0  0  0  0  0  0  0
  1  2  1  1  0  0  0
  1  7  1  0  0  0  0
  1 30  1  0  0  0  0
  3  4  1  1  0  0  0
  3  9  1  0  0  0  0
  3 39  1  0  0  0  0
  5 10  1  0  0  0  0
  5 26  1  0  0  0  0
  5 32  1  1  0  0  0
  6 12  1  0  0  0  0
  6 36  1  0  0  0  0
  6 19  1  1  0  0  0
  7  8  1  6  0  0  0
  7 14  1  0  0  0  0
  9 16  1  0  0  0  0
 10 11  1  6  0  0  0
 10 18  1  0  0  0  0
 12 13  1  1  0  0  0
 12 20  1  0  0  0  0
 14 15  1  1  0  0  0
 14 22  1  0  0  0  0
 16 17  1  1  0  0  0
 16 24  1  0  0  0  0
 18 19  1  6  0  0  0
 18 25  1  0  0  0  0
 20 21  1  6  0  0  0
 20 27  1  0  0  0  0
 22 23  1  1  0  0  0
 22 29  1  0  0  0  0
 24  2  1  6  0  0  0
 24 31  1  0  0  0  0
 25 26  1  0  0  0  0
 25 33  1  1  0  0  0
 27 28  1  1  0  0  0
 27 35  1  0  0  0  0
 29 30  1  0  0  0  0
 29 37  1  1  0  0  0
 31 32  1  1  0  0  0
 31 39  1  0  0  0  0
 33 34  1  0  0  0  0
 35 36  1  0  0  0  0
 35 41  1  1  0  0  0
 37 38  1  0  0  0  0
 39 40  1  6  0  0  0
 41 42  1  0  0  0  0
M  END
>  <CHROM.1>
108.02957073,-131.72223707,56.98008658,176.35749681,-171.82614410,106.39191069
-62.64735725,177.00943673,157.62961337,86.69809379,172.78651497,-175.62306444
-61.66001840,63.88452419,-169.78579988,131.35245752,137.95533484,-49.82993461
64.86977062,-39.64695242,-45.89945439,-163.58150059,3.55716394,7.01548448
25.19131530,-1.64191771,-1.07567195,-0.91801147

>  <Name>
1fyp_lig

>  <RI>
0

>  <Rbt.Current_Directory>
/home/itssahil/PROJECTS/Mol_Feturizer/New_Systems/rnas/1fyp

>  <Rbt.Executable>
rbdock ($Id: //depot/dev/client3/rdock/2013.1/src/exe/rbdock.cxx#4 $)

>  <Rbt.Library>
libRbt.so (2013.1, Build901 2013/11/27)

>  <Rbt.Parameter_File>
/export/apps/rDock/src/rDock_2013.1_src/data/scripts/dock_solv.prm

>  <Rbt.Receptor>
prm/blind_docking_40.prm

>  <SCORE>
7.74349

>  <SCORE.INTER>
6.28724

>  <SCORE.INTER.CONST>
1

>  <SCORE.INTER.POLAR>
-5.10011

>  <SCORE.INTER.ROT>
14

>  <SCORE.INTER.SOLV>
24.3659

>  <SCORE.INTER.VDW>
0.136574

>  <SCORE.INTER.norm>
0.149696

>  <SCORE.INTRA>
1.21517

>  <SCORE.INTRA.DIHEDRAL>
-10.6071

>  <SCORE.INTRA.DIHEDRAL.0>
48.7173

>  <SCORE.INTRA.POLAR>
0.218691

>  <SCORE.INTRA.POLAR.0>
-1.54691

>  <SCORE.INTRA.REPUL>
0.245676

>  <SCORE.INTRA.REPUL.0>
0

>  <SCORE.INTRA.SOLV>
1.56348

>  <SCORE.INTRA.SOLV.lig_0>
-64.052

>  <SCORE.INTRA.VDW>
3.76505

>  <SCORE.INTRA.VDW.0>
-7.0667

>  <SCORE.INTRA.norm>
0.0289326

>  <SCORE.RESTR>
0.241082

>  <SCORE.RESTR.CAVITY>
0.241082

>  <SCORE.RESTR.norm>
0.00574005

>  <SCORE.SYSTEM>
0

>  <SCORE.SYSTEM.CONST>
0

>  <SCORE.SYSTEM.DIHEDRAL>
0

>  <SCORE.SYSTEM.SOLV>
0

>  <SCORE.SYSTEM.norm>
0

>  <SCORE.heavy>
42

>  <SCORE.norm>
0.184369

>  <RMSD>
8.789

$$$$
1fyp_lig
 OpenBabel11021811393D
libRbt.so/2013.1/901 2013/11/27
 42 45  0  0  0  0  0  0  0  0999 V2000
    3.4867    3.5625   25.5445 C   0  0  2  0  0  0  0  0  0  0  0  0
    2.6369    4.6544   26.0008 O   0  0  0  0  0  0  0  0  0  0  0  0
    3.0361    8.6523   24.5523 C   0  0  2  0  0  0  0  0  0  0  0  0
    3.3463   10.0791   24.3465 N   0  0  0  0  0  0  0  0  0  0  0  0
    6.0837    5.7737   26.0170 C   0  0  1  0  0  0  0  0  0  0  0  0
    9.1580    6.8123   28.8531 C   0  0  1  0  0  0  0  0  0  0  0  0
    2.6504    2.2823   25.2227 C   0  0  2  0  0  0  0  0  0  0  0  0
    1.5171    2.5936   24.3257 N   0  0  0  0  0  0  0  0  0  0  0  0
    2.3425    8.4699   25.9171 C   0  0  0  0  0  0  0  0  0  0  0  0
    7.5373    5.4200   25.6920 C   0  0  2  0  0  0  0  0  0  0  0  0
    7.8018    4.0747   26.0916 O   0  0  0  0  0  0  0  0  0  0  0  0
    9.7156    6.0062   30.0657 C   0  0  2  0  0  0  0  0  0  0  0  0
    8.7039    5.1016   30.6643 N   0  0  0  0  0  0  0  0  0  0  0  0
    2.1346    1.6108   26.5338 C   0  0  1  0  0  0  0  0  0  0  0  0
    1.5120    0.3638   26.2355 O   0  0  0  0  0  0  0  0  0  0  0  0
    1.9610    6.9890   26.1892 C   0  0  2  0  0  0  0  0  0  0  0  0
    1.3811    6.9144   27.5464 N   0  0  0  0  0  0  0  0  0  0  0  0
    8.3052    6.4195   26.5613 C   0  0  2  0  0  0  0  0  0  0  0  0
    8.4365    5.9525   27.9329 O   0  0  0  0  0  0  0  0  0  0  0  0
   10.3251    6.9631   31.1361 C   0  0  1  0  0  0  0  0  0  0  0  0
   11.5631    7.4683   30.6403 O   0  0  0  0  0  0  0  0  0  0  0  0
    3.2832    1.3590   27.5426 C   0  0  2  0  0  0  0  0  0  0  0  0
    2.7363    0.8336   28.7483 O   0  0  0  0  0  0  0  0  0  0  0  0
    3.1768    6.0068   26.0297 C   0  0  2  0  0  0  0  0  0  0  0  0
    7.4039    7.6604   26.4976 C   0  0  2  0  0  0  0  0  0  0  0  0
    6.0566    7.1651   26.3737 O   0  0  0  0  0  0  0  0  0  0  0  0
    9.4141    8.1749   31.4989 C   0  0  2  0  0  0  0  0  0  0  0  0
    8.3245    7.7023   32.2927 O   0  0  0  0  0  0  0  0  0  0  0  0
    4.0561    2.6792   27.8218 C   0  0  2  0  0  0  0  0  0  0  0  0
    4.5035    3.2486   26.5548 O   0  0  0  0  0  0  0  0  0  0  0  0
    4.0036    6.2650   24.7183 C   0  0  2  0  0  0  0  0  0  0  0  0
    5.2648    5.5560   24.8330 O   0  0  0  0  0  0  0  0  0  0  0  0
    7.7373    8.5878   25.3155 C   0  0  0  0  0  0  0  0  0  0  0  0
    9.0221    9.1644   25.4726 O   0  0  0  0  0  0  0  0  0  0  0  0
    8.8790    8.8713   30.2093 C   0  0  1  0  0  0  0  0  0  0  0  0
    8.2675    7.8765   29.3324 O   0  0  0  0  0  0  0  0  0  0  0  0
    5.3144    2.5200   28.7040 C   0  0  0  0  0  0  0  0  0  0  0  0
    6.4855    2.9071   28.0053 O   0  0  0  0  0  0  0  0  0  0  0  0
    4.3099    7.7762   24.4794 C   0  0  1  0  0  0  0  0  0  0  0  0
    4.9077    7.9257   23.1926 O   0  0  0  0  0  0  0  0  0  0  0  0
    7.8412    9.9813   30.5159 C   0  0  0  0  0  0  0  0  0  0  0  0
    7.3971    9.9645   31.9214 N   0  0  0  0  0  0  0  0  0  0  0  0
  1  2  1  1  0  0  0
  1  7  1  0  0  0  0
  1 30  1  0  0  0  0
  3  4  1  1  0  0  0
  3  9  1  0  0  0  0
  3 39  1  0  0  0  0
  5 10  1  0  0  0  0
  5 26  1  0  0  0  0
  5 32  1  6  0  0  0
  6 12  1  0  0  0  0
  6 36  1  0  0  0  0
  6 19  1  6  0  0  0
  7  8  1  6  0  0  0
  7 14  1  0  0  0  0
  9 16  1  0  0  0  0
 10 11  1  1  0  0  0
 10 18  1  0  0  0  0
 12 13  1  1  0  0  0
 12 20  1  0  0  0  0
 14 15  1  6  0  0  0
 14 22  1  0  0  0  0
 16 17  1  1  0  0  0
 16 24  1  0  0  0  0
 18 19  1  1  0  0  0
 18 25  1  0  0  0  0
 20 21  1  6  0  0  0
 20 27  1  0  0  0  0
 22 23  1  1  0  0  0
 22 29  1  0  0  0  0
 24  2  1  6  0  0  0
 24 31  1  0  0  0  0
 25 26  1  0  0  0  0
 25 33  1  6  0  0  0
 27 28  1  1  0  0  0
 27 35  1  0  0  0  0
 29 30  1  0  0  0  0
 29 37  1  1  0  0  0
 31 32  1  1  0  0  0
 31 39  1  0  0  0  0
 33 34  1  0  0  0  0
 35 36  1  0  0  0  0
 35 41  1  1  0  0  0
 37 38  1  0  0  0  0
 39 40  1  6  0  0  0
 41 42  1  0  0  0  0
M  END
>  <CHROM.1>
-164.90148652,165.42380016,75.82792782,-40.89185346,-64.45303887,-48.27378656
-174.46496920,69.94632376,179.48843344,-157.36452305,-56.90301372,171.84604505
-66.13885034,65.82706024,118.33800219,-52.51929293,-157.19953472,-64.35108615
-10.89811977,-171.12860905,74.50505781,-138.73881058,5.77538612,5.90081908
27.31047119,-2.89877340,-0.71769778,-0.46097724

>  <Name>
1fyp_lig

>  <RI>
0

>  <Rbt.Current_Directory>
/home/itssahil/PROJECTS/Mol_Feturizer/New_Systems/rnas/1fyp

>  <Rbt.Executable>
rbdock ($Id: //depot/dev/client3/rdock/2013.1/src/exe/rbdock.cxx#4 $)

>  <Rbt.Library>
libRbt.so (2013.1, Build901 2013/11/27)

>  <Rbt.Parameter_File>
/export/apps/rDock/src/rDock_2013.1_src/data/scripts/dock_solv.prm

>  <Rbt.Receptor>
prm/pocket_docking_5.prm

>  <SCORE>
-53.6961

>  <SCORE.INTER>
-48.1746

>  <SCORE.INTER.CONST>
1

>  <SCORE.INTER.POLAR>
-6.37618

>  <SCORE.INTER.ROT>
14

>  <SCORE.INTER.SOLV>
19.8601

>  <SCORE.INTER.VDW>
-30.4158

>  <SCORE.INTER.norm>
-1.14701

>  <SCORE.INTRA>
-5.52153

>  <SCORE.INTRA.DIHEDRAL>
-25.7354

>  <SCORE.INTRA.DIHEDRAL.0>
48.7173

>  <SCORE.INTRA.POLAR>
0.835694

>  <SCORE.INTRA.POLAR.0>
-1.54691

>  <SCORE.INTRA.REPUL>
0.0997382

>  <SCORE.INTRA.REPUL.0>
0

>  <SCORE.INTRA.SOLV>
0.00710648

>  <SCORE.INTRA.SOLV.lig_0>
-64.052

>  <SCORE.INTRA.VDW>
4.00255

>  <SCORE.INTRA.VDW.0>
-7.0667

>  <SCORE.INTRA.norm>
-0.131465

>  <SCORE.RESTR>
0

>  <SCORE.RESTR.CAVITY>
0

>  <SCORE.RESTR.norm>
0

>  <SCORE.SYSTEM>
0

>  <SCORE.SYSTEM.CONST>
0

>  <SCORE.SYSTEM.DIHEDRAL>
0

>  <SCORE.SYSTEM.SOLV>
0

>  <SCORE.SYSTEM.norm>
0

>  <SCORE.heavy>
42

>  <SCORE.norm>
-1.27848

>  <RMSD>
8.851

$$$$
1fyp_lig
 OpenBabel11021811393D
libRbt.so/2013.1/901 2013/11/27
 42 45  0  0  0  0  0  0  0  0999 V2000
    1.2212    3.0774   30.6359 C   0  0  2  0  0  0  0  0  0  0  0  0
    1.0647    1.9720   29.7000 O   0  0  0  0  0  0  0  0  0  0  0  0
    0.6916    0.9551   25.5687 C   0  0  2  0  0  0  0  0  0  0  0  0
    0.4152    0.9143   24.1208 N   0  0  0  0  0  0  0  0  0  0  0  0
    2.7271    4.4323   26.9266 C   0  0  1  0  0  0  0  0  0  0  0  0
    3.2731    8.3654   24.9842 C   0  0  1  0  0  0  0  0  0  0  0  0
    2.6272    3.0555   31.3177 C   0  0  2  0  0  0  0  0  0  0  0  0
    3.7077    2.9430   30.3149 N   0  0  0  0  0  0  0  0  0  0  0  0
   -0.6110    1.2704   26.3308 C   0  0  0  0  0  0  0  0  0  0  0  0
    3.6611    5.5222   27.4588 C   0  0  2  0  0  0  0  0  0  0  0  0
    2.9640    6.3236   28.4135 O   0  0  0  0  0  0  0  0  0  0  0  0
    2.3279    8.4015   23.7446 C   0  0  2  0  0  0  0  0  0  0  0  0
    2.1457    7.0657   23.1259 N   0  0  0  0  0  0  0  0  0  0  0  0
    2.7254    1.8912   32.3525 C   0  0  1  0  0  0  0  0  0  0  0  0
    3.9492    1.9800   33.0778 O   0  0  0  0  0  0  0  0  0  0  0  0
   -0.3990    1.3022   27.8692 C   0  0  2  0  0  0  0  0  0  0  0  0
   -1.6809    1.6900   28.4936 N   0  0  0  0  0  0  0  0  0  0  0  0
    3.9724    6.3168   26.1875 C   0  0  2  0  0  0  0  0  0  0  0  0
    2.9256    7.2800   25.8831 O   0  0  0  0  0  0  0  0  0  0  0  0
    2.8224    9.4482   22.6992 C   0  0  1  0  0  0  0  0  0  0  0  0
    2.5498   10.7546   23.2017 O   0  0  0  0  0  0  0  0  0  0  0  0
    1.5510    1.9175   33.3626 C   0  0  2  0  0  0  0  0  0  0  0  0
    1.6468    0.7817   34.2168 O   0  0  0  0  0  0  0  0  0  0  0  0
    0.7653    2.2629   28.3046 C   0  0  2  0  0  0  0  0  0  0  0  0
    4.0172    5.2133   25.1213 C   0  0  2  0  0  0  0  0  0  0  0  0
    3.0782    4.2089   25.5515 O   0  0  0  0  0  0  0  0  0  0  0  0
    4.3451    9.3569   22.3785 C   0  0  2  0  0  0  0  0  0  0  0  0
    4.5719    8.1956   21.5781 O   0  0  0  0  0  0  0  0  0  0  0  0
    0.1905    1.9227   32.6095 C   0  0  2  0  0  0  0  0  0  0  0  0
    0.1729    3.0323   31.6616 O   0  0  0  0  0  0  0  0  0  0  0  0
    2.0668    2.0762   27.4436 C   0  0  2  0  0  0  0  0  0  0  0  0
    2.9378    3.2106   27.6901 O   0  0  0  0  0  0  0  0  0  0  0  0
    5.4157    4.5930   24.9539 C   0  0  0  0  0  0  0  0  0  0  0  0
    5.5089    3.3621   25.6495 O   0  0  0  0  0  0  0  0  0  0  0  0
    5.1841    9.2785   23.6917 C   0  0  1  0  0  0  0  0  0  0  0  0
    4.6647    8.2114   24.5426 O   0  0  0  0  0  0  0  0  0  0  0  0
   -1.0507    2.0936   33.5134 C   0  0  0  0  0  0  0  0  0  0  0  0
   -0.8725    3.1534   34.4378 O   0  0  0  0  0  0  0  0  0  0  0  0
    1.7779    2.0026   25.9120 C   0  0  1  0  0  0  0  0  0  0  0  0
    2.9860    1.6638   25.2327 O   0  0  0  0  0  0  0  0  0  0  0  0
    6.6900    9.0248   23.4250 C   0  0  0  0  0  0  0  0  0  0  0  0
    7.4481    8.7801   24.6653 N   0  0  0  0  0  0  0  0  0  0  0  0
  1  2  1  6  0  0  0
  1  7  1  0  0  0  0
  1 30  1  0  0  0  0
  3  4  1  6  0  0  0
  3  9  1  0  0  0  0
  3 39  1  0  0  0  0
  5 10  1  0  0  0  0
  5 26  1  0  0  0  0
  5 32  1  1  0  0  0
  6 12  1  0  0  0  0
  6 36  1  0  0  0  0
  6 19  1  1  0  0  0
  7  8  1  6  0  0  0
  7 14  1  0  0  0  0
  9 16  1  0  0  0  0
 10 11  1  1  0  0  0
 10 18  1  0  0  0  0
 12 13  1  6  0  0  0
 12 20  1  0  0  0  0
 14 15  1  1  0  0  0
 14 22  1  0  0  0  0
 16 17  1  1  0  0  0
 16 24  1  0  0  0  0
 18 19  1  6  0  0  0
 18 25  1  0  0  0  0
 20 21  1  1  0  0  0
 20 27  1  0  0  0  0
 22 23  1  1  0  0  0
 22 29  1  0  0  0  0
 24  2  1  1  0  0  0
 24 31  1  0  0  0  0
 25 26  1  0  0  0  0
 25 33  1  1  0  0  0
 27 28  1  6  0  0  0
 27 35  1  0  0  0  0
 29 30  1  0  0  0  0
 29 37  1  1  0  0  0
 31 32  1  6  0  0  0
 31 39  1  0  0  0  0
 33 34  1  0  0  0  0
 35 36  1  0  0  0  0
 35 41  1  6  0  0  0
 37 38  1  0  0  0  0
 39 40  1  6  0  0  0
 41 42  1  0  0  0  0
M  END
>  <CHROM.1>
-121.73240454,-133.80945995,31.82331083,29.99577368,-173.38518815,178.79890340
-62.55427088,179.81406428,161.00171927,123.05479545,74.35643906,-60.50101240
99.75545809,61.25242400,47.08090556,-84.39151747,174.18772658,56.09335242
-172.67175006,71.83938801,-70.59107930,-24.11257067,2.54738001,4.51032965
27.35697163,-2.18046768,-0.99008308,-1.44007766

>  <Name>
1fyp_lig

>  <RI>
0

>  <Rbt.Current_Directory>
/home/itssahil/PROJECTS/Mol_Feturizer/New_Systems/rnas/1fyp

>  <Rbt.Executable>
rbdock ($Id: //depot/dev/client3/rdock/2013.1/src/exe/rbdock.cxx#4 $)

>  <Rbt.Library>
libRbt.so (2013.1, Build901 2013/11/27)

>  <Rbt.Parameter_File>
/export/apps/rDock/src/rDock_2013.1_src/data/scripts/dock_solv.prm

>  <Rbt.Receptor>
prm/pocket_docking_8.prm

>  <SCORE>
-56.9573

>  <SCORE.INTER>
-54.0073

>  <SCORE.INTER.CONST>
1

>  <SCORE.INTER.POLAR>
-7.52414

>  <SCORE.INTER.ROT>
14

>  <SCORE.INTER.SOLV>
17.3521

>  <SCORE.INTER.VDW>
-29.6418

>  <SCORE.INTER.norm>
-1.28589

>  <SCORE.INTRA>
-2.96435

>  <SCORE.INTRA.DIHEDRAL>
-11.8428

>  <SCORE.INTRA.DIHEDRAL.0>
48.7173

>  <SCORE.INTRA.POLAR>
-0.498274

>  <SCORE.INTRA.POLAR.0>
-1.54691

>  <SCORE.INTRA.REPUL>
0

>  <SCORE.INTRA.REPUL.0>
0

>  <SCORE.INTRA.SOLV>
0.36326

>  <SCORE.INTRA.SOLV.lig_0>
-64.052

>  <SCORE.INTRA.VDW>
4.46954

>  <SCORE.INTRA.VDW.0>
-7.0667

>  <SCORE.INTRA.norm>
-0.0705798

>  <SCORE.RESTR>
0.0143214

>  <SCORE.RESTR.CAVITY>
0.0143214

>  <SCORE.RESTR.norm>
0.000340986

>  <SCORE.SYSTEM>
0

>  <SCORE.SYSTEM.CONST>
0

>  <SCORE.SYSTEM.DIHEDRAL>
0

>  <SCORE.SYSTEM.SOLV>
0

>  <SCORE.SYSTEM.norm>
0

>  <SCORE.heavy>
42

>  <SCORE.norm>
-1.35613

>  <RMSD>
8.855

$$$$
1fyp_lig
 OpenBabel11021811393D
libRbt.so/2013.1/901 2013/11/27
 42 45  0  0  0  0  0  0  0  0999 V2000
    2.4140    3.4710   26.9524 C   0  0  2  0  0  0  0  0  0  0  0  0
    1.7866    4.7412   26.6130 O   0  0  0  0  0  0  0  0  0  0  0  0
    2.7580    8.2028   24.3077 C   0  0  2  0  0  0  0  0  0  0  0  0
    3.3428    9.4346   23.7462 N   0  0  0  0  0  0  0  0  0  0  0  0
    5.4994    5.0344   25.1724 C   0  0  1  0  0  0  0  0  0  0  0  0
    8.8004    6.4073   27.8425 C   0  0  1  0  0  0  0  0  0  0  0  0
    1.3662    2.3132   27.0135 C   0  0  2  0  0  0  0  0  0  0  0  0
    0.5330    2.2791   25.7927 N   0  0  0  0  0  0  0  0  0  0  0  0
    2.4232    8.4262   25.7960 C   0  0  0  0  0  0  0  0  0  0  0  0
    5.4403    5.6071   26.5910 C   0  0  2  0  0  0  0  0  0  0  0  0
    5.3683    7.0320   26.5278 O   0  0  0  0  0  0  0  0  0  0  0  0
    8.0878    7.1977   28.9820 C   0  0  2  0  0  0  0  0  0  0  0  0
    7.2068    8.2740   28.4665 N   0  0  0  0  0  0  0  0  0  0  0  0
    0.4648    2.4453   28.2808 C   0  0  1  0  0  0  0  0  0  0  0  0
   -0.3761    1.3013   28.4075 O   0  0  0  0  0  0  0  0  0  0  0  0
    1.7761    7.1734   26.4473 C   0  0  2  0  0  0  0  0  0  0  0  0
    1.5719    7.4649   27.8816 N   0  0  0  0  0  0  0  0  0  0  0  0
    6.7787    5.1433   27.1724 C   0  0  2  0  0  0  0  0  0  0  0  0
    7.8676    6.0315   26.7959 O   0  0  0  0  0  0  0  0  0  0  0  0
    9.1254    7.7551   30.0046 C   0  0  1  0  0  0  0  0  0  0  0  0
    9.6191    6.6698   30.7869 O   0  0  0  0  0  0  0  0  0  0  0  0
    1.3060    2.5840   29.5744 C   0  0  2  0  0  0  0  0  0  0  0  0
    0.4306    2.7937   30.6782 O   0  0  0  0  0  0  0  0  0  0  0  0
    2.6290    5.8701   26.2423 C   0  0  2  0  0  0  0  0  0  0  0  0
    6.9543    3.7663   26.5172 C   0  0  2  0  0  0  0  0  0  0  0  0
    6.3249    3.8599   25.2245 O   0  0  0  0  0  0  0  0  0  0  0  0
   10.3417    8.4760   29.3481 C   0  0  2  0  0  0  0  0  0  0  0  0
    9.9033    9.7386   28.8439 O   0  0  0  0  0  0  0  0  0  0  0  0
    2.3113    3.7630   29.4413 C   0  0  2  0  0  0  0  0  0  0  0  0
    3.1145    3.5731   28.2377 O   0  0  0  0  0  0  0  0  0  0  0  0
    3.1206    5.6876   24.7607 C   0  0  2  0  0  0  0  0  0  0  0  0
    4.1547    4.6692   24.7504 O   0  0  0  0  0  0  0  0  0  0  0  0
    6.3207    2.6252   27.3327 C   0  0  0  0  0  0  0  0  0  0  0  0
    5.9942    3.0603   28.6411 O   0  0  0  0  0  0  0  0  0  0  0  0
   10.9401    7.6133   28.1940 C   0  0  1  0  0  0  0  0  0  0  0  0
    9.8776    7.2245   27.2707 O   0  0  0  0  0  0  0  0  0  0  0  0
    3.3035    3.9053   30.6171 C   0  0  0  0  0  0  0  0  0  0  0  0
    2.6345    4.2610   31.8152 O   0  0  0  0  0  0  0  0  0  0  0  0
    3.7137    6.9956   24.1508 C   0  0  1  0  0  0  0  0  0  0  0  0
    3.9713    6.7799   22.7641 O   0  0  0  0  0  0  0  0  0  0  0  0
   12.0488    8.3561   27.4051 C   0  0  0  0  0  0  0  0  0  0  0  0
   11.5059    9.4048   26.5228 N   0  0  0  0  0  0  0  0  0  0  0  0
  1  2  1  1  0  0  0
  1  7  1  0  0  0  0
  1 30  1  0  0  0  0
  3  4  1  1  0  0  0
  3  9  1  0  0  0  0
  3 39  1  0  0  0  0
  5 10  1  0  0  0  0
  5 26  1  0  0  0  0
  5 32  1  1  0  0  0
  6 12  1  0  0  0  0
  6 36  1  0  0  0  0
  6 19  1  6  0  0  0
  7  8  1  6  0  0  0
  7 14  1  0  0  0  0
  9 16  1  0  0  0  0
 10 11  1  6  0  0  0
 10 18  1  0  0  0  0
 12 13  1  6  0  0  0
 12 20  1  0  0  0  0
 14 15  1  1  0  0  0
 14 22  1  0  0  0  0
 16 17  1  1  0  0  0
 16 24  1  0  0  0  0
 18 19  1  6  0  0  0
 18 25  1  0  0  0  0
 20 21  1  6  0  0  0
 20 27  1  0  0  0  0
 22 23  1  1  0  0  0
 22 29  1  0  0  0  0
 24  2  1  6  0  0  0
 24 31  1  0  0  0  0
 25 26  1  0  0  0  0
 25 33  1  1  0  0  0
 27 28  1  6  0  0  0
 27 35  1  0  0  0  0
 29 30  1  0  0  0  0
 29 37  1  1  0  0  0
 31 32  1  1  0  0  0
 31 39  1  0  0  0  0
 33 34  1  0  0  0  0
 35 36  1  0  0  0  0
 35 41  1  6  0  0  0
 37 38  1  0  0  0  0
 39 40  1  6  0  0  0
 41 42  1  0  0  0  0
M  END
>  <CHROM.1>
-167.50001637,-159.70192091,-80.49862884,-24.03951399,-161.12105128,153.99244137
78.13369490,-27.16475640,135.36349169,-62.25126610,-173.03995857,-67.62779446
-13.56069414,65.95562158,-66.31323707,-78.74427234,56.85015916,81.46906890
-73.70201670,59.32751242,174.02706159,-93.32633485,5.06049545,5.66137993
27.35560577,-2.90310759,-0.42496137,-0.98141884

>  <Name>
1fyp_lig

>  <RI>
0

>  <Rbt.Current_Directory>
/home/itssahil/PROJECTS/Mol_Feturizer/New_Systems/rnas/1fyp

>  <Rbt.Executable>
rbdock ($Id: //depot/dev/client3/rdock/2013.1/src/exe/rbdock.cxx#4 $)

>  <Rbt.Library>
libRbt.so (2013.1, Build901 2013/11/27)

>  <Rbt.Parameter_File>
/export/apps/rDock/src/rDock_2013.1_src/data/scripts/dock_solv.prm

>  <Rbt.Receptor>
prm/pocket_docking_5.prm

>  <SCORE>
-55.2789

>  <SCORE.INTER>
-45.9304

>  <SCORE.INTER.CONST>
1

>  <SCORE.INTER.POLAR>
-6.37155

>  <SCORE.INTER.ROT>
14

>  <SCORE.INTER.SOLV>
14.3868

>  <SCORE.INTER.VDW>
-27.1107

>  <SCORE.INTER.norm>
-1.09358

>  <SCORE.INTRA>
-9.34842

>  <SCORE.INTRA.DIHEDRAL>
-20.8753

>  <SCORE.INTRA.DIHEDRAL.0>
48.7173

>  <SCORE.INTRA.POLAR>
-0.810671

>  <SCORE.INTRA.POLAR.0>
-1.54691

>  <SCORE.INTRA.REPUL>
0.0523967

>  <SCORE.INTRA.REPUL.0>
0

>  <SCORE.INTRA.SOLV>
0.736107

>  <SCORE.INTRA.SOLV.lig_0>
-64.052

>  <SCORE.INTRA.VDW>
3.2155

>  <SCORE.INTRA.VDW.0>
-7.0667

>  <SCORE.INTRA.norm>
-0.222581

>  <SCORE.RESTR>
0

>  <SCORE.RESTR.CAVITY>
0

>  <SCORE.RESTR.norm>
0

>  <SCORE.SYSTEM>
0

>  <SCORE.SYSTEM.CONST>
0

>  <SCORE.SYSTEM.DIHEDRAL>
0

>  <SCORE.SYSTEM.SOLV>
0

>  <SCORE.SYSTEM.norm>
0

>  <SCORE.heavy>
42

>  <SCORE.norm>
-1.31616

>  <RMSD>
8.888

$$$$
1fyp_lig
 OpenBabel11021811393D
libRbt.so/2013.1/901 2013/11/27
 42 45  0  0  0  0  0  0  0  0999 V2000
    4.0731    3.5850   27.3765 C   0  0  2  0  0  0  0  0  0  0  0  0
    2.9263    4.2966   26.8279 O   0  0  0  0  0  0  0  0  0  0  0  0
    2.0947    7.2492   23.8561 C   0  0  2  0  0  0  0  0  0  0  0  0
    2.0230    8.4603   23.0179 N   0  0  0  0  0  0  0  0  0  0  0  0
    5.8637    5.4165   25.7129 C   0  0  1  0  0  0  0  0  0  0  0  0
    8.9558    7.2957   27.9557 C   0  0  1  0  0  0  0  0  0  0  0  0
    3.7119    2.1074   27.7347 C   0  0  2  0  0  0  0  0  0  0  0  0
    3.0526    1.4263   26.6002 N   0  0  0  0  0  0  0  0  0  0  0  0
    1.7640    7.6158   25.3166 C   0  0  0  0  0  0  0  0  0  0  0  0
    7.3042    5.0163   25.3837 C   0  0  2  0  0  0  0  0  0  0  0  0
    7.6468    3.8316   26.1039 O   0  0  0  0  0  0  0  0  0  0  0  0
   10.3920    7.5385   27.3994 C   0  0  2  0  0  0  0  0  0  0  0  0
   11.2023    6.2971   27.3479 N   0  0  0  0  0  0  0  0  0  0  0  0
    2.8042    2.0486   29.0031 C   0  0  1  0  0  0  0  0  0  0  0  0
    2.6147    0.6957   29.4098 O   0  0  0  0  0  0  0  0  0  0  0  0
    1.7942    6.3782   26.2546 C   0  0  2  0  0  0  0  0  0  0  0  0
    1.5457    6.8500   27.6327 N   0  0  0  0  0  0  0  0  0  0  0  0
    8.0907    6.2258   25.8964 C   0  0  2  0  0  0  0  0  0  0  0  0
    8.3331    6.1443   27.3286 O   0  0  0  0  0  0  0  0  0  0  0  0
   11.1189    8.6574   28.2072 C   0  0  1  0  0  0  0  0  0  0  0  0
   10.5479    9.9155   27.8540 O   0  0  0  0  0  0  0  0  0  0  0  0
    3.4170    2.8377   30.1872 C   0  0  2  0  0  0  0  0  0  0  0  0
    2.5017    2.8239   31.2785 O   0  0  0  0  0  0  0  0  0  0  0  0
    3.1393    5.5721   26.1577 C   0  0  2  0  0  0  0  0  0  0  0  0
    7.1402    7.3875   25.5751 C   0  0  2  0  0  0  0  0  0  0  0  0
    5.8076    6.8519   25.6895 O   0  0  0  0  0  0  0  0  0  0  0  0
   11.0184    8.4932   29.7541 C   0  0  2  0  0  0  0  0  0  0  0  0
   11.8673    7.4156   30.1526 O   0  0  0  0  0  0  0  0  0  0  0  0
    3.7337    4.2981   29.7570 C   0  0  2  0  0  0  0  0  0  0  0  0
    4.5806    4.2736   28.5687 O   0  0  0  0  0  0  0  0  0  0  0  0
    3.5907    5.3115   24.6750 C   0  0  2  0  0  0  0  0  0  0  0  0
    4.9749    4.8754   24.6946 O   0  0  0  0  0  0  0  0  0  0  0  0
    7.3564    7.9720   24.1678 C   0  0  0  0  0  0  0  0  0  0  0  0
    8.7171    8.3114   23.9655 O   0  0  0  0  0  0  0  0  0  0  0  0
    9.5466    8.2078   30.1863 C   0  0  1  0  0  0  0  0  0  0  0  0
    9.0145    7.0923   29.4085 O   0  0  0  0  0  0  0  0  0  0  0  0
    4.4819    5.1385   30.8158 C   0  0  0  0  0  0  0  0  0  0  0  0
    5.7181    4.5409   31.1681 O   0  0  0  0  0  0  0  0  0  0  0  0
    3.4891    6.5824   23.7755 C   0  0  1  0  0  0  0  0  0  0  0  0
    3.7526    6.2104   22.4235 O   0  0  0  0  0  0  0  0  0  0  0  0
    9.4198    7.8777   31.6957 C   0  0  0  0  0  0  0  0  0  0  0  0
    9.9472    8.9541   32.5538 N   0  0  0  0  0  0  0  0  0  0  0  0
  1  2  1  1  0  0  0
  1  7  1  0  0  0  0
  1 30  1  0  0  0  0
  3  4  1  6  0  0  0
  3  9  1  0  0  0  0
  3 39  1  0  0  0  0
  5 10  1  0  0  0  0
  5 26  1  0  0  0  0
  5 32  1  6  0  0  0
  6 12  1  0  0  0  0
  6 36  1  0  0  0  0
  6 19  1  6  0  0  0
  7  8  1  6  0  0  0
  7 14  1  0  0  0  0
  9 16  1  0  0  0  0
 10 11  1  1  0  0  0
 10 18  1  0  0  0  0
 12 13  1  1  0  0  0
 12 20  1  0  0  0  0
 14 15  1  1  0  0  0
 14 22  1  0  0  0  0
 16 17  1  1  0  0  0
 16 24  1  0  0  0  0
 18 19  1  1  0  0  0
 18 25  1  0  0  0  0
 20 21  1  1  0  0  0
 20 27  1  0  0  0  0
 22 23  1  1  0  0  0
 22 29  1  0  0  0  0
 24  2  1  6  0  0  0
 24 31  1  0  0  0  0
 25 26  1  0  0  0  0
 25 33  1  6  0  0  0
 27 28  1  6  0  0  0
 27 35  1  0  0  0  0
 29 30  1  0  0  0  0
 29 37  1  1  0  0  0
 31 32  1  1  0  0  0
 31 39  1  0  0  0  0
 33 34  1  0  0  0  0
 35 36  1  0  0  0  0
 35 41  1  1  0  0  0
 37 38  1  0  0  0  0
 39 40  1  6  0  0  0
 41 42  1  0  0  0  0
M  END
>  <CHROM.1>
-166.06369238,-155.15008195,-109.77391473,15.87517380,-73.65248072,-58.04211875
-72.28864643,-54.87659536,-174.14021251,-63.43148042,-57.79902816,57.86266762
-52.51820593,65.52099475,58.67969434,-33.48920092,-169.85993759,-73.70717745
57.57933703,-60.01368716,-46.36865228,-144.80101424,5.99794225,5.89392890
27.37629209,3.09477749,-0.51158784,-1.09723967

>  <Name>
1fyp_lig

>  <RI>
0

>  <Rbt.Current_Directory>
/home/itssahil/PROJECTS/Mol_Feturizer/New_Systems/rnas/1fyp

>  <Rbt.Executable>
rbdock ($Id: //depot/dev/client3/rdock/2013.1/src/exe/rbdock.cxx#4 $)

>  <Rbt.Library>
libRbt.so (2013.1, Build901 2013/11/27)

>  <Rbt.Parameter_File>
/export/apps/rDock/src/rDock_2013.1_src/data/scripts/dock_solv.prm

>  <Rbt.Receptor>
prm/pocket_docking_4.prm

>  <SCORE>
-57.8287

>  <SCORE.INTER>
-49.1057

>  <SCORE.INTER.CONST>
1

>  <SCORE.INTER.POLAR>
-6.55847

>  <SCORE.INTER.ROT>
14

>  <SCORE.INTER.SOLV>
19.2534

>  <SCORE.INTER.VDW>
-30.2267

>  <SCORE.INTER.norm>
-1.16918

>  <SCORE.INTRA>
-8.76979

>  <SCORE.INTRA.DIHEDRAL>
-31.1272

>  <SCORE.INTRA.DIHEDRAL.0>
48.7173

>  <SCORE.INTRA.POLAR>
1.20007

>  <SCORE.INTRA.POLAR.0>
-1.54691

>  <SCORE.INTRA.REPUL>
0.0165636

>  <SCORE.INTRA.REPUL.0>
0

>  <SCORE.INTRA.SOLV>
-2.66821

>  <SCORE.INTRA.SOLV.lig_0>
-64.052

>  <SCORE.INTRA.VDW>
3.96485

>  <SCORE.INTRA.VDW.0>
-7.0667

>  <SCORE.INTRA.norm>
-0.208805

>  <SCORE.RESTR>
0.0467513

>  <SCORE.RESTR.CAVITY>
0.0467513

>  <SCORE.RESTR.norm>
0.00111313

>  <SCORE.SYSTEM>
0

>  <SCORE.SYSTEM.CONST>
0

>  <SCORE.SYSTEM.DIHEDRAL>
0

>  <SCORE.SYSTEM.SOLV>
0

>  <SCORE.SYSTEM.norm>
0

>  <SCORE.heavy>
42

>  <SCORE.norm>
-1.37687

>  <RMSD>
8.924

$$$$
1fyp_lig
 OpenBabel11021811393D
libRbt.so/2013.1/901 2013/11/27
 42 45  0  0  0  0  0  0  0  0999 V2000
    2.8511    2.8751   26.6317 C   0  0  2  0  0  0  0  0  0  0  0  0
    4.1042    3.3185   27.2279 O   0  0  0  0  0  0  0  0  0  0  0  0
    2.4979    3.8874   31.1442 C   0  0  2  0  0  0  0  0  0  0  0  0
    2.2579    3.9856   32.5958 N   0  0  0  0  0  0  0  0  0  0  0  0
    5.1602    6.0277   27.3975 C   0  0  1  0  0  0  0  0  0  0  0  0
    5.3830    8.6114   24.2219 C   0  0  1  0  0  0  0  0  0  0  0  0
    2.7956    3.2043   25.1050 C   0  0  2  0  0  0  0  0  0  0  0  0
    4.0091    2.7263   24.4089 N   0  0  0  0  0  0  0  0  0  0  0  0
    3.0355    2.4823   30.8071 C   0  0  0  0  0  0  0  0  0  0  0  0
    5.4884    7.5117   27.2136 C   0  0  2  0  0  0  0  0  0  0  0  0
    4.3144    8.2123   26.8007 O   0  0  0  0  0  0  0  0  0  0  0  0
    3.8367    8.7007   24.4009 C   0  0  2  0  0  0  0  0  0  0  0  0
    3.1429    7.4493   24.0099 N   0  0  0  0  0  0  0  0  0  0  0  0
    2.6060    4.7361   24.8729 C   0  0  1  0  0  0  0  0  0  0  0  0
    2.3982    5.0015   23.4880 O   0  0  0  0  0  0  0  0  0  0  0  0
    3.2860    2.2983   29.2853 C   0  0  2  0  0  0  0  0  0  0  0  0
    3.8719    0.9569   29.0832 N   0  0  0  0  0  0  0  0  0  0  0  0
    6.5313    7.4658   26.0935 C   0  0  2  0  0  0  0  0  0  0  0  0
    5.9101    7.3799   24.7808 O   0  0  0  0  0  0  0  0  0  0  0  0
    3.2591    9.9319   23.6370 C   0  0  1  0  0  0  0  0  0  0  0  0
    3.6156   11.1152   24.3487 O   0  0  0  0  0  0  0  0  0  0  0  0
    1.3992    5.2944   25.6680 C   0  0  2  0  0  0  0  0  0  0  0  0
    1.3371    6.7060   25.4886 O   0  0  0  0  0  0  0  0  0  0  0  0
    4.2008    3.4216   28.6775 C   0  0  2  0  0  0  0  0  0  0  0  0
    7.2930    6.1726   26.4158 C   0  0  2  0  0  0  0  0  0  0  0  0
    6.3301    5.2856   27.0174 O   0  0  0  0  0  0  0  0  0  0  0  0
    3.7732   10.0704   22.1719 C   0  0  2  0  0  0  0  0  0  0  0  0
    3.1468    9.0648   21.3738 O   0  0  0  0  0  0  0  0  0  0  0  0
    1.5350    4.9397   27.1760 C   0  0  2  0  0  0  0  0  0  0  0  0
    1.7109    3.4975   27.3141 O   0  0  0  0  0  0  0  0  0  0  0  0
    3.7747    4.8665   29.1257 C   0  0  2  0  0  0  0  0  0  0  0  0
    4.8562    5.7778   28.7992 O   0  0  0  0  0  0  0  0  0  0  0  0
    8.4786    6.3934   27.3719 C   0  0  0  0  0  0  0  0  0  0  0  0
    8.0635    7.0767   28.5418 O   0  0  0  0  0  0  0  0  0  0  0  0
    5.3248    9.9166   22.1125 C   0  0  1  0  0  0  0  0  0  0  0  0
    5.7224    8.6887   22.7956 O   0  0  0  0  0  0  0  0  0  0  0  0
    0.3157    5.3216   28.0446 C   0  0  0  0  0  0  0  0  0  0  0  0
    0.0912    4.3648   29.0661 O   0  0  0  0  0  0  0  0  0  0  0  0
    3.4906    4.9701   30.6564 C   0  0  1  0  0  0  0  0  0  0  0  0
    2.9507    6.2606   30.9369 O   0  0  0  0  0  0  0  0  0  0  0  0
    5.8675    9.8859   20.6607 C   0  0  0  0  0  0  0  0  0  0  0  0
    5.6818   11.1710   19.9628 N   0  0  0  0  0  0  0  0  0  0  0  0
  1  2  1  1  0  0  0
  1  7  1  0  0  0  0
  1 30  1  0  0  0  0
  3  4  1  1  0  0  0
  3  9  1  0  0  0  0
  3 39  1  0  0  0  0
  5 10  1  0  0  0  0
  5 26  1  0  0  0  0
  5 32  1  1  0  0  0
  6 12  1  0  0  0  0
  6 36  1  0  0  0  0
  6 19  1  6  0  0  0
  7  8  1  6  0  0  0
  7 14  1  0  0  0  0
  9 16  1  0  0  0  0
 10 11  1  6  0  0  0
 10 18  1  0  0  0  0
 12 13  1  6  0  0  0
 12 20  1  0  0  0  0
 14 15  1  6  0  0  0
 14 22  1  0  0  0  0
 16 17  1  1  0  0  0
 16 24  1  0  0  0  0
 18 19  1  6  0  0  0
 18 25  1  0  0  0  0
 20 21  1  1  0  0  0
 20 27  1  0  0  0  0
 22 23  1  1  0  0  0
 22 29  1  0  0  0  0
 24  2  1  6  0  0  0
 24 31  1  0  0  0  0
 25 26  1  0  0  0  0
 25 33  1  1  0  0  0
 27 28  1  6  0  0  0
 27 35  1  0  0  0  0
 29 30  1  0  0  0  0
 29 37  1  1  0  0  0
 31 32  1  1  0  0  0
 31 39  1  0  0  0  0
 33 34  1  0  0  0  0
 35 36  1  0  0  0  0
 35 41  1  6  0  0  0
 37 38  1  0  0  0  0
 39 40  1  6  0  0  0
 41 42  1  0  0  0  0
M  END
>  <CHROM.1>
164.00417656,32.53014232,-173.91312256,-31.06767186,179.82632448,169.85483450
175.41813840,-38.48570855,78.93583462,-100.51487439,50.50556618,-175.90512841
52.94799623,-140.30373739,144.26832162,67.23706127,140.35822768,-177.33307892
66.46085626,-50.08814388,-40.41535021,-170.90931606,3.93249921,6.14158560
26.34368050,1.80295653,0.47986580,2.15441761

>  <Name>
1fyp_lig

>  <RI>
0

>  <Rbt.Current_Directory>
/home/itssahil/PROJECTS/Mol_Feturizer/New_Systems/rnas/1fyp

>  <Rbt.Executable>
rbdock ($Id: //depot/dev/client3/rdock/2013.1/src/exe/rbdock.cxx#4 $)

>  <Rbt.Library>
libRbt.so (2013.1, Build901 2013/11/27)

>  <Rbt.Parameter_File>
/export/apps/rDock/src/rDock_2013.1_src/data/scripts/dock_solv.prm

>  <Rbt.Receptor>
prm/pocket_docking_6.prm

>  <SCORE>
-21.1097

>  <SCORE.INTER>
-24.3713

>  <SCORE.INTER.CONST>
1

>  <SCORE.INTER.POLAR>
-6.85564

>  <SCORE.INTER.ROT>
14

>  <SCORE.INTER.SOLV>
22.4093

>  <SCORE.INTER.VDW>
-13.7985

>  <SCORE.INTER.norm>
-0.580269

>  <SCORE.INTRA>
3.10426

>  <SCORE.INTRA.DIHEDRAL>
-17.1936

>  <SCORE.INTRA.DIHEDRAL.0>
48.7173

>  <SCORE.INTRA.POLAR>
-0.137256

>  <SCORE.INTRA.POLAR.0>
-1.54691

>  <SCORE.INTRA.REPUL>
0.183069

>  <SCORE.INTRA.REPUL.0>
0

>  <SCORE.INTRA.SOLV>
3.36184

>  <SCORE.INTRA.SOLV.lig_0>
-64.052

>  <SCORE.INTRA.VDW>
9.57146

>  <SCORE.INTRA.VDW.0>
-7.0667

>  <SCORE.INTRA.norm>
0.0739109

>  <SCORE.RESTR>
0.157353

>  <SCORE.RESTR.CAVITY>
0.157353

>  <SCORE.RESTR.norm>
0.00374651

>  <SCORE.SYSTEM>
0

>  <SCORE.SYSTEM.CONST>
0

>  <SCORE.SYSTEM.DIHEDRAL>
0

>  <SCORE.SYSTEM.SOLV>
0

>  <SCORE.SYSTEM.norm>
0

>  <SCORE.heavy>
42

>  <SCORE.norm>
-0.502612

>  <RMSD>
8.929

$$$$
1fyp_lig
 OpenBabel11021811393D
libRbt.so/2013.1/901 2013/11/27
 42 45  0  0  0  0  0  0  0  0999 V2000
   -1.7458    1.0089   31.2147 C   0  0  2  0  0  0  0  0  0  0  0  0
   -1.5795    2.3063   30.5733 O   0  0  0  0  0  0  0  0  0  0  0  0
    1.6996    4.5685   29.0336 C   0  0  2  0  0  0  0  0  0  0  0  0
    2.9076    5.0546   28.3415 N   0  0  0  0  0  0  0  0  0  0  0  0
   -1.6443    1.9256   27.2966 C   0  0  1  0  0  0  0  0  0  0  0  0
   -3.2571   -1.0335   25.1045 C   0  0  1  0  0  0  0  0  0  0  0  0
   -3.0942    0.3351   30.8025 C   0  0  2  0  0  0  0  0  0  0  0  0
   -3.2582    0.3186   29.3333 N   0  0  0  0  0  0  0  0  0  0  0  0
    2.0433    3.2950   29.8318 C   0  0  0  0  0  0  0  0  0  0  0  0
   -2.2943    1.8238   25.9143 C   0  0  2  0  0  0  0  0  0  0  0  0
   -3.6689    1.4644   26.0587 O   0  0  0  0  0  0  0  0  0  0  0  0
   -3.7579   -2.3602   25.7528 C   0  0  2  0  0  0  0  0  0  0  0  0
   -2.6985   -3.3959   25.8261 N   0  0  0  0  0  0  0  0  0  0  0  0
   -4.3044    1.0562   31.4744 C   0  0  1  0  0  0  0  0  0  0  0  0
   -5.5086    0.3376   31.2188 O   0  0  0  0  0  0  0  0  0  0  0  0
    0.8190    2.7413   30.6108 C   0  0  2  0  0  0  0  0  0  0  0  0
    1.2337    1.4856   31.2703 N   0  0  0  0  0  0  0  0  0  0  0  0
   -1.4882    0.6918   25.2714 C   0  0  2  0  0  0  0  0  0  0  0  0
   -1.9855   -0.6170   25.6667 O   0  0  0  0  0  0  0  0  0  0  0  0
   -5.0243   -2.8953   25.0160 C   0  0  1  0  0  0  0  0  0  0  0  0
   -6.1333   -2.0681   25.3614 O   0  0  0  0  0  0  0  0  0  0  0  0
   -4.1216    1.1814   33.0078 C   0  0  2  0  0  0  0  0  0  0  0  0
   -5.2091    1.9271   33.5464 O   0  0  0  0  0  0  0  0  0  0  0  0
   -0.4379    2.5202   29.6944 C   0  0  2  0  0  0  0  0  0  0  0  0
   -0.0841    0.9312   25.8439 C   0  0  2  0  0  0  0  0  0  0  0  0
   -0.2822    1.4911   27.1566 O   0  0  0  0  0  0  0  0  0  0  0  0
   -4.8959   -2.9153   23.4626 C   0  0  2  0  0  0  0  0  0  0  0  0
   -4.0198   -3.9813   23.0929 O   0  0  0  0  0  0  0  0  0  0  0  0
   -2.7679    1.8731   33.3358 C   0  0  2  0  0  0  0  0  0  0  0  0
   -1.6878    1.1481   32.6743 O   0  0  0  0  0  0  0  0  0  0  0  0
   -0.7297    3.7430   28.7511 C   0  0  2  0  0  0  0  0  0  0  0  0
   -1.6726    3.3139   27.7345 O   0  0  0  0  0  0  0  0  0  0  0  0
    0.7631    1.8858   24.9839 C   0  0  0  0  0  0  0  0  0  0  0  0
    2.0842    1.9810   25.4872 O   0  0  0  0  0  0  0  0  0  0  0  0
   -4.3423   -1.5553   22.9350 C   0  0  1  0  0  0  0  0  0  0  0  0
   -3.1185   -1.2119   23.6539 O   0  0  0  0  0  0  0  0  0  0  0  0
   -2.4120    1.9224   34.8384 C   0  0  0  0  0  0  0  0  0  0  0  0
   -3.4981    2.4081   35.6092 O   0  0  0  0  0  0  0  0  0  0  0  0
    0.5498    4.2808   28.0383 C   0  0  1  0  0  0  0  0  0  0  0  0
    0.2184    5.4835   27.3458 O   0  0  0  0  0  0  0  0  0  0  0  0
   -4.0450   -1.5804   21.4137 C   0  0  0  0  0  0  0  0  0  0  0  0
   -4.3050   -0.2812   20.7676 N   0  0  0  0  0  0  0  0  0  0  0  0
  1  2  1  6  0  0  0
  1  7  1  0  0  0  0
  1 30  1  0  0  0  0
  3  4  1  6  0  0  0
  3  9  1  0  0  0  0
  3 39  1  0  0  0  0
  5 10  1  0  0  0  0
  5 26  1  0  0  0  0
  5 32  1  6  0  0  0
  6 12  1  0  0  0  0
  6 36  1  0  0  0  0
  6 19  1  1  0  0  0
  7  8  1  6  0  0  0
  7 14  1  0  0  0  0
  9 16  1  0  0  0  0
 10 11  1  1  0  0  0
 10 18  1  0  0  0  0
 12 13  1  6  0  0  0
 12 20  1  0  0  0  0
 14 15  1  1  0  0  0
 14 22  1  0  0  0  0
 16 17  1  6  0  0  0
 16 24  1  0  0  0  0
 18 19  1  1  0  0  0
 18 25  1  0  0  0  0
 20 21  1  6  0  0  0
 20 27  1  0  0  0  0
 22 23  1  6  0  0  0
 22 29  1  0  0  0  0
 24  2  1  1  0  0  0
 24 31  1  0  0  0  0
 25 26  1  0  0  0  0
 25 33  1  6  0  0  0
 27 28  1  1  0  0  0
 27 35  1  0  0  0  0
 29 30  1  0  0  0  0
 29 37  1  1  0  0  0
 31 32  1  6  0  0  0
 31 39  1  0  0  0  0
 33 34  1  0  0  0  0
 35 36  1  0  0  0  0
 35 41  1  6  0  0  0
 37 38  1  0  0  0  0
 39 40  1  1  0  0  0
 41 42  1  0  0  0  0
M  END
>  <CHROM.1>
-119.66206412,-77.27352866,172.35797298,173.35917020,178.21712261,-83.11392980
-93.57612983,54.20678978,72.11790761,-172.47952523,69.08704008,-174.79303715
-174.81014921,68.93005150,-49.21476664,-31.06981766,-158.43385223,-51.43050859
145.95470775,179.42570319,-60.85289716,-171.54344346,-2.08654587,0.96878422
27.96441891,1.27475984,0.65606188,1.29476325

>  <Name>
1fyp_lig

>  <RI>
0

>  <Rbt.Current_Directory>
/home/itssahil/PROJECTS/Mol_Feturizer/New_Systems/rnas/1fyp

>  <Rbt.Executable>
rbdock ($Id: //depot/dev/client3/rdock/2013.1/src/exe/rbdock.cxx#4 $)

>  <Rbt.Library>
libRbt.so (2013.1, Build901 2013/11/27)

>  <Rbt.Parameter_File>
/export/apps/rDock/src/rDock_2013.1_src/data/scripts/dock_solv.prm

>  <Rbt.Receptor>
prm/pocket_docking_8.prm

>  <SCORE>
-34.0143

>  <SCORE.INTER>
-26.1289

>  <SCORE.INTER.CONST>
1

>  <SCORE.INTER.POLAR>
-2.9207

>  <SCORE.INTER.ROT>
14

>  <SCORE.INTER.SOLV>
14.5635

>  <SCORE.INTER.VDW>
-25.4714

>  <SCORE.INTER.norm>
-0.622117

>  <SCORE.INTRA>
-7.88545

>  <SCORE.INTRA.DIHEDRAL>
-22.4763

>  <SCORE.INTRA.DIHEDRAL.0>
48.7173

>  <SCORE.INTRA.POLAR>
-0.0349598

>  <SCORE.INTRA.POLAR.0>
-1.54691

>  <SCORE.INTRA.REPUL>
0

>  <SCORE.INTRA.REPUL.0>
0

>  <SCORE.INTRA.SOLV>
-1.09398

>  <SCORE.INTRA.SOLV.lig_0>
-64.052

>  <SCORE.INTRA.VDW>
4.01853

>  <SCORE.INTRA.VDW.0>
-7.0667

>  <SCORE.INTRA.norm>
-0.187749

>  <SCORE.RESTR>
0

>  <SCORE.RESTR.CAVITY>
0

>  <SCORE.RESTR.norm>
0

>  <SCORE.SYSTEM>
0

>  <SCORE.SYSTEM.CONST>
0

>  <SCORE.SYSTEM.DIHEDRAL>
0

>  <SCORE.SYSTEM.SOLV>
0

>  <SCORE.SYSTEM.norm>
0

>  <SCORE.heavy>
42

>  <SCORE.norm>
-0.809865

>  <RMSD>
8.979

$$$$
1fyp_lig
 OpenBabel11021811393D
libRbt.so/2013.1/901 2013/11/27
 42 45  0  0  0  0  0  0  0  0999 V2000
    2.1647    2.1051   29.3047 C   0  0  2  0  0  0  0  0  0  0  0  0
    1.6909    0.9639   28.5329 O   0  0  0  0  0  0  0  0  0  0  0  0
    0.6227    0.3413   24.4448 C   0  0  2  0  0  0  0  0  0  0  0  0
   -0.0217    0.3140   23.1188 N   0  0  0  0  0  0  0  0  0  0  0  0
    2.5788    4.0803   25.5128 C   0  0  1  0  0  0  0  0  0  0  0  0
    3.9905    7.8998   23.8633 C   0  0  1  0  0  0  0  0  0  0  0  0
    2.1310    1.8119   30.8393 C   0  0  2  0  0  0  0  0  0  0  0  0
    2.8047    0.5347   31.1562 N   0  0  0  0  0  0  0  0  0  0  0  0
   -0.3759   -0.1524   25.5107 C   0  0  0  0  0  0  0  0  0  0  0  0
    2.8803    5.4498   26.1271 C   0  0  2  0  0  0  0  0  0  0  0  0
    1.7693    6.3221   25.9167 O   0  0  0  0  0  0  0  0  0  0  0  0
    2.9192    8.5784   22.9562 C   0  0  2  0  0  0  0  0  0  0  0  0
    2.6372    7.8005   21.7251 N   0  0  0  0  0  0  0  0  0  0  0  0
    0.6634    1.7963   31.3704 C   0  0  1  0  0  0  0  0  0  0  0  0
    0.6560    1.6869   32.7915 O   0  0  0  0  0  0  0  0  0  0  0  0
    0.2467   -0.1759   26.9334 C   0  0  2  0  0  0  0  0  0  0  0  0
   -0.8105   -0.5831   27.8822 N   0  0  0  0  0  0  0  0  0  0  0  0
    4.0993    5.8963   25.3152 C   0  0  2  0  0  0  0  0  0  0  0  0
    3.7135    6.4864   24.0426 O   0  0  0  0  0  0  0  0  0  0  0  0
    3.3255   10.0462   22.6192 C   0  0  1  0  0  0  0  0  0  0  0  0
    3.1422   10.8465   23.7851 O   0  0  0  0  0  0  0  0  0  0  0  0
   -0.1076    3.0794   30.9710 C   0  0  2  0  0  0  0  0  0  0  0  0
   -1.4600    2.9625   31.4025 O   0  0  0  0  0  0  0  0  0  0  0  0
    0.8859    1.1998   27.3422 C   0  0  2  0  0  0  0  0  0  0  0  0
    4.8408    4.5707   25.0927 C   0  0  2  0  0  0  0  0  0  0  0  0
    3.8220    3.5545   25.0210 O   0  0  0  0  0  0  0  0  0  0  0  0
    4.8022   10.2050   22.1458 C   0  0  2  0  0  0  0  0  0  0  0  0
    4.9118    9.6882   20.8186 O   0  0  0  0  0  0  0  0  0  0  0  0
   -0.0406    3.2931   29.4322 C   0  0  2  0  0  0  0  0  0  0  0  0
    1.3564    3.2937   29.0099 O   0  0  0  0  0  0  0  0  0  0  0  0
    1.7929    1.8121   26.2141 C   0  0  2  0  0  0  0  0  0  0  0  0
    2.0503    3.2013   26.5461 O   0  0  0  0  0  0  0  0  0  0  0  0
    5.8382    4.2416   26.2177 C   0  0  0  0  0  0  0  0  0  0  0  0
    6.5224    3.0306   25.9477 O   0  0  0  0  0  0  0  0  0  0  0  0
    5.7749    9.4465   23.1014 C   0  0  1  0  0  0  0  0  0  0  0  0
    5.3223    8.0682   23.2689 O   0  0  0  0  0  0  0  0  0  0  0  0
   -0.6536    4.6210   28.9343 C   0  0  0  0  0  0  0  0  0  0  0  0
   -0.2713    4.8953   27.5971 O   0  0  0  0  0  0  0  0  0  0  0  0
    1.1285    1.7594   24.8033 C   0  0  1  0  0  0  0  0  0  0  0  0
    2.0849    2.1751   23.8296 O   0  0  0  0  0  0  0  0  0  0  0  0
    7.2364    9.4395   22.5847 C   0  0  0  0  0  0  0  0  0  0  0  0
    8.1541    8.7376   23.5003 N   0  0  0  0  0  0  0  0  0  0  0  0
  1  2  1  6  0  0  0
  1  7  1  0  0  0  0
  1 30  1  0  0  0  0
  3  4  1  6  0  0  0
  3  9  1  0  0  0  0
  3 39  1  0  0  0  0
  5 10  1  0  0  0  0
  5 26  1  0  0  0  0
  5 32  1  1  0  0  0
  6 12  1  0  0  0  0
  6 36  1  0  0  0  0
  6 19  1  6  0  0  0
  7  8  1  6  0  0  0
  7 14  1  0  0  0  0
  9 16  1  0  0  0  0
 10 11  1  6  0  0  0
 10 18  1  0  0  0  0
 12 13  1  6  0  0  0
 12 20  1  0  0  0  0
 14 15  1  1  0  0  0
 14 22  1  0  0  0  0
 16 17  1  1  0  0  0
 16 24  1  0  0  0  0
 18 19  1  6  0  0  0
 18 25  1  0  0  0  0
 20 21  1  1  0  0  0
 20 27  1  0  0  0  0
 22 23  1  6  0  0  0
 22 29  1  0  0  0  0
 24  2  1  1  0  0  0
 24 31  1  0  0  0  0
 25 26  1  0  0  0  0
 25 33  1  1  0  0  0
 27 28  1  6  0  0  0
 27 35  1  0  0  0  0
 29 30  1  0  0  0  0
 29 37  1  1  0  0  0
 31 32  1  1  0  0  0
 31 39  1  0  0  0  0
 33 34  1  0  0  0  0
 35 36  1  0  0  0  0
 35 41  1  6  0  0  0
 37 38  1  0  0  0  0
 39 40  1  6  0  0  0
 41 42  1  0  0  0  0
M  END
>  <CHROM.1>
142.27795797,-166.65762795,173.87313475,68.66923770,-56.35249193,-64.65827949
-74.62330002,-61.19063751,113.74919250,-147.80078547,-170.07082348,-51.51125074
-178.35384522,93.82140338,165.64276431,-164.85867079,-175.11616969,-42.74600701
179.21580287,-31.92800691,71.56368821,-112.59493976,2.50047805,4.41954922
26.12469137,-2.80558087,-1.11923658,-1.91205281

>  <Name>
1fyp_lig

>  <RI>
0

>  <Rbt.Current_Directory>
/home/itssahil/PROJECTS/Mol_Feturizer/New_Systems/rnas/1fyp

>  <Rbt.Executable>
rbdock ($Id: //depot/dev/client3/rdock/2013.1/src/exe/rbdock.cxx#4 $)

>  <Rbt.Library>
libRbt.so (2013.1, Build901 2013/11/27)

>  <Rbt.Parameter_File>
/export/apps/rDock/src/rDock_2013.1_src/data/scripts/dock_solv.prm

>  <Rbt.Receptor>
prm/blind_docking_40.prm

>  <SCORE>
-42.6112

>  <SCORE.INTER>
-39.7669

>  <SCORE.INTER.CONST>
1

>  <SCORE.INTER.POLAR>
-5.39932

>  <SCORE.INTER.ROT>
14

>  <SCORE.INTER.SOLV>
26.5483

>  <SCORE.INTER.VDW>
-30.2963

>  <SCORE.INTER.norm>
-0.946831

>  <SCORE.INTRA>
-2.88965

>  <SCORE.INTRA.DIHEDRAL>
-15.6231

>  <SCORE.INTRA.DIHEDRAL.0>
48.7173

>  <SCORE.INTRA.POLAR>
0.0575485

>  <SCORE.INTRA.POLAR.0>
-1.54691

>  <SCORE.INTRA.REPUL>
0.166541

>  <SCORE.INTRA.REPUL.0>
0

>  <SCORE.INTRA.SOLV>
-1.55767

>  <SCORE.INTRA.SOLV.lig_0>
-64.052

>  <SCORE.INTRA.VDW>
4.67237

>  <SCORE.INTRA.VDW.0>
-7.0667

>  <SCORE.INTRA.norm>
-0.0688012

>  <SCORE.RESTR>
0.0453197

>  <SCORE.RESTR.CAVITY>
0.0453197

>  <SCORE.RESTR.norm>
0.00107904

>  <SCORE.SYSTEM>
0

>  <SCORE.SYSTEM.CONST>
0

>  <SCORE.SYSTEM.DIHEDRAL>
0

>  <SCORE.SYSTEM.SOLV>
0

>  <SCORE.SYSTEM.norm>
0

>  <SCORE.heavy>
42

>  <SCORE.norm>
-1.01455

>  <RMSD>
8.984

$$$$
1fyp_lig
 OpenBabel11021811393D
libRbt.so/2013.1/901 2013/11/27
 42 45  0  0  0  0  0  0  0  0999 V2000
    4.3353    3.7722   25.7077 C   0  0  2  0  0  0  0  0  0  0  0  0
    3.3297    4.0821   26.7152 O   0  0  0  0  0  0  0  0  0  0  0  0
   -0.0542    2.3296   28.6436 C   0  0  2  0  0  0  0  0  0  0  0  0
   -1.0436    1.4331   29.2697 N   0  0  0  0  0  0  0  0  0  0  0  0
    3.6530    4.0814   30.8267 C   0  0  1  0  0  0  0  0  0  0  0  0
    4.8553    5.7707   34.6472 C   0  0  1  0  0  0  0  0  0  0  0  0
    5.7821    3.9071   26.2827 C   0  0  2  0  0  0  0  0  0  0  0  0
    5.9288    3.1557   27.5474 N   0  0  0  0  0  0  0  0  0  0  0  0
    0.3015    1.8003   27.2399 C   0  0  0  0  0  0  0  0  0  0  0  0
    4.0301    3.1620   31.9913 C   0  0  2  0  0  0  0  0  0  0  0  0
    2.8501    2.7802   32.6992 O   0  0  0  0  0  0  0  0  0  0  0  0
    3.9025    6.7494   35.3992 C   0  0  2  0  0  0  0  0  0  0  0  0
    2.9724    7.4565   34.4853 N   0  0  0  0  0  0  0  0  0  0  0  0
    6.1577    5.4068   26.4972 C   0  0  1  0  0  0  0  0  0  0  0  0
    7.5288    5.5219   26.8692 O   0  0  0  0  0  0  0  0  0  0  0  0
    1.3224    2.7142   26.5085 C   0  0  2  0  0  0  0  0  0  0  0  0
    1.6534    2.0777   25.2166 N   0  0  0  0  0  0  0  0  0  0  0  0
    4.9158    4.0782   32.8401 C   0  0  2  0  0  0  0  0  0  0  0  0
    4.1266    4.9444   33.7023 O   0  0  0  0  0  0  0  0  0  0  0  0
    4.7150    7.7554   36.2715 C   0  0  1  0  0  0  0  0  0  0  0  0
    5.2294    7.0600   37.4052 O   0  0  0  0  0  0  0  0  0  0  0  0
    5.9219    6.2485   25.2181 C   0  0  2  0  0  0  0  0  0  0  0  0
    6.1929    7.6170   25.5054 O   0  0  0  0  0  0  0  0  0  0  0  0
    2.6136    2.9898   27.3599 C   0  0  2  0  0  0  0  0  0  0  0  0
    5.6456    4.9020   31.7699 C   0  0  2  0  0  0  0  0  0  0  0  0
    4.7244    5.0253   30.6689 O   0  0  0  0  0  0  0  0  0  0  0  0
    5.9097    8.4237   35.5259 C   0  0  2  0  0  0  0  0  0  0  0  0
    5.3900    9.3803   34.6010 O   0  0  0  0  0  0  0  0  0  0  0  0
    4.4599    6.0733   24.7179 C   0  0  2  0  0  0  0  0  0  0  0  0
    4.1814    4.6514   24.5432 O   0  0  0  0  0  0  0  0  0  0  0  0
    2.2929    3.3844   28.8471 C   0  0  2  0  0  0  0  0  0  0  0  0
    3.5202    3.2848   29.6153 O   0  0  0  0  0  0  0  0  0  0  0  0
    6.9546    4.2474   31.2937 C   0  0  0  0  0  0  0  0  0  0  0  0
    6.7310    3.4483   30.1451 O   0  0  0  0  0  0  0  0  0  0  0  0
    6.7612    7.3544   34.7736 C   0  0  1  0  0  0  0  0  0  0  0  0
    5.8900    6.5331   33.9376 O   0  0  0  0  0  0  0  0  0  0  0  0
    4.1509    6.7538   23.3657 C   0  0  0  0  0  0  0  0  0  0  0  0
    4.4150    8.1456   23.4175 O   0  0  0  0  0  0  0  0  0  0  0  0
    1.2247    2.4574   29.5059 C   0  0  1  0  0  0  0  0  0  0  0  0
    0.8770    2.9923   30.7822 O   0  0  0  0  0  0  0  0  0  0  0  0
    7.8653    7.9849   33.8867 C   0  0  0  0  0  0  0  0  0  0  0  0
    7.3131    8.8614   32.8380 N   0  0  0  0  0  0  0  0  0  0  0  0
  1  2  1  1  0  0  0
  1  7  1  0  0  0  0
  1 30  1  0  0  0  0
  3  4  1  1  0  0  0
  3  9  1  0  0  0  0
  3 39  1  0  0  0  0
  5 10  1  0  0  0  0
  5 26  1  0  0  0  0
  5 32  1  6  0  0  0
  6 12  1  0  0  0  0
  6 36  1  0  0  0  0
  6 19  1  6  0  0  0
  7  8  1  1  0  0  0
  7 14  1  0  0  0  0
  9 16  1  0  0  0  0
 10 11  1  1  0  0  0
 10 18  1  0  0  0  0
 12 13  1  6  0  0  0
 12 20  1  0  0  0  0
 14 15  1  6  0  0  0
 14 22  1  0  0  0  0
 16 17  1  6  0  0  0
 16 24  1  0  0  0  0
 18 19  1  1  0  0  0
 18 25  1  0  0  0  0
 20 21  1  1  0  0  0
 20 27  1  0  0  0  0
 22 23  1  1  0  0  0
 22 29  1  0  0  0  0
 24  2  1  6  0  0  0
 24 31  1  0  0  0  0
 25 26  1  0  0  0  0
 25 33  1  6  0  0  0
 27 28  1  6  0  0  0
 27 35  1  0  0  0  0
 29 30  1  0  0  0  0
 29 37  1  6  0  0  0
 31 32  1  1  0  0  0
 31 39  1  0  0  0  0
 33 34  1  0  0  0  0
 35 36  1  0  0  0  0
 35 41  1  6  0  0  0
 37 38  1  0  0  0  0
 39 40  1  1  0  0  0
 41 42  1  0  0  0  0
M  END
>  <CHROM.1>
-102.72105547,-90.78923589,77.44191536,-164.26324578,-66.69562182,76.89809499
63.46118771,175.41214633,174.35327675,174.14923770,-173.88156119,68.46795949
93.18860508,-54.08489444,-57.84675818,155.18254351,126.68618827,-58.56293573
-60.77318379,-56.06971085,68.27516471,67.54594922,4.28580055,5.04635235,29.98126299
-1.84249604,0.75302508,1.46523270

>  <Name>
1fyp_lig

>  <RI>
0

>  <Rbt.Current_Directory>
/home/itssahil/PROJECTS/Mol_Feturizer/New_Systems/rnas/1fyp

>  <Rbt.Executable>
rbdock ($Id: //depot/dev/client3/rdock/2013.1/src/exe/rbdock.cxx#4 $)

>  <Rbt.Library>
libRbt.so (2013.1, Build901 2013/11/27)

>  <Rbt.Parameter_File>
/export/apps/rDock/src/rDock_2013.1_src/data/scripts/dock_solv.prm

>  <Rbt.Receptor>
prm/pocket_docking_8.prm

>  <SCORE>
-38.6147

>  <SCORE.INTER>
-27.4604

>  <SCORE.INTER.CONST>
1

>  <SCORE.INTER.POLAR>
-3.89244

>  <SCORE.INTER.ROT>
14

>  <SCORE.INTER.SOLV>
9.99458

>  <SCORE.INTER.VDW>
-21.597

>  <SCORE.INTER.norm>
-0.653819

>  <SCORE.INTRA>
-11.1543

>  <SCORE.INTRA.DIHEDRAL>
-22.9315

>  <SCORE.INTRA.DIHEDRAL.0>
48.7173

>  <SCORE.INTRA.POLAR>
-0.637434

>  <SCORE.INTRA.POLAR.0>
-1.54691

>  <SCORE.INTRA.REPUL>
0

>  <SCORE.INTRA.REPUL.0>
0

>  <SCORE.INTRA.SOLV>
2.1479

>  <SCORE.INTRA.SOLV.lig_0>
-64.052

>  <SCORE.INTRA.VDW>
1.40477

>  <SCORE.INTRA.VDW.0>
-7.0667

>  <SCORE.INTRA.norm>
-0.265579

>  <SCORE.RESTR>
0

>  <SCORE.RESTR.CAVITY>
0

>  <SCORE.RESTR.norm>
0

>  <SCORE.SYSTEM>
0

>  <SCORE.SYSTEM.CONST>
0

>  <SCORE.SYSTEM.DIHEDRAL>
0

>  <SCORE.SYSTEM.SOLV>
0

>  <SCORE.SYSTEM.norm>
0

>  <SCORE.heavy>
42

>  <SCORE.norm>
-0.919398

>  <RMSD>
8.986

$$$$
1fyp_lig
 OpenBabel11021811393D
libRbt.so/2013.1/901 2013/11/27
 42 45  0  0  0  0  0  0  0  0999 V2000
    3.5236    4.9660   26.1558 C   0  0  2  0  0  0  0  0  0  0  0  0
    3.1033    5.2864   24.7982 O   0  0  0  0  0  0  0  0  0  0  0  0
    4.4527    8.3247   22.1170 C   0  0  2  0  0  0  0  0  0  0  0  0
    4.7001    9.5714   21.3693 N   0  0  0  0  0  0  0  0  0  0  0  0
    6.4041    6.9913   26.2220 C   0  0  1  0  0  0  0  0  0  0  0  0
    9.5004    6.8459   29.1756 C   0  0  1  0  0  0  0  0  0  0  0  0
    3.0240    3.5506   26.5907 C   0  0  2  0  0  0  0  0  0  0  0  0
    3.3716    2.5262   25.5829 N   0  0  0  0  0  0  0  0  0  0  0  0
    2.9403    8.0257   22.1296 C   0  0  0  0  0  0  0  0  0  0  0  0
    6.4600    7.1083   27.7474 C   0  0  2  0  0  0  0  0  0  0  0  0
    6.9823    8.3873   28.1090 O   0  0  0  0  0  0  0  0  0  0  0  0
   10.9143    7.4192   28.8539 C   0  0  2  0  0  0  0  0  0  0  0  0
   11.6905    6.5464   27.9397 N   0  0  0  0  0  0  0  0  0  0  0  0
    1.4843    3.5586   26.8459 C   0  0  1  0  0  0  0  0  0  0  0  0
    1.0701    2.3091   27.3927 O   0  0  0  0  0  0  0  0  0  0  0  0
    2.6080    6.7070   22.8799 C   0  0  2  0  0  0  0  0  0  0  0  0
    1.1380    6.5587   22.9029 N   0  0  0  0  0  0  0  0  0  0  0  0
    7.4354    5.9859   28.1125 C   0  0  2  0  0  0  0  0  0  0  0  0
    8.8206    6.4073   27.9705 O   0  0  0  0  0  0  0  0  0  0  0  0
   11.7059    7.7138   30.1652 C   0  0  1  0  0  0  0  0  0  0  0  0
   11.1500    8.8744   30.7795 O   0  0  0  0  0  0  0  0  0  0  0  0
    1.0680    4.6862   27.8234 C   0  0  2  0  0  0  0  0  0  0  0  0
   -0.3514    4.6992   27.9410 O   0  0  0  0  0  0  0  0  0  0  0  0
    3.2122    6.6611   24.3294 C   0  0  2  0  0  0  0  0  0  0  0  0
    7.0898    4.9089   27.0747 C   0  0  2  0  0  0  0  0  0  0  0  0
    6.6696    5.6183   25.8931 O   0  0  0  0  0  0  0  0  0  0  0  0
   11.6746    6.5505   31.2024 C   0  0  2  0  0  0  0  0  0  0  0  0
   12.5146    5.4968   30.7286 O   0  0  0  0  0  0  0  0  0  0  0  0
    1.5878    6.0609   27.3151 C   0  0  2  0  0  0  0  0  0  0  0  0
    3.0283    5.9767   27.0972 O   0  0  0  0  0  0  0  0  0  0  0  0
    4.7177    7.1098   24.3791 C   0  0  2  0  0  0  0  0  0  0  0  0
    5.0702    7.3548   25.7655 O   0  0  0  0  0  0  0  0  0  0  0  0
    5.9763    3.9553   27.5433 C   0  0  0  0  0  0  0  0  0  0  0  0
    6.4751    3.0198   28.4834 O   0  0  0  0  0  0  0  0  0  0  0  0
   10.2183    6.0287   31.4057 C   0  0  1  0  0  0  0  0  0  0  0  0
    9.6227    5.7191   30.1088 O   0  0  0  0  0  0  0  0  0  0  0  0
    1.3555    7.2410   28.2849 C   0  0  0  0  0  0  0  0  0  0  0  0
    2.0453    7.0460   29.5078 O   0  0  0  0  0  0  0  0  0  0  0  0
    4.9917    8.4125   23.5652 C   0  0  1  0  0  0  0  0  0  0  0  0
    6.3992    8.6428   23.5275 O   0  0  0  0  0  0  0  0  0  0  0  0
   10.1550    4.7676   32.3051 C   0  0  0  0  0  0  0  0  0  0  0  0
   10.8580    3.6162   31.7108 N   0  0  0  0  0  0  0  0  0  0  0  0
  1  2  1  6  0  0  0
  1  7  1  0  0  0  0
  1 30  1  0  0  0  0
  3  4  1  1  0  0  0
  3  9  1  0  0  0  0
  3 39  1  0  0  0  0
  5 10  1  0  0  0  0
  5 26  1  0  0  0  0
  5 32  1  1  0  0  0
  6 12  1  0  0  0  0
  6 36  1  0  0  0  0
  6 19  1  6  0  0  0
  7  8  1  6  0  0  0
  7 14  1  0  0  0  0
  9 16  1  0  0  0  0
 10 11  1  6  0  0  0
 10 18  1  0  0  0  0
 12 13  1  6  0  0  0
 12 20  1  0  0  0  0
 14 15  1  1  0  0  0
 14 22  1  0  0  0  0
 16 17  1  1  0  0  0
 16 24  1  0  0  0  0
 18 19  1  6  0  0  0
 18 25  1  0  0  0  0
 20 21  1  1  0  0  0
 20 27  1  0  0  0  0
 22 23  1  6  0  0  0
 22 29  1  0  0  0  0
 24  2  1  6  0  0  0
 24 31  1  0  0  0  0
 25 26  1  0  0  0  0
 25 33  1  1  0  0  0
 27 28  1  6  0  0  0
 27 35  1  0  0  0  0
 29 30  1  0  0  0  0
 29 37  1  1  0  0  0
 31 32  1  1  0  0  0
 31 39  1  0  0  0  0
 33 34  1  0  0  0  0
 35 36  1  0  0  0  0
 35 41  1  1  0  0  0
 37 38  1  0  0  0  0
 39 40  1  6  0  0  0
 41 42  1  0  0  0  0
M  END
>  <CHROM.1>
166.36589911,-176.61310146,74.94319174,-52.19423911,-54.86277154,-178.48253390
-53.31867037,-171.74282922,97.42039315,-173.49132775,55.10199094,59.83128450
-76.25268922,-80.93035657,62.27061229,143.11618864,-170.08114868,62.50723290
-63.24930896,-70.51843437,60.24457278,-176.21622833,5.88790027,6.10736332
27.16751523,2.70511246,-0.35851314,-0.96429898

>  <Name>
1fyp_lig

>  <RI>
0

>  <Rbt.Current_Directory>
/home/itssahil/PROJECTS/Mol_Feturizer/New_Systems/rnas/1fyp

>  <Rbt.Executable>
rbdock ($Id: //depot/dev/client3/rdock/2013.1/src/exe/rbdock.cxx#4 $)

>  <Rbt.Library>
libRbt.so (2013.1, Build901 2013/11/27)

>  <Rbt.Parameter_File>
/export/apps/rDock/src/rDock_2013.1_src/data/scripts/dock_solv.prm

>  <Rbt.Receptor>
prm/pocket_docking_6.prm

>  <SCORE>
-39.3835

>  <SCORE.INTER>
-29.8207

>  <SCORE.INTER.CONST>
1

>  <SCORE.INTER.POLAR>
-2.85884

>  <SCORE.INTER.ROT>
14

>  <SCORE.INTER.SOLV>
19.7807

>  <SCORE.INTER.VDW>
-29.8779

>  <SCORE.INTER.norm>
-0.710016

>  <SCORE.INTRA>
-9.56282

>  <SCORE.INTRA.DIHEDRAL>
-32.4283

>  <SCORE.INTRA.DIHEDRAL.0>
48.7173

>  <SCORE.INTRA.POLAR>
1.34981

>  <SCORE.INTRA.POLAR.0>
-1.54691

>  <SCORE.INTRA.REPUL>
0.012412

>  <SCORE.INTRA.REPUL.0>
0

>  <SCORE.INTRA.SOLV>
-1.53481

>  <SCORE.INTRA.SOLV.lig_0>
-64.052

>  <SCORE.INTRA.VDW>
2.76731

>  <SCORE.INTRA.VDW.0>
-7.0667

>  <SCORE.INTRA.norm>
-0.227686

>  <SCORE.RESTR>
0

>  <SCORE.RESTR.CAVITY>
0

>  <SCORE.RESTR.norm>
0

>  <SCORE.SYSTEM>
0

>  <SCORE.SYSTEM.CONST>
0

>  <SCORE.SYSTEM.DIHEDRAL>
0

>  <SCORE.SYSTEM.SOLV>
0

>  <SCORE.SYSTEM.norm>
0

>  <SCORE.heavy>
42

>  <SCORE.norm>
-0.937702

>  <RMSD>
9.008

$$$$
1fyp_lig
 OpenBabel11021811393D
libRbt.so/2013.1/901 2013/11/27
 42 45  0  0  0  0  0  0  0  0999 V2000
    2.0531    4.3114   27.4621 C   0  0  2  0  0  0  0  0  0  0  0  0
    2.8840    4.6339   26.3097 O   0  0  0  0  0  0  0  0  0  0  0  0
    2.6460    8.3294   24.1819 C   0  0  2  0  0  0  0  0  0  0  0  0
    2.7493    9.7234   23.7122 N   0  0  0  0  0  0  0  0  0  0  0  0
    6.0629    5.9537   25.9462 C   0  0  1  0  0  0  0  0  0  0  0  0
    9.2623    7.0668   28.7203 C   0  0  1  0  0  0  0  0  0  0  0  0
    2.8602    4.4137   28.7963 C   0  0  2  0  0  0  0  0  0  0  0  0
    3.5712    5.7062   28.8951 N   0  0  0  0  0  0  0  0  0  0  0  0
    2.0824    8.3121   25.6169 C   0  0  0  0  0  0  0  0  0  0  0  0
    7.5020    5.4720   25.7449 C   0  0  2  0  0  0  0  0  0  0  0  0
    7.6624    4.1849   26.3425 O   0  0  0  0  0  0  0  0  0  0  0  0
    9.9647    6.2083   29.8161 C   0  0  2  0  0  0  0  0  0  0  0  0
    9.0140    5.3556   30.5706 N   0  0  0  0  0  0  0  0  0  0  0  0
    3.8684    3.2296   28.9286 C   0  0  1  0  0  0  0  0  0  0  0  0
    4.4809    3.2469   30.2156 O   0  0  0  0  0  0  0  0  0  0  0  0
    1.9206    6.8688   26.1674 C   0  0  2  0  0  0  0  0  0  0  0  0
    1.4547    6.9688   27.5662 N   0  0  0  0  0  0  0  0  0  0  0  0
    8.2985    6.5392   26.5007 C   0  0  2  0  0  0  0  0  0  0  0  0
    8.3449    6.2673   27.9291 O   0  0  0  0  0  0  0  0  0  0  0  0
   10.8030    7.1089   30.7748 C   0  0  1  0  0  0  0  0  0  0  0  0
   11.9690    7.5477   30.0809 O   0  0  0  0  0  0  0  0  0  0  0  0
    3.1754    1.8580   28.7313 C   0  0  2  0  0  0  0  0  0  0  0  0
    4.1600    0.8296   28.7706 O   0  0  0  0  0  0  0  0  0  0  0  0
    3.2409    6.0240   26.0613 C   0  0  2  0  0  0  0  0  0  0  0  0
    7.4831    7.8089   26.2191 C   0  0  2  0  0  0  0  0  0  0  0  0
    6.1124    7.3810   26.1014 O   0  0  0  0  0  0  0  0  0  0  0  0
   10.0423    8.3664   31.2942 C   0  0  2  0  0  0  0  0  0  0  0  0
    9.0743    7.9463   32.2570 O   0  0  0  0  0  0  0  0  0  0  0  0
    2.4083    1.8299   27.3789 C   0  0  2  0  0  0  0  0  0  0  0  0
    1.4902    2.9631   27.3262 O   0  0  0  0  0  0  0  0  0  0  0  0
    3.9301    6.1404   24.6536 C   0  0  2  0  0  0  0  0  0  0  0  0
    5.2789    5.6166   24.7666 O   0  0  0  0  0  0  0  0  0  0  0  0
    7.9226    8.5355   24.9356 C   0  0  0  0  0  0  0  0  0  0  0  0
    9.3075    8.3511   24.6997 O   0  0  0  0  0  0  0  0  0  0  0  0
    9.3423    9.1154   30.1179 C   0  0  1  0  0  0  0  0  0  0  0  0
    8.5321    8.1739   29.3500 O   0  0  0  0  0  0  0  0  0  0  0  0
    1.5590    0.5614   27.1410 C   0  0  0  0  0  0  0  0  0  0  0  0
    1.0631    0.5150   25.8139 O   0  0  0  0  0  0  0  0  0  0  0  0
    4.0159    7.6104   24.1376 C   0  0  1  0  0  0  0  0  0  0  0  0
    4.4947    7.5981   22.7936 O   0  0  0  0  0  0  0  0  0  0  0  0
    8.4411   10.2799   30.6025 C   0  0  0  0  0  0  0  0  0  0  0  0
    7.4716    9.8529   31.6275 N   0  0  0  0  0  0  0  0  0  0  0  0
  1  2  1  6  0  0  0
  1  7  1  0  0  0  0
  1 30  1  0  0  0  0
  3  4  1  1  0  0  0
  3  9  1  0  0  0  0
  3 39  1  0  0  0  0
  5 10  1  0  0  0  0
  5 26  1  0  0  0  0
  5 32  1  6  0  0  0
  6 12  1  0  0  0  0
  6 36  1  0  0  0  0
  6 19  1  1  0  0  0
  7  8  1  6  0  0  0
  7 14  1  0  0  0  0
  9 16  1  0  0  0  0
 10 11  1  1  0  0  0
 10 18  1  0  0  0  0
 12 13  1  1  0  0  0
 12 20  1  0  0  0  0
 14 15  1  1  0  0  0
 14 22  1  0  0  0  0
 16 17  1  1  0  0  0
 16 24  1  0  0  0  0
 18 19  1  1  0  0  0
 18 25  1  0  0  0  0
 20 21  1  6  0  0  0
 20 27  1  0  0  0  0
 22 23  1  6  0  0  0
 22 29  1  0  0  0  0
 24  2  1  6  0  0  0
 24 31  1  0  0  0  0
 25 26  1  0  0  0  0
 25 33  1  6  0  0  0
 27 28  1  1  0  0  0
 27 35  1  0  0  0  0
 29 30  1  0  0  0  0
 29 37  1  1  0  0  0
 31 32  1  1  0  0  0
 31 39  1  0  0  0  0
 33 34  1  0  0  0  0
 35 36  1  0  0  0  0
 35 41  1  1  0  0  0
 37 38  1  0  0  0  0
 39 40  1  6  0  0  0
 41 42  1  0  0  0  0
M  END
>  <CHROM.1>
-74.19524476,-48.11386423,117.63525766,103.81011841,-75.73897319,63.94997620
176.90497488,-56.62216393,169.35023499,-140.67140521,-61.00907853,71.57149448
-31.10583092,-176.01647651,-170.86917440,-41.78547018,-171.54132279,-173.47158510
-52.78719044,175.51459154,61.18421668,-125.70798675,5.68166568,6.04965725
27.51630380,-3.05217523,-0.62479033,-0.75445831

>  <Name>
1fyp_lig

>  <RI>
0

>  <Rbt.Current_Directory>
/home/itssahil/PROJECTS/Mol_Feturizer/New_Systems/rnas/1fyp

>  <Rbt.Executable>
rbdock ($Id: //depot/dev/client3/rdock/2013.1/src/exe/rbdock.cxx#4 $)

>  <Rbt.Library>
libRbt.so (2013.1, Build901 2013/11/27)

>  <Rbt.Parameter_File>
/export/apps/rDock/src/rDock_2013.1_src/data/scripts/dock_solv.prm

>  <Rbt.Receptor>
prm/pocket_docking_7.prm

>  <SCORE>
-50.7958

>  <SCORE.INTER>
-45.0396

>  <SCORE.INTER.CONST>
1

>  <SCORE.INTER.POLAR>
-5.75888

>  <SCORE.INTER.ROT>
14

>  <SCORE.INTER.SOLV>
18.2236

>  <SCORE.INTER.VDW>
-29.838

>  <SCORE.INTER.norm>
-1.07237

>  <SCORE.INTRA>
-5.75617

>  <SCORE.INTRA.DIHEDRAL>
-27.0168

>  <SCORE.INTRA.DIHEDRAL.0>
48.7173

>  <SCORE.INTRA.POLAR>
0.521947

>  <SCORE.INTRA.POLAR.0>
-1.54691

>  <SCORE.INTRA.REPUL>
0

>  <SCORE.INTRA.REPUL.0>
0

>  <SCORE.INTRA.SOLV>
-1.20115

>  <SCORE.INTRA.SOLV.lig_0>
-64.052

>  <SCORE.INTRA.VDW>
6.57819

>  <SCORE.INTRA.VDW.0>
-7.0667

>  <SCORE.INTRA.norm>
-0.137052

>  <SCORE.RESTR>
0

>  <SCORE.RESTR.CAVITY>
0

>  <SCORE.RESTR.norm>
0

>  <SCORE.SYSTEM>
0

>  <SCORE.SYSTEM.CONST>
0

>  <SCORE.SYSTEM.DIHEDRAL>
0

>  <SCORE.SYSTEM.SOLV>
0

>  <SCORE.SYSTEM.norm>
0

>  <SCORE.heavy>
42

>  <SCORE.norm>
-1.20942

>  <RMSD>
9.049

$$$$
1fyp_lig
 OpenBabel11021811393D
libRbt.so/2013.1/901 2013/11/27
 42 45  0  0  0  0  0  0  0  0999 V2000
    1.3309    3.4716   30.8749 C   0  0  2  0  0  0  0  0  0  0  0  0
    1.7085    2.4223   29.9375 O   0  0  0  0  0  0  0  0  0  0  0  0
    1.3956    1.0922   25.8911 C   0  0  2  0  0  0  0  0  0  0  0  0
    1.1399    0.9404   24.4468 N   0  0  0  0  0  0  0  0  0  0  0  0
    3.5049    4.6078   26.9167 C   0  0  1  0  0  0  0  0  0  0  0  0
    3.5229    8.3747   24.8736 C   0  0  1  0  0  0  0  0  0  0  0  0
    2.2031    3.4227   32.1706 C   0  0  2  0  0  0  0  0  0  0  0  0
    3.6446    3.3803   31.8454 N   0  0  0  0  0  0  0  0  0  0  0  0
    0.0819    1.4617   26.6084 C   0  0  0  0  0  0  0  0  0  0  0  0
    2.8347    5.8004   27.6039 C   0  0  2  0  0  0  0  0  0  0  0  0
    1.4344    5.7876   27.3236 O   0  0  0  0  0  0  0  0  0  0  0  0
    2.7426    8.6369   23.5494 C   0  0  2  0  0  0  0  0  0  0  0  0
    2.4346    7.3880   22.8107 N   0  0  0  0  0  0  0  0  0  0  0  0
    1.8120    2.2000   33.0584 C   0  0  1  0  0  0  0  0  0  0  0  0
    2.5008    2.2572   34.3050 O   0  0  0  0  0  0  0  0  0  0  0  0
    0.2719    1.6113   28.1427 C   0  0  2  0  0  0  0  0  0  0  0  0
   -1.0193    2.0425   28.7176 N   0  0  0  0  0  0  0  0  0  0  0  0
    3.5272    6.9843   26.9232 C   0  0  2  0  0  0  0  0  0  0  0  0
    2.9158    7.3035   25.6423 O   0  0  0  0  0  0  0  0  0  0  0  0
    3.5051    9.6560   22.6477 C   0  0  1  0  0  0  0  0  0  0  0  0
    3.3753   10.9550   23.2216 O   0  0  0  0  0  0  0  0  0  0  0  0
    0.2890    2.1550   33.3387 C   0  0  2  0  0  0  0  0  0  0  0  0
   -0.0144    0.9715   34.0708 O   0  0  0  0  0  0  0  0  0  0  0  0
    1.4286    2.6052   28.5199 C   0  0  2  0  0  0  0  0  0  0  0  0
    4.9528    6.4515   26.7230 C   0  0  2  0  0  0  0  0  0  0  0  0
    4.8199    5.0310   26.5225 O   0  0  0  0  0  0  0  0  0  0  0  0
    5.0236    9.3461   22.4806 C   0  0  2  0  0  0  0  0  0  0  0  0
    5.1643    8.2160   21.6182 O   0  0  0  0  0  0  0  0  0  0  0  0
   -0.5074    2.1920   32.0035 C   0  0  2  0  0  0  0  0  0  0  0  0
   -0.0884    3.3557   31.2288 O   0  0  0  0  0  0  0  0  0  0  0  0
    2.7424    2.3564   27.6941 C   0  0  2  0  0  0  0  0  0  0  0  0
    3.6084    3.5084   27.8656 O   0  0  0  0  0  0  0  0  0  0  0  0
    5.8756    6.7325   27.9223 C   0  0  0  0  0  0  0  0  0  0  0  0
    6.3421    8.0702   27.8980 O   0  0  0  0  0  0  0  0  0  0  0  0
    5.6848    9.0543   23.8634 C   0  0  1  0  0  0  0  0  0  0  0  0
    4.9171    8.0313   24.5680 O   0  0  0  0  0  0  0  0  0  0  0  0
   -2.0404    2.2971   32.1652 C   0  0  0  0  0  0  0  0  0  0  0  0
   -2.5723    3.3395   31.3653 O   0  0  0  0  0  0  0  0  0  0  0  0
    2.4756    2.1655   26.1687 C   0  0  1  0  0  0  0  0  0  0  0  0
    3.6937    1.7788   25.5343 O   0  0  0  0  0  0  0  0  0  0  0  0
    7.1563    8.5836   23.7352 C   0  0  0  0  0  0  0  0  0  0  0  0
    7.8789    9.2816   22.6565 N   0  0  0  0  0  0  0  0  0  0  0  0
  1  2  1  6  0  0  0
  1  7  1  0  0  0  0
  1 30  1  0  0  0  0
  3  4  1  6  0  0  0
  3  9  1  0  0  0  0
  3 39  1  0  0  0  0
  5 10  1  0  0  0  0
  5 26  1  0  0  0  0
  5 32  1  1  0  0  0
  6 12  1  0  0  0  0
  6 36  1  0  0  0  0
  6 19  1  6  0  0  0
  7  8  1  6  0  0  0
  7 14  1  0  0  0  0
  9 16  1  0  0  0  0
 10 11  1  6  0  0  0
 10 18  1  0  0  0  0
 12 13  1  6  0  0  0
 12 20  1  0  0  0  0
 14 15  1  1  0  0  0
 14 22  1  0  0  0  0
 16 17  1  1  0  0  0
 16 24  1  0  0  0  0
 18 19  1  6  0  0  0
 18 25  1  0  0  0  0
 20 21  1  1  0  0  0
 20 27  1  0  0  0  0
 22 23  1  6  0  0  0
 22 29  1  0  0  0  0
 24  2  1  1  0  0  0
 24 31  1  0  0  0  0
 25 26  1  0  0  0  0
 25 33  1  1  0  0  0
 27 28  1  6  0  0  0
 27 35  1  0  0  0  0
 29 30  1  0  0  0  0
 29 37  1  1  0  0  0
 31 32  1  6  0  0  0
 31 39  1  0  0  0  0
 33 34  1  0  0  0  0
 35 36  1  0  0  0  0
 35 41  1  6  0  0  0
 37 38  1  0  0  0  0
 39 40  1  6  0  0  0
 41 42  1  0  0  0  0
M  END
>  <CHROM.1>
-155.53158565,-109.27825522,75.52898744,165.93320586,70.28488580,44.29410029
-53.02844140,106.35971085,-177.45039781,-178.27076279,-62.56779976,-58.22961479
-79.31884435,171.76185472,129.82885033,-90.97713015,107.79361078,-62.23224159
37.47119517,93.83016199,-58.57800812,-154.96121147,2.66893785,4.89219617
27.51290280,-2.23870484,-0.85705598,-1.42585413

>  <Name>
1fyp_lig

>  <RI>
0

>  <Rbt.Current_Directory>
/home/itssahil/PROJECTS/Mol_Feturizer/New_Systems/rnas/1fyp

>  <Rbt.Executable>
rbdock ($Id: //depot/dev/client3/rdock/2013.1/src/exe/rbdock.cxx#4 $)

>  <Rbt.Library>
libRbt.so (2013.1, Build901 2013/11/27)

>  <Rbt.Parameter_File>
/export/apps/rDock/src/rDock_2013.1_src/data/scripts/dock_solv.prm

>  <Rbt.Receptor>
prm/blind_docking_40.prm

>  <SCORE>
-35.9153

>  <SCORE.INTER>
-38.9102

>  <SCORE.INTER.CONST>
1

>  <SCORE.INTER.POLAR>
-5.16866

>  <SCORE.INTER.ROT>
14

>  <SCORE.INTER.SOLV>
18.5438

>  <SCORE.INTER.VDW>
-27.8259

>  <SCORE.INTER.norm>
-0.926434

>  <SCORE.INTRA>
0.219417

>  <SCORE.INTRA.DIHEDRAL>
-11.2063

>  <SCORE.INTRA.DIHEDRAL.0>
48.7173

>  <SCORE.INTRA.POLAR>
0.678564

>  <SCORE.INTRA.POLAR.0>
-1.54691

>  <SCORE.INTRA.REPUL>
0.167944

>  <SCORE.INTRA.REPUL.0>
0

>  <SCORE.INTRA.SOLV>
-1.08707

>  <SCORE.INTRA.SOLV.lig_0>
-64.052

>  <SCORE.INTRA.VDW>
3.21926

>  <SCORE.INTRA.VDW.0>
-7.0667

>  <SCORE.INTRA.norm>
0.00522422

>  <SCORE.RESTR>
2.77548

>  <SCORE.RESTR.CAVITY>
2.77548

>  <SCORE.RESTR.norm>
0.0660828

>  <SCORE.SYSTEM>
0

>  <SCORE.SYSTEM.CONST>
0

>  <SCORE.SYSTEM.DIHEDRAL>
0

>  <SCORE.SYSTEM.SOLV>
0

>  <SCORE.SYSTEM.norm>
0

>  <SCORE.heavy>
42

>  <SCORE.norm>
-0.855127

>  <RMSD>
9.064

$$$$
1fyp_lig
 OpenBabel11021811393D
libRbt.so/2013.1/901 2013/11/27
 42 45  0  0  0  0  0  0  0  0999 V2000
    3.3965    1.7070   26.7885 C   0  0  2  0  0  0  0  0  0  0  0  0
    3.4096    2.9194   27.5962 O   0  0  0  0  0  0  0  0  0  0  0  0
    2.1542    2.8225   31.6772 C   0  0  2  0  0  0  0  0  0  0  0  0
    2.0465    2.6929   33.1422 N   0  0  0  0  0  0  0  0  0  0  0  0
    3.8680    6.2803   28.5972 C   0  0  1  0  0  0  0  0  0  0  0  0
    2.9796    8.3059   24.7858 C   0  0  1  0  0  0  0  0  0  0  0  0
    3.4488    2.0357   25.2617 C   0  0  2  0  0  0  0  0  0  0  0  0
    4.5538    2.9676   24.9514 N   0  0  0  0  0  0  0  0  0  0  0  0
    2.7086    1.5111   31.0857 C   0  0  0  0  0  0  0  0  0  0  0  0
    3.6835    5.7815   27.1617 C   0  0  2  0  0  0  0  0  0  0  0  0
    4.9005    5.9575   26.4353 O   0  0  0  0  0  0  0  0  0  0  0  0
    3.9408    7.4507   23.9049 C   0  0  2  0  0  0  0  0  0  0  0  0
    5.3275    7.4255   24.4310 N   0  0  0  0  0  0  0  0  0  0  0  0
    2.0892    2.6261   24.7730 C   0  0  1  0  0  0  0  0  0  0  0  0
    2.0977    2.7717   23.3551 O   0  0  0  0  0  0  0  0  0  0  0  0
    2.8233    1.5668   29.5378 C   0  0  2  0  0  0  0  0  0  0  0  0
    3.4360    0.3008   29.0847 N   0  0  0  0  0  0  0  0  0  0  0  0
    2.5867    6.7158   26.6435 C   0  0  2  0  0  0  0  0  0  0  0  0
    3.1296    7.9885   26.1941 O   0  0  0  0  0  0  0  0  0  0  0  0
    3.9059    7.9277   22.4202 C   0  0  1  0  0  0  0  0  0  0  0  0
    2.6720    7.5114   21.8391 O   0  0  0  0  0  0  0  0  0  0  0  0
    0.8936    1.7236   25.1684 C   0  0  2  0  0  0  0  0  0  0  0  0
   -0.3190    2.3606   24.7780 O   0  0  0  0  0  0  0  0  0  0  0  0
    3.6366    2.8117   29.0308 C   0  0  2  0  0  0  0  0  0  0  0  0
    1.7146    6.9115   27.8915 C   0  0  2  0  0  0  0  0  0  0  0  0
    2.6112    6.8357   29.0168 O   0  0  0  0  0  0  0  0  0  0  0  0
    4.0314    9.4715   22.2447 C   0  0  2  0  0  0  0  0  0  0  0  0
    5.3819    9.8510   22.5145 O   0  0  0  0  0  0  0  0  0  0  0  0
    0.9026    1.4554   26.7001 C   0  0  2  0  0  0  0  0  0  0  0  0
    2.2007    0.9089   27.0824 O   0  0  0  0  0  0  0  0  0  0  0  0
    3.2019    4.1515   29.7281 C   0  0  2  0  0  0  0  0  0  0  0  0
    4.2147    5.1535   29.4516 O   0  0  0  0  0  0  0  0  0  0  0  0
    0.6068    5.8515   28.0254 C   0  0  0  0  0  0  0  0  0  0  0  0
    1.1623    4.5575   28.1826 O   0  0  0  0  0  0  0  0  0  0  0  0
    3.0587   10.2195   23.2084 C   0  0  1  0  0  0  0  0  0  0  0  0
    3.2490    9.7331   24.5721 O   0  0  0  0  0  0  0  0  0  0  0  0
   -0.1623    0.4481   27.1886 C   0  0  0  0  0  0  0  0  0  0  0  0
   -0.3199   -0.6203   26.2704 O   0  0  0  0  0  0  0  0  0  0  0  0
    3.0575    4.0133   31.2756 C   0  0  1  0  0  0  0  0  0  0  0  0
    2.4996    5.2197   31.7942 O   0  0  0  0  0  0  0  0  0  0  0  0
    3.2602   11.7564   23.1870 C   0  0  0  0  0  0  0  0  0  0  0  0
    2.1697   12.4769   23.8687 N   0  0  0  0  0  0  0  0  0  0  0  0
  1  2  1  1  0  0  0
  1  7  1  0  0  0  0
  1 30  1  0  0  0  0
  3  4  1  1  0  0  0
  3  9  1  0  0  0  0
  3 39  1  0  0  0  0
  5 10  1  0  0  0  0
  5 26  1  0  0  0  0
  5 32  1  1  0  0  0
  6 12  1  0  0  0  0
  6 36  1  0  0  0  0
  6 19  1  1  0  0  0
  7  8  1  1  0  0  0
  7 14  1  0  0  0  0
  9 16  1  0  0  0  0
 10 11  1  6  0  0  0
 10 18  1  0  0  0  0
 12 13  1  1  0  0  0
 12 20  1  0  0  0  0
 14 15  1  6  0  0  0
 14 22  1  0  0  0  0
 16 17  1  1  0  0  0
 16 24  1  0  0  0  0
 18 19  1  1  0  0  0
 18 25  1  0  0  0  0
 20 21  1  1  0  0  0
 20 27  1  0  0  0  0
 22 23  1  1  0  0  0
 22 29  1  0  0  0  0
 24  2  1  6  0  0  0
 24 31  1  0  0  0  0
 25 26  1  0  0  0  0
 25 33  1  1  0  0  0
 27 28  1  1  0  0  0
 27 35  1  0  0  0  0
 29 30  1  0  0  0  0
 29 37  1  6  0  0  0
 31 32  1  1  0  0  0
 31 39  1  0  0  0  0
 33 34  1  0  0  0  0
 35 36  1  0  0  0  0
 35 41  1  1  0  0  0
 37 38  1  0  0  0  0
 39 40  1  6  0  0  0
 41 42  1  0  0  0  0
M  END
>  <CHROM.1>
-167.75441936,-41.11683536,-68.56892149,-7.06755043,169.44724741,-72.36784741
65.28216402,-57.22780527,116.37926758,-73.18820079,-55.07977173,-76.67001728
63.11998689,73.17126882,38.56931235,112.27050942,-69.73191806,-170.85102742
167.93028944,74.08311476,-52.54926996,-134.82813953,2.76419199,5.01162086
26.66812524,2.27257350,1.32617453,1.82482838

>  <Name>
1fyp_lig

>  <RI>
0

>  <Rbt.Current_Directory>
/home/itssahil/PROJECTS/Mol_Feturizer/New_Systems/rnas/1fyp

>  <Rbt.Executable>
rbdock ($Id: //depot/dev/client3/rdock/2013.1/src/exe/rbdock.cxx#4 $)

>  <Rbt.Library>
libRbt.so (2013.1, Build901 2013/11/27)

>  <Rbt.Parameter_File>
/export/apps/rDock/src/rDock_2013.1_src/data/scripts/dock_solv.prm

>  <Rbt.Receptor>
prm/blind_docking_40.prm

>  <SCORE>
-60.7909

>  <SCORE.INTER>
-60.0064

>  <SCORE.INTER.CONST>
1

>  <SCORE.INTER.POLAR>
-7.86487

>  <SCORE.INTER.ROT>
14

>  <SCORE.INTER.SOLV>
22.4738

>  <SCORE.INTER.VDW>
-34.2126

>  <SCORE.INTER.norm>
-1.42872

>  <SCORE.INTRA>
-0.826727

>  <SCORE.INTRA.DIHEDRAL>
-19.36

>  <SCORE.INTRA.DIHEDRAL.0>
48.7173

>  <SCORE.INTRA.POLAR>
0.693527

>  <SCORE.INTRA.POLAR.0>
-1.54691

>  <SCORE.INTRA.REPUL>
0.160082

>  <SCORE.INTRA.REPUL.0>
0

>  <SCORE.INTRA.SOLV>
2.63048

>  <SCORE.INTRA.SOLV.lig_0>
-64.052

>  <SCORE.INTRA.VDW>
4.37961

>  <SCORE.INTRA.VDW.0>
-7.0667

>  <SCORE.INTRA.norm>
-0.019684

>  <SCORE.RESTR>
0.0421849

>  <SCORE.RESTR.CAVITY>
0.0421849

>  <SCORE.RESTR.norm>
0.0010044

>  <SCORE.SYSTEM>
0

>  <SCORE.SYSTEM.CONST>
0

>  <SCORE.SYSTEM.DIHEDRAL>
0

>  <SCORE.SYSTEM.SOLV>
0

>  <SCORE.SYSTEM.norm>
0

>  <SCORE.heavy>
42

>  <SCORE.norm>
-1.4474

>  <RMSD>
9.068

$$$$
1fyp_lig
 OpenBabel11021811393D
libRbt.so/2013.1/901 2013/11/27
 42 45  0  0  0  0  0  0  0  0999 V2000
    2.7012    1.8122   27.1471 C   0  0  2  0  0  0  0  0  0  0  0  0
    2.4396    2.9887   27.9654 O   0  0  0  0  0  0  0  0  0  0  0  0
    2.4335    3.4428   32.2121 C   0  0  2  0  0  0  0  0  0  0  0  0
    2.7659    3.5254   33.6464 N   0  0  0  0  0  0  0  0  0  0  0  0
    3.1540    5.9312   27.8644 C   0  0  1  0  0  0  0  0  0  0  0  0
    2.2388    7.8792   24.3245 C   0  0  1  0  0  0  0  0  0  0  0  0
    2.9556    2.1983   25.6543 C   0  0  2  0  0  0  0  0  0  0  0  0
    3.9754    3.2628   25.5420 N   0  0  0  0  0  0  0  0  0  0  0  0
    2.8958    2.0813   31.6560 C   0  0  0  0  0  0  0  0  0  0  0  0
    2.0318    6.9637   27.9995 C   0  0  2  0  0  0  0  0  0  0  0  0
    0.7667    6.3116   27.8818 O   0  0  0  0  0  0  0  0  0  0  0  0
    3.0855    6.8253   23.5476 C   0  0  2  0  0  0  0  0  0  0  0  0
    4.0736    6.1358   24.4128 N   0  0  0  0  0  0  0  0  0  0  0  0
    1.6298    2.6433   24.9613 C   0  0  1  0  0  0  0  0  0  0  0  0
    1.8459    2.8387   23.5660 O   0  0  0  0  0  0  0  0  0  0  0  0
    2.5519    1.9138   30.1506 C   0  0  2  0  0  0  0  0  0  0  0  0
    3.1064    0.6196   29.7021 N   0  0  0  0  0  0  0  0  0  0  0  0
    2.3001    7.8772   26.8004 C   0  0  2  0  0  0  0  0  0  0  0  0
    1.7355    7.3370   25.5733 O   0  0  0  0  0  0  0  0  0  0  0  0
    3.7726    7.4712   22.3051 C   0  0  1  0  0  0  0  0  0  0  0  0
    2.7792    7.7086   21.3099 O   0  0  0  0  0  0  0  0  0  0  0  0
    0.5042    1.5943   25.1433 C   0  0  2  0  0  0  0  0  0  0  0  0
   -0.6988    2.0992   24.5718 O   0  0  0  0  0  0  0  0  0  0  0  0
    3.0807    3.1013   29.2684 C   0  0  2  0  0  0  0  0  0  0  0  0
    3.8337    7.8788   26.7339 C   0  0  2  0  0  0  0  0  0  0  0  0
    4.2517    6.5833   27.2059 O   0  0  0  0  0  0  0  0  0  0  0  0
    4.4936    8.8200   22.6061 C   0  0  2  0  0  0  0  0  0  0  0  0
    5.6889    8.5428   23.3376 O   0  0  0  0  0  0  0  0  0  0  0  0
    0.3019    1.2753   26.6518 C   0  0  2  0  0  0  0  0  0  0  0  0
    1.5790    0.8705   27.2305 O   0  0  0  0  0  0  0  0  0  0  0  0
    2.7609    4.5111   29.8852 C   0  0  2  0  0  0  0  0  0  0  0  0
    3.5663    5.5001   29.1926 O   0  0  0  0  0  0  0  0  0  0  0  0
    4.4734    8.9857   27.5908 C   0  0  0  0  0  0  0  0  0  0  0  0
    3.7675   10.2060   27.4484 O   0  0  0  0  0  0  0  0  0  0  0  0
    3.5684    9.7718   23.4263 C   0  0  1  0  0  0  0  0  0  0  0  0
    3.0561    9.0675   24.5985 O   0  0  0  0  0  0  0  0  0  0  0  0
   -0.6979    0.1344   26.9451 C   0  0  0  0  0  0  0  0  0  0  0  0
   -0.1795   -1.1213   26.5400 O   0  0  0  0  0  0  0  0  0  0  0  0
    3.0830    4.5958   31.4095 C   0  0  1  0  0  0  0  0  0  0  0  0
    2.6046    5.8428   31.9113 O   0  0  0  0  0  0  0  0  0  0  0  0
    4.2954   11.0606   23.8884 C   0  0  0  0  0  0  0  0  0  0  0  0
    3.5154   11.8222   24.8806 N   0  0  0  0  0  0  0  0  0  0  0  0
  1  2  1  1  0  0  0
  1  7  1  0  0  0  0
  1 30  1  0  0  0  0
  3  4  1  1  0  0  0
  3  9  1  0  0  0  0
  3 39  1  0  0  0  0
  5 10  1  0  0  0  0
  5 26  1  0  0  0  0
  5 32  1  1  0  0  0
  6 12  1  0  0  0  0
  6 36  1  0  0  0  0
  6 19  1  1  0  0  0
  7  8  1  1  0  0  0
  7 14  1  0  0  0  0
  9 16  1  0  0  0  0
 10 11  1  6  0  0  0
 10 18  1  0  0  0  0
 12 13  1  1  0  0  0
 12 20  1  0  0  0  0
 14 15  1  6  0  0  0
 14 22  1  0  0  0  0
 16 17  1  6  0  0  0
 16 24  1  0  0  0  0
 18 19  1  6  0  0  0
 18 25  1  0  0  0  0
 20 21  1  6  0  0  0
 20 27  1  0  0  0  0
 22 23  1  1  0  0  0
 22 29  1  0  0  0  0
 24  2  1  6  0  0  0
 24 31  1  0  0  0  0
 25 26  1  0  0  0  0
 25 33  1  1  0  0  0
 27 28  1  1  0  0  0
 27 35  1  0  0  0  0
 29 30  1  0  0  0  0
 29 37  1  6  0  0  0
 31 32  1  6  0  0  0
 31 39  1  0  0  0  0
 33 34  1  0  0  0  0
 35 36  1  0  0  0  0
 35 41  1  1  0  0  0
 37 38  1  0  0  0  0
 39 40  1  1  0  0  0
 41 42  1  0  0  0  0
M  END
>  <CHROM.1>
-136.08008868,-63.05732887,174.57162742,-23.29227590,-66.19028288,94.23856068
60.23206307,-62.01475096,-162.44082823,110.85151385,-14.68611311,175.75902857
-42.66141257,63.60409401,69.54200960,77.24693047,79.84866930,-172.17539047
-168.45394955,-58.52514915,-63.14553040,54.07004965,2.66006354,5.21452770
26.76042237,2.27235903,1.22881594,1.88160977

>  <Name>
1fyp_lig

>  <RI>
0

>  <Rbt.Current_Directory>
/home/itssahil/PROJECTS/Mol_Feturizer/New_Systems/rnas/1fyp

>  <Rbt.Executable>
rbdock ($Id: //depot/dev/client3/rdock/2013.1/src/exe/rbdock.cxx#4 $)

>  <Rbt.Library>
libRbt.so (2013.1, Build901 2013/11/27)

>  <Rbt.Parameter_File>
/export/apps/rDock/src/rDock_2013.1_src/data/scripts/dock_solv.prm

>  <Rbt.Receptor>
prm/blind_docking_40.prm

>  <SCORE>
-30.7144

>  <SCORE.INTER>
-24.2722

>  <SCORE.INTER.CONST>
1

>  <SCORE.INTER.POLAR>
-5.70127

>  <SCORE.INTER.ROT>
14

>  <SCORE.INTER.SOLV>
26.522

>  <SCORE.INTER.VDW>
-18.9512

>  <SCORE.INTER.norm>
-0.57791

>  <SCORE.INTRA>
-7.0556

>  <SCORE.INTRA.DIHEDRAL>
-19.2466

>  <SCORE.INTRA.DIHEDRAL.0>
48.7173

>  <SCORE.INTRA.POLAR>
-0.678122

>  <SCORE.INTRA.POLAR.0>
-1.54691

>  <SCORE.INTRA.REPUL>
0.00417671

>  <SCORE.INTRA.REPUL.0>
0

>  <SCORE.INTRA.SOLV>
1.23936

>  <SCORE.INTRA.SOLV.lig_0>
-64.052

>  <SCORE.INTRA.VDW>
4.23276

>  <SCORE.INTRA.VDW.0>
-7.0667

>  <SCORE.INTRA.norm>
-0.16799

>  <SCORE.RESTR>
0.613373

>  <SCORE.RESTR.CAVITY>
0.613373

>  <SCORE.RESTR.norm>
0.0146041

>  <SCORE.SYSTEM>
0

>  <SCORE.SYSTEM.CONST>
0

>  <SCORE.SYSTEM.DIHEDRAL>
0

>  <SCORE.SYSTEM.SOLV>
0

>  <SCORE.SYSTEM.norm>
0

>  <SCORE.heavy>
42

>  <SCORE.norm>
-0.731296

>  <RMSD>
9.124

$$$$
1fyp_lig
 OpenBabel11021811393D
libRbt.so/2013.1/901 2013/11/27
 42 45  0  0  0  0  0  0  0  0999 V2000
    3.9890    3.6001   25.4889 C   0  0  2  0  0  0  0  0  0  0  0  0
    2.9624    4.6156   25.6819 O   0  0  0  0  0  0  0  0  0  0  0  0
    2.9885    8.7535   24.6247 C   0  0  2  0  0  0  0  0  0  0  0  0
    3.1590   10.2169   24.5617 N   0  0  0  0  0  0  0  0  0  0  0  0
    6.3924    6.2905   25.7568 C   0  0  1  0  0  0  0  0  0  0  0  0
    9.0838    7.8865   28.2692 C   0  0  1  0  0  0  0  0  0  0  0  0
    3.3759    2.1628   25.4693 C   0  0  2  0  0  0  0  0  0  0  0  0
    2.2422    2.0763   24.5244 N   0  0  0  0  0  0  0  0  0  0  0  0
    2.2915    8.3748   25.9467 C   0  0  0  0  0  0  0  0  0  0  0  0
    7.7719    5.6619   25.5436 C   0  0  2  0  0  0  0  0  0  0  0  0
    7.8669    4.4526   26.2973 O   0  0  0  0  0  0  0  0  0  0  0  0
   10.6152    8.1240   28.4412 C   0  0  2  0  0  0  0  0  0  0  0  0
   11.3305    6.9162   28.9207 N   0  0  0  0  0  0  0  0  0  0  0  0
    2.9229    1.7318   26.8994 C   0  0  1  0  0  0  0  0  0  0  0  0
    2.5147    0.3662   26.8952 O   0  0  0  0  0  0  0  0  0  0  0  0
    2.0543    6.8447   26.0687 C   0  0  2  0  0  0  0  0  0  0  0  0
    1.4599    6.5845   27.3964 N   0  0  0  0  0  0  0  0  0  0  0  0
    8.6993    6.7423   26.1066 C   0  0  2  0  0  0  0  0  0  0  0  0
    8.8168    6.6521   27.5539 O   0  0  0  0  0  0  0  0  0  0  0  0
   10.8868    9.3493   29.3674 C   0  0  1  0  0  0  0  0  0  0  0  0
   10.5753   10.5400   28.6472 O   0  0  0  0  0  0  0  0  0  0  0  0
    4.0583    1.9034   27.9396 C   0  0  2  0  0  0  0  0  0  0  0  0
    3.5557    1.5839   29.2334 O   0  0  0  0  0  0  0  0  0  0  0  0
    3.3644    6.0051   25.8519 C   0  0  2  0  0  0  0  0  0  0  0  0
    7.9721    8.0327   25.7035 C   0  0  2  0  0  0  0  0  0  0  0  0
    6.5667    7.7160   25.7181 O   0  0  0  0  0  0  0  0  0  0  0  0
   10.0568    9.3461   30.6869 C   0  0  2  0  0  0  0  0  0  0  0  0
   10.5939    8.3502   31.5589 O   0  0  0  0  0  0  0  0  0  0  0  0
    4.6040    3.3592   27.9085 C   0  0  2  0  0  0  0  0  0  0  0  0
    5.0039    3.6910   26.5447 O   0  0  0  0  0  0  0  0  0  0  0  0
    4.1854    6.4667   24.5938 C   0  0  2  0  0  0  0  0  0  0  0  0
    5.5086    5.8760   24.6766 O   0  0  0  0  0  0  0  0  0  0  0  0
    8.3840    8.5477   24.3129 C   0  0  0  0  0  0  0  0  0  0  0  0
    7.9740    9.8917   24.1303 O   0  0  0  0  0  0  0  0  0  0  0  0
    8.5527    9.0518   30.3945 C   0  0  1  0  0  0  0  0  0  0  0  0
    8.4380    7.8406   29.5869 O   0  0  0  0  0  0  0  0  0  0  0  0
    5.8380    3.6086   28.8042 C   0  0  0  0  0  0  0  0  0  0  0  0
    5.5362    3.3836   30.1708 O   0  0  0  0  0  0  0  0  0  0  0  0
    4.3442    8.0164   24.5056 C   0  0  1  0  0  0  0  0  0  0  0  0
    4.9477    8.3457   23.2553 O   0  0  0  0  0  0  0  0  0  0  0  0
    7.7149    8.8789   31.6872 C   0  0  0  0  0  0  0  0  0  0  0  0
    7.3174   10.1698   32.2777 N   0  0  0  0  0  0  0  0  0  0  0  0
  1  2  1  1  0  0  0
  1  7  1  0  0  0  0
  1 30  1  0  0  0  0
  3  4  1  1  0  0  0
  3  9  1  0  0  0  0
  3 39  1  0  0  0  0
  5 10  1  0  0  0  0
  5 26  1  0  0  0  0
  5 32  1  6  0  0  0
  6 12  1  0  0  0  0
  6 36  1  0  0  0  0
  6 19  1  1  0  0  0
  7  8  1  6  0  0  0
  7 14  1  0  0  0  0
  9 16  1  0  0  0  0
 10 11  1  1  0  0  0
 10 18  1  0  0  0  0
 12 13  1  1  0  0  0
 12 20  1  0  0  0  0
 14 15  1  6  0  0  0
 14 22  1  0  0  0  0
 16 17  1  1  0  0  0
 16 24  1  0  0  0  0
 18 19  1  1  0  0  0
 18 25  1  0  0  0  0
 20 21  1  6  0  0  0
 20 27  1  0  0  0  0
 22 23  1  1  0  0  0
 22 29  1  0  0  0  0
 24  2  1  6  0  0  0
 24 31  1  0  0  0  0
 25 26  1  0  0  0  0
 25 33  1  6  0  0  0
 27 28  1  1  0  0  0
 27 35  1  0  0  0  0
 29 30  1  0  0  0  0
 29 37  1  1  0  0  0
 31 32  1  1  0  0  0
 31 39  1  0  0  0  0
 33 34  1  0  0  0  0
 35 36  1  0  0  0  0
 35 41  1  1  0  0  0
 37 38  1  0  0  0  0
 39 40  1  6  0  0  0
 41 42  1  0  0  0  0
M  END
>  <CHROM.1>
174.29776908,-178.74131805,80.82336263,157.57009745,172.20320080,48.53185886
58.77130087,-54.22589486,-151.08034018,-91.01222922,-176.02703100,178.16658146
-164.55900456,-48.43251999,-62.14355282,-65.74984286,-173.50586962,56.87146259
81.38716547,-176.95270792,179.60766804,-153.89047158,6.12292606,6.37068063
27.12143211,-2.86884151,-0.71985996,-0.64474540

>  <Name>
1fyp_lig

>  <RI>
0

>  <Rbt.Current_Directory>
/home/itssahil/PROJECTS/Mol_Feturizer/New_Systems/rnas/1fyp

>  <Rbt.Executable>
rbdock ($Id: //depot/dev/client3/rdock/2013.1/src/exe/rbdock.cxx#4 $)

>  <Rbt.Library>
libRbt.so (2013.1, Build901 2013/11/27)

>  <Rbt.Parameter_File>
/export/apps/rDock/src/rDock_2013.1_src/data/scripts/dock_solv.prm

>  <Rbt.Receptor>
prm/pocket_docking_7.prm

>  <SCORE>
-66.2619

>  <SCORE.INTER>
-55.7189

>  <SCORE.INTER.CONST>
1

>  <SCORE.INTER.POLAR>
-6.96415

>  <SCORE.INTER.ROT>
14

>  <SCORE.INTER.SOLV>
18.5674

>  <SCORE.INTER.VDW>
-33.0546

>  <SCORE.INTER.norm>
-1.32664

>  <SCORE.INTRA>
-10.543

>  <SCORE.INTRA.DIHEDRAL>
-34.2811

>  <SCORE.INTRA.DIHEDRAL.0>
48.7173

>  <SCORE.INTRA.POLAR>
0.387479

>  <SCORE.INTRA.POLAR.0>
-1.54691

>  <SCORE.INTRA.REPUL>
0.3989

>  <SCORE.INTRA.REPUL.0>
0

>  <SCORE.INTRA.SOLV>
-1.71351

>  <SCORE.INTRA.SOLV.lig_0>
-64.052

>  <SCORE.INTRA.VDW>
4.14235

>  <SCORE.INTRA.VDW.0>
-7.0667

>  <SCORE.INTRA.norm>
-0.251024

>  <SCORE.RESTR>
0

>  <SCORE.RESTR.CAVITY>
0

>  <SCORE.RESTR.norm>
0

>  <SCORE.SYSTEM>
0

>  <SCORE.SYSTEM.CONST>
0

>  <SCORE.SYSTEM.DIHEDRAL>
0

>  <SCORE.SYSTEM.SOLV>
0

>  <SCORE.SYSTEM.norm>
0

>  <SCORE.heavy>
42

>  <SCORE.norm>
-1.57766

>  <RMSD>
9.138

$$$$
1fyp_lig
 OpenBabel11021811393D
libRbt.so/2013.1/901 2013/11/27
 42 45  0  0  0  0  0  0  0  0999 V2000
    2.6007    2.2970   30.5263 C   0  0  2  0  0  0  0  0  0  0  0  0
    3.2093    3.6167   30.6274 O   0  0  0  0  0  0  0  0  0  0  0  0
    6.2113    5.4174   33.0742 C   0  0  2  0  0  0  0  0  0  0  0  0
    7.4301    5.7612   33.8296 N   0  0  0  0  0  0  0  0  0  0  0  0
    4.6646    5.6252   28.3360 C   0  0  1  0  0  0  0  0  0  0  0  0
    3.7853    8.1072   24.8540 C   0  0  1  0  0  0  0  0  0  0  0  0
    2.7999    1.6823   29.1034 C   0  0  2  0  0  0  0  0  0  0  0  0
    4.2180    1.7372   28.6892 N   0  0  0  0  0  0  0  0  0  0  0  0
    5.7462    4.0012   33.4679 C   0  0  0  0  0  0  0  0  0  0  0  0
    5.5202    6.2950   27.2576 C   0  0  2  0  0  0  0  0  0  0  0  0
    5.6770    7.6807   27.5653 O   0  0  0  0  0  0  0  0  0  0  0  0
    3.1309    7.6404   23.5179 C   0  0  2  0  0  0  0  0  0  0  0  0
    3.4908    6.2461   23.1619 N   0  0  0  0  0  0  0  0  0  0  0  0
    1.9007    2.4072   28.0536 C   0  0  1  0  0  0  0  0  0  0  0  0
    1.9726    1.7365   26.7979 O   0  0  0  0  0  0  0  0  0  0  0  0
    4.4465    3.5823   32.7277 C   0  0  2  0  0  0  0  0  0  0  0  0
    4.1363    2.1899   33.1131 N   0  0  0  0  0  0  0  0  0  0  0  0
    4.6597    6.0971   26.0067 C   0  0  2  0  0  0  0  0  0  0  0  0
    3.6233    7.1124   25.8984 O   0  0  0  0  0  0  0  0  0  0  0  0
    3.4698    8.6274   22.3586 C   0  0  1  0  0  0  0  0  0  0  0  0
    2.7172    9.8240   22.5473 O   0  0  0  0  0  0  0  0  0  0  0  0
    0.4184    2.4574   28.5012 C   0  0  2  0  0  0  0  0  0  0  0  0
   -0.3293    3.2093   27.5502 O   0  0  0  0  0  0  0  0  0  0  0  0
    4.5566    3.7352   31.1680 C   0  0  2  0  0  0  0  0  0  0  0  0
    4.0382    4.7163   26.2588 C   0  0  2  0  0  0  0  0  0  0  0  0
    3.8900    4.6038   27.6875 O   0  0  0  0  0  0  0  0  0  0  0  0
    4.9784    9.0092   22.2684 C   0  0  2  0  0  0  0  0  0  0  0  0
    5.7006    7.8885   21.7554 O   0  0  0  0  0  0  0  0  0  0  0  0
    0.3023    3.0936   29.9154 C   0  0  2  0  0  0  0  0  0  0  0  0
    1.1688    2.3681   30.8388 O   0  0  0  0  0  0  0  0  0  0  0  0
    5.1731    5.1132   30.7305 C   0  0  2  0  0  0  0  0  0  0  0  0
    5.5397    5.0192   29.3294 O   0  0  0  0  0  0  0  0  0  0  0  0
    4.9013    3.5598   25.7237 C   0  0  0  0  0  0  0  0  0  0  0  0
    4.2712    2.3115   25.9526 O   0  0  0  0  0  0  0  0  0  0  0  0
    5.5328    9.4116   23.6702 C   0  0  1  0  0  0  0  0  0  0  0  0
    5.2142    8.3688   24.6415 O   0  0  0  0  0  0  0  0  0  0  0  0
   -1.1169    3.0643   30.5254 C   0  0  0  0  0  0  0  0  0  0  0  0
   -1.6800    1.7652   30.4572 O   0  0  0  0  0  0  0  0  0  0  0  0
    6.4465    5.4967   31.5465 C   0  0  1  0  0  0  0  0  0  0  0  0
    6.8302    6.8267   31.2006 O   0  0  0  0  0  0  0  0  0  0  0  0
    7.0654    9.6446   23.6629 C   0  0  0  0  0  0  0  0  0  0  0  0
    7.8266    8.3878   23.7814 N   0  0  0  0  0  0  0  0  0  0  0  0
  1  2  1  6  0  0  0
  1  7  1  0  0  0  0
  1 30  1  0  0  0  0
  3  4  1  1  0  0  0
  3  9  1  0  0  0  0
  3 39  1  0  0  0  0
  5 10  1  0  0  0  0
  5 26  1  0  0  0  0
  5 32  1  1  0  0  0
  6 12  1  0  0  0  0
  6 36  1  0  0  0  0
  6 19  1  1  0  0  0
  7  8  1  6  0  0  0
  7 14  1  0  0  0  0
  9 16  1  0  0  0  0
 10 11  1  1  0  0  0
 10 18  1  0  0  0  0
 12 13  1  6  0  0  0
 12 20  1  0  0  0  0
 14 15  1  6  0  0  0
 14 22  1  0  0  0  0
 16 17  1  6  0  0  0
 16 24  1  0  0  0  0
 18 19  1  1  0  0  0
 18 25  1  0  0  0  0
 20 21  1  1  0  0  0
 20 27  1  0  0  0  0
 22 23  1  6  0  0  0
 22 29  1  0  0  0  0
 24  2  1  6  0  0  0
 24 31  1  0  0  0  0
 25 26  1  0  0  0  0
 25 33  1  1  0  0  0
 27 28  1  1  0  0  0
 27 35  1  0  0  0  0
 29 30  1  0  0  0  0
 29 37  1  1  0  0  0
 31 32  1  6  0  0  0
 31 39  1  0  0  0  0
 33 34  1  0  0  0  0
 35 36  1  0  0  0  0
 35 41  1  6  0  0  0
 37 38  1  0  0  0  0
 39 40  1  1  0  0  0
 41 42  1  0  0  0  0
M  END
>  <CHROM.1>
-95.22442277,-76.68928096,63.25769834,-75.90642558,-46.15261564,-175.32681187
49.24709631,144.55178509,108.93331966,89.23527713,59.65699440,-59.23534873
-178.63955942,54.37206786,50.17881987,101.75000901,140.09577771,178.15104768
-82.48114770,-135.29265431,-54.04543122,-59.28232895,3.94677065,5.17411616
27.79801880,1.82378755,0.61066827,2.01907224

>  <Name>
1fyp_lig

>  <RI>
0

>  <Rbt.Current_Directory>
/home/itssahil/PROJECTS/Mol_Feturizer/New_Systems/rnas/1fyp

>  <Rbt.Executable>
rbdock ($Id: //depot/dev/client3/rdock/2013.1/src/exe/rbdock.cxx#4 $)

>  <Rbt.Library>
libRbt.so (2013.1, Build901 2013/11/27)

>  <Rbt.Parameter_File>
/export/apps/rDock/src/rDock_2013.1_src/data/scripts/dock_solv.prm

>  <Rbt.Receptor>
prm/pocket_docking_5.prm

>  <SCORE>
-48.7355

>  <SCORE.INTER>
-47.7553

>  <SCORE.INTER.CONST>
1

>  <SCORE.INTER.POLAR>
-6.74689

>  <SCORE.INTER.ROT>
14

>  <SCORE.INTER.SOLV>
15.8607

>  <SCORE.INTER.VDW>
-27.5674

>  <SCORE.INTER.norm>
-1.13703

>  <SCORE.INTRA>
-1.47066

>  <SCORE.INTRA.DIHEDRAL>
-9.46141

>  <SCORE.INTRA.DIHEDRAL.0>
48.7173

>  <SCORE.INTRA.POLAR>
0.542053

>  <SCORE.INTRA.POLAR.0>
-1.54691

>  <SCORE.INTRA.REPUL>
0.0364437

>  <SCORE.INTRA.REPUL.0>
0

>  <SCORE.INTRA.SOLV>
2.43988

>  <SCORE.INTRA.SOLV.lig_0>
-64.052

>  <SCORE.INTRA.VDW>
0.0149002

>  <SCORE.INTRA.VDW.0>
-7.0667

>  <SCORE.INTRA.norm>
-0.0350158

>  <SCORE.RESTR>
0.490427

>  <SCORE.RESTR.CAVITY>
0.490427

>  <SCORE.RESTR.norm>
0.0116768

>  <SCORE.SYSTEM>
0

>  <SCORE.SYSTEM.CONST>
0

>  <SCORE.SYSTEM.DIHEDRAL>
0

>  <SCORE.SYSTEM.SOLV>
0

>  <SCORE.SYSTEM.norm>
0

>  <SCORE.heavy>
42

>  <SCORE.norm>
-1.16037

>  <RMSD>
9.139

$$$$
1fyp_lig
 OpenBabel11021811393D
libRbt.so/2013.1/901 2013/11/27
 42 45  0  0  0  0  0  0  0  0999 V2000
    1.6212    4.2678   28.5296 C   0  0  2  0  0  0  0  0  0  0  0  0
    1.7922    4.3884   29.9713 O   0  0  0  0  0  0  0  0  0  0  0  0
    5.1655    4.9897   32.5208 C   0  0  2  0  0  0  0  0  0  0  0  0
    6.3966    4.8687   33.3234 N   0  0  0  0  0  0  0  0  0  0  0  0
    4.4325    5.8542   27.7909 C   0  0  1  0  0  0  0  0  0  0  0  0
    4.3651    8.3675   24.6481 C   0  0  1  0  0  0  0  0  0  0  0  0
    0.1386    4.5218   28.1058 C   0  0  2  0  0  0  0  0  0  0  0  0
   -0.3750    5.7831   28.6811 N   0  0  0  0  0  0  0  0  0  0  0  0
    4.1851    3.8663   32.9129 C   0  0  0  0  0  0  0  0  0  0  0  0
    5.8441    6.3326   27.4411 C   0  0  2  0  0  0  0  0  0  0  0  0
    6.1843    7.4531   28.2585 O   0  0  0  0  0  0  0  0  0  0  0  0
    5.0823    7.8269   23.3735 C   0  0  2  0  0  0  0  0  0  0  0  0
    6.5222    8.1810   23.3344 N   0  0  0  0  0  0  0  0  0  0  0  0
   -0.7722    3.3254   28.5242 C   0  0  1  0  0  0  0  0  0  0  0  0
   -2.0840    3.4970   27.9937 O   0  0  0  0  0  0  0  0  0  0  0  0
    2.8502    3.9490   32.1232 C   0  0  2  0  0  0  0  0  0  0  0  0
    2.0223    2.7888   32.5133 N   0  0  0  0  0  0  0  0  0  0  0  0
    5.6818    6.7428   25.9749 C   0  0  2  0  0  0  0  0  0  0  0  0
    5.1320    8.0837   25.8472 O   0  0  0  0  0  0  0  0  0  0  0  0
    4.3472    8.2973   22.0806 C   0  0  1  0  0  0  0  0  0  0  0  0
    3.1312    7.5625   21.9577 O   0  0  0  0  0  0  0  0  0  0  0  0
   -0.2112    1.9711   28.0226 C   0  0  2  0  0  0  0  0  0  0  0  0
   -1.0328    0.9166   28.5142 O   0  0  0  0  0  0  0  0  0  0  0  0
    3.0642    4.0042   30.5677 C   0  0  2  0  0  0  0  0  0  0  0  0
    4.6831    5.6984   25.4571 C   0  0  2  0  0  0  0  0  0  0  0  0
    3.8363    5.3717   26.5761 O   0  0  0  0  0  0  0  0  0  0  0  0
    4.0026    9.8174   22.0618 C   0  0  2  0  0  0  0  0  0  0  0  0
    5.2082   10.5538   21.8504 O   0  0  0  0  0  0  0  0  0  0  0  0
    1.2584    1.7863   28.4963 C   0  0  2  0  0  0  0  0  0  0  0  0
    2.0460    2.9397   28.0728 O   0  0  0  0  0  0  0  0  0  0  0  0
    4.1717    5.0337   30.1389 C   0  0  2  0  0  0  0  0  0  0  0  0
    4.5238    4.7681   28.7562 O   0  0  0  0  0  0  0  0  0  0  0  0
    5.3641    4.4270   24.9201 C   0  0  0  0  0  0  0  0  0  0  0  0
    6.2073    3.8521   25.9030 O   0  0  0  0  0  0  0  0  0  0  0  0
    3.3347   10.2507   23.4037 C   0  0  1  0  0  0  0  0  0  0  0  0
    4.1620    9.8164   24.5259 O   0  0  0  0  0  0  0  0  0  0  0  0
    1.9688    0.5350   27.9335 C   0  0  0  0  0  0  0  0  0  0  0  0
    3.3071    0.4521   28.3937 O   0  0  0  0  0  0  0  0  0  0  0  0
    5.4663    4.9305   31.0038 C   0  0  1  0  0  0  0  0  0  0  0  0
    6.3371    6.0062   30.6570 O   0  0  0  0  0  0  0  0  0  0  0  0
    3.1198   11.7831   23.4972 C   0  0  0  0  0  0  0  0  0  0  0  0
    2.3254   12.3100   22.3728 N   0  0  0  0  0  0  0  0  0  0  0  0
  1  2  1  1  0  0  0
  1  7  1  0  0  0  0
  1 30  1  0  0  0  0
  3  4  1  1  0  0  0
  3  9  1  0  0  0  0
  3 39  1  0  0  0  0
  5 10  1  0  0  0  0
  5 26  1  0  0  0  0
  5 32  1  1  0  0  0
  6 12  1  0  0  0  0
  6 36  1  0  0  0  0
  6 19  1  1  0  0  0
  7  8  1  1  0  0  0
  7 14  1  0  0  0  0
  9 16  1  0  0  0  0
 10 11  1  1  0  0  0
 10 18  1  0  0  0  0
 12 13  1  6  0  0  0
 12 20  1  0  0  0  0
 14 15  1  6  0  0  0
 14 22  1  0  0  0  0
 16 17  1  6  0  0  0
 16 24  1  0  0  0  0
 18 19  1  1  0  0  0
 18 25  1  0  0  0  0
 20 21  1  1  0  0  0
 20 27  1  0  0  0  0
 22 23  1  1  0  0  0
 22 29  1  0  0  0  0
 24  2  1  6  0  0  0
 24 31  1  0  0  0  0
 25 26  1  0  0  0  0
 25 33  1  1  0  0  0
 27 28  1  1  0  0  0
 27 35  1  0  0  0  0
 29 30  1  0  0  0  0
 29 37  1  6  0  0  0
 31 32  1  6  0  0  0
 31 39  1  0  0  0  0
 33 34  1  0  0  0  0
 35 36  1  0  0  0  0
 35 41  1  6  0  0  0
 37 38  1  0  0  0  0
 39 40  1  6  0  0  0
 41 42  1  0  0  0  0
M  END
>  <CHROM.1>
171.57598104,-168.17199760,-166.74138301,-117.26683494,-35.25808390,-68.74527284
-62.93541806,-49.47540616,-152.06678290,-45.06271866,-134.40295920,-66.12013849
55.66992652,70.47634128,179.00049272,124.81631462,105.91476878,174.33776922
56.26614878,-162.31110639,-49.76843802,-54.72280866,3.45098748,5.67149989
27.29884304,1.81987416,0.53020975,2.17564828

>  <Name>
1fyp_lig

>  <RI>
0

>  <Rbt.Current_Directory>
/home/itssahil/PROJECTS/Mol_Feturizer/New_Systems/rnas/1fyp

>  <Rbt.Executable>
rbdock ($Id: //depot/dev/client3/rdock/2013.1/src/exe/rbdock.cxx#4 $)

>  <Rbt.Library>
libRbt.so (2013.1, Build901 2013/11/27)

>  <Rbt.Parameter_File>
/export/apps/rDock/src/rDock_2013.1_src/data/scripts/dock_solv.prm

>  <Rbt.Receptor>
prm/blind_docking_40.prm

>  <SCORE>
-35.0686

>  <SCORE.INTER>
-40.7128

>  <SCORE.INTER.CONST>
1

>  <SCORE.INTER.POLAR>
-5.67264

>  <SCORE.INTER.ROT>
14

>  <SCORE.INTER.SOLV>
17.695

>  <SCORE.INTER.VDW>
-27.0647

>  <SCORE.INTER.norm>
-0.969352

>  <SCORE.INTRA>
2.2073

>  <SCORE.INTRA.DIHEDRAL>
-15.124

>  <SCORE.INTRA.DIHEDRAL.0>
48.7173

>  <SCORE.INTRA.POLAR>
1.41919

>  <SCORE.INTRA.POLAR.0>
-1.54691

>  <SCORE.INTRA.REPUL>
0.260289

>  <SCORE.INTRA.REPUL.0>
0

>  <SCORE.INTRA.SOLV>
-1.09311

>  <SCORE.INTRA.SOLV.lig_0>
-64.052

>  <SCORE.INTRA.VDW>
4.1892

>  <SCORE.INTRA.VDW.0>
-7.0667

>  <SCORE.INTRA.norm>
0.0525547

>  <SCORE.RESTR>
3.43685

>  <SCORE.RESTR.CAVITY>
3.43685

>  <SCORE.RESTR.norm>
0.0818298

>  <SCORE.SYSTEM>
0

>  <SCORE.SYSTEM.CONST>
0

>  <SCORE.SYSTEM.DIHEDRAL>
0

>  <SCORE.SYSTEM.SOLV>
0

>  <SCORE.SYSTEM.norm>
0

>  <SCORE.heavy>
42

>  <SCORE.norm>
-0.834967

>  <RMSD>
9.174

$$$$
1fyp_lig
 OpenBabel11021811393D
libRbt.so/2013.1/901 2013/11/27
 42 45  0  0  0  0  0  0  0  0999 V2000
    3.9816    3.4540   26.0449 C   0  0  2  0  0  0  0  0  0  0  0  0
    2.9523    4.4823   26.1202 O   0  0  0  0  0  0  0  0  0  0  0  0
    2.7199    8.1325   23.9151 C   0  0  2  0  0  0  0  0  0  0  0  0
    2.8258    9.5160   23.4157 N   0  0  0  0  0  0  0  0  0  0  0  0
    6.2149    5.9631   25.5904 C   0  0  1  0  0  0  0  0  0  0  0  0
    9.4860    7.6789   27.8713 C   0  0  1  0  0  0  0  0  0  0  0  0
    3.3606    2.0201   26.0634 C   0  0  2  0  0  0  0  0  0  0  0  0
    2.2864    1.8879   25.0562 N   0  0  0  0  0  0  0  0  0  0  0  0
    2.1589    8.1471   25.3510 C   0  0  0  0  0  0  0  0  0  0  0  0
    7.6537    5.5147   25.3210 C   0  0  2  0  0  0  0  0  0  0  0  0
    7.9358    4.3365   26.0771 O   0  0  0  0  0  0  0  0  0  0  0  0
   10.9546    7.5784   27.3572 C   0  0  2  0  0  0  0  0  0  0  0  0
   11.4799    6.1917   27.3955 N   0  0  0  0  0  0  0  0  0  0  0  0
    2.8176    1.6675   27.4836 C   0  0  1  0  0  0  0  0  0  0  0  0
    2.4006    0.3052   27.5263 O   0  0  0  0  0  0  0  0  0  0  0  0
    1.9945    6.7162   25.9324 C   0  0  2  0  0  0  0  0  0  0  0  0
    1.5315    6.8471   27.3296 N   0  0  0  0  0  0  0  0  0  0  0  0
    8.4570    6.7119   25.8366 C   0  0  2  0  0  0  0  0  0  0  0  0
    8.6465    6.6543   27.2779 O   0  0  0  0  0  0  0  0  0  0  0  0
   11.8844    8.5590   28.1363 C   0  0  1  0  0  0  0  0  0  0  0  0
   11.6067    9.8886   27.7021 O   0  0  0  0  0  0  0  0  0  0  0  0
    3.8881    1.8897   28.5813 C   0  0  2  0  0  0  0  0  0  0  0  0
    3.3048    1.6414   29.8567 O   0  0  0  0  0  0  0  0  0  0  0  0
    3.3124    5.8659   25.8418 C   0  0  2  0  0  0  0  0  0  0  0  0
    7.5529    7.8933   25.4579 C   0  0  2  0  0  0  0  0  0  0  0  0
    6.2019    7.3986   25.5357 O   0  0  0  0  0  0  0  0  0  0  0  0
   11.7112    8.5053   29.6846 C   0  0  2  0  0  0  0  0  0  0  0  0
   12.2979    7.2949   30.1655 O   0  0  0  0  0  0  0  0  0  0  0  0
    4.4452    3.3397   28.5071 C   0  0  2  0  0  0  0  0  0  0  0  0
    4.9304    3.5970   27.1550 O   0  0  0  0  0  0  0  0  0  0  0  0
    3.9992    5.9507   24.4307 C   0  0  2  0  0  0  0  0  0  0  0  0
    5.3469    5.4258   24.5523 O   0  0  0  0  0  0  0  0  0  0  0  0
    7.8354    8.4409   24.0476 C   0  0  0  0  0  0  0  0  0  0  0  0
    6.7647    9.2522   23.5970 O   0  0  0  0  0  0  0  0  0  0  0  0
   10.2019    8.5650   30.0756 C   0  0  1  0  0  0  0  0  0  0  0  0
    9.4624    7.5478   29.3334 O   0  0  0  0  0  0  0  0  0  0  0  0
    5.6236    3.6315   29.4628 C   0  0  0  0  0  0  0  0  0  0  0  0
    5.1918    3.6830   30.8120 O   0  0  0  0  0  0  0  0  0  0  0  0
    4.0878    7.4092   23.8835 C   0  0  1  0  0  0  0  0  0  0  0  0
    4.5641    7.3672   22.5392 O   0  0  0  0  0  0  0  0  0  0  0  0
    9.9685    8.3531   31.5934 C   0  0  0  0  0  0  0  0  0  0  0  0
    8.5472    8.4703   31.9664 N   0  0  0  0  0  0  0  0  0  0  0  0
  1  2  1  1  0  0  0
  1  7  1  0  0  0  0
  1 30  1  0  0  0  0
  3  4  1  1  0  0  0
  3  9  1  0  0  0  0
  3 39  1  0  0  0  0
  5 10  1  0  0  0  0
  5 26  1  0  0  0  0
  5 32  1  6  0  0  0
  6 12  1  0  0  0  0
  6 36  1  0  0  0  0
  6 19  1  6  0  0  0
  7  8  1  6  0  0  0
  7 14  1  0  0  0  0
  9 16  1  0  0  0  0
 10 11  1  1  0  0  0
 10 18  1  0  0  0  0
 12 13  1  1  0  0  0
 12 20  1  0  0  0  0
 14 15  1  6  0  0  0
 14 22  1  0  0  0  0
 16 17  1  1  0  0  0
 16 24  1  0  0  0  0
 18 19  1  1  0  0  0
 18 25  1  0  0  0  0
 20 21  1  6  0  0  0
 20 27  1  0  0  0  0
 22 23  1  1  0  0  0
 22 29  1  0  0  0  0
 24  2  1  6  0  0  0
 24 31  1  0  0  0  0
 25 26  1  0  0  0  0
 25 33  1  6  0  0  0
 27 28  1  6  0  0  0
 27 35  1  0  0  0  0
 29 30  1  0  0  0  0
 29 37  1  1  0  0  0
 31 32  1  1  0  0  0
 31 39  1  0  0  0  0
 33 34  1  0  0  0  0
 35 36  1  0  0  0  0
 35 41  1  1  0  0  0
 37 38  1  0  0  0  0
 39 40  1  6  0  0  0
 41 42  1  0  0  0  0
M  END
>  <CHROM.1>
-167.55098873,177.29194987,-69.80874871,145.33854273,-73.43798144,56.97129429
49.28471266,-67.59151353,175.16959247,-63.82063384,57.31570995,-59.84556586
163.56708181,-43.95980344,-71.15015782,-52.37448792,-166.72902768,49.15532694
177.44433850,-172.49338437,58.50201663,72.11470651,6.25276015,6.03115392
26.92359300,-3.01441973,-0.54664120,-0.78377109

>  <Name>
1fyp_lig

>  <RI>
0

>  <Rbt.Current_Directory>
/home/itssahil/PROJECTS/Mol_Feturizer/New_Systems/rnas/1fyp

>  <Rbt.Executable>
rbdock ($Id: //depot/dev/client3/rdock/2013.1/src/exe/rbdock.cxx#4 $)

>  <Rbt.Library>
libRbt.so (2013.1, Build901 2013/11/27)

>  <Rbt.Parameter_File>
/export/apps/rDock/src/rDock_2013.1_src/data/scripts/dock_solv.prm

>  <Rbt.Receptor>
prm/pocket_docking_4.prm

>  <SCORE>
-55.1113

>  <SCORE.INTER>
-41.0496

>  <SCORE.INTER.CONST>
1

>  <SCORE.INTER.POLAR>
-4.57201

>  <SCORE.INTER.ROT>
14

>  <SCORE.INTER.SOLV>
17.5431

>  <SCORE.INTER.VDW>
-30.9074

>  <SCORE.INTER.norm>
-0.977372

>  <SCORE.INTRA>
-14.4642

>  <SCORE.INTRA.DIHEDRAL>
-38.8352

>  <SCORE.INTRA.DIHEDRAL.0>
48.7173

>  <SCORE.INTRA.POLAR>
0.50313

>  <SCORE.INTRA.POLAR.0>
-1.54691

>  <SCORE.INTRA.REPUL>
0

>  <SCORE.INTRA.REPUL.0>
0

>  <SCORE.INTRA.SOLV>
-1.49272

>  <SCORE.INTRA.SOLV.lig_0>
-64.052

>  <SCORE.INTRA.VDW>
3.98911

>  <SCORE.INTRA.VDW.0>
-7.0667

>  <SCORE.INTRA.norm>
-0.344386

>  <SCORE.RESTR>
0.402546

>  <SCORE.RESTR.CAVITY>
0.402546

>  <SCORE.RESTR.norm>
0.00958443

>  <SCORE.SYSTEM>
0

>  <SCORE.SYSTEM.CONST>
0

>  <SCORE.SYSTEM.DIHEDRAL>
0

>  <SCORE.SYSTEM.SOLV>
0

>  <SCORE.SYSTEM.norm>
0

>  <SCORE.heavy>
42

>  <SCORE.norm>
-1.31217

>  <RMSD>
9.194

$$$$
1fyp_lig
 OpenBabel11021811393D
libRbt.so/2013.1/901 2013/11/27
 42 45  0  0  0  0  0  0  0  0999 V2000
    5.0906    3.7076   25.6376 C   0  0  2  0  0  0  0  0  0  0  0  0
    4.6140    3.7678   27.0129 O   0  0  0  0  0  0  0  0  0  0  0  0
    0.7936    2.3375   28.2775 C   0  0  2  0  0  0  0  0  0  0  0  0
   -0.3717    1.5363   28.6953 N   0  0  0  0  0  0  0  0  0  0  0  0
    5.4763    3.6317   29.7255 C   0  0  1  0  0  0  0  0  0  0  0  0
    8.6445    6.7254   30.0313 C   0  0  1  0  0  0  0  0  0  0  0  0
    6.6076    4.0700   25.5410 C   0  0  2  0  0  0  0  0  0  0  0  0
    7.4090    3.2838   26.5029 N   0  0  0  0  0  0  0  0  0  0  0  0
    1.3324    1.7987   26.9372 C   0  0  0  0  0  0  0  0  0  0  0  0
    5.2307    5.1165   30.0064 C   0  0  2  0  0  0  0  0  0  0  0  0
    5.0033    5.8037   28.7753 O   0  0  0  0  0  0  0  0  0  0  0  0
    8.1701    8.2102   30.0685 C   0  0  2  0  0  0  0  0  0  0  0  0
    7.4054    8.5963   28.8575 N   0  0  0  0  0  0  0  0  0  0  0  0
    6.8303    5.5975   25.7718 C   0  0  1  0  0  0  0  0  0  0  0  0
    8.1919    5.9387   25.5245 O   0  0  0  0  0  0  0  0  0  0  0  0
    2.5485    2.6159   26.4215 C   0  0  2  0  0  0  0  0  0  0  0  0
    3.0334    1.9711   25.1835 N   0  0  0  0  0  0  0  0  0  0  0  0
    6.5579    5.5391   30.6422 C   0  0  2  0  0  0  0  0  0  0  0  0
    7.5675    5.8356   29.6375 O   0  0  0  0  0  0  0  0  0  0  0  0
    9.3740    9.1722   30.3099 C   0  0  1  0  0  0  0  0  0  0  0  0
    9.7827    9.0545   31.6710 O   0  0  0  0  0  0  0  0  0  0  0  0
    5.9314    6.4569   24.8478 C   0  0  2  0  0  0  0  0  0  0  0  0
    6.1125    7.8322   25.1711 O   0  0  0  0  0  0  0  0  0  0  0  0
    3.6943    2.7436   27.4888 C   0  0  2  0  0  0  0  0  0  0  0  0
    6.9443    4.2875   31.4426 C   0  0  2  0  0  0  0  0  0  0  0  0
    6.4221    3.1673   30.7021 O   0  0  0  0  0  0  0  0  0  0  0  0
   10.6092    8.8858   29.4032 C   0  0  2  0  0  0  0  0  0  0  0  0
   10.3082    9.3185   28.0755 O   0  0  0  0  0  0  0  0  0  0  0  0
    4.4401    6.0478   25.0122 C   0  0  2  0  0  0  0  0  0  0  0  0
    4.3103    4.6120   24.7853 O   0  0  0  0  0  0  0  0  0  0  0  0
    3.1621    3.1434   28.9126 C   0  0  2  0  0  0  0  0  0  0  0  0
    4.2230    2.9057   29.8741 O   0  0  0  0  0  0  0  0  0  0  0  0
    6.3762    4.2873   32.8730 C   0  0  0  0  0  0  0  0  0  0  0  0
    4.9645    4.4068   32.8557 O   0  0  0  0  0  0  0  0  0  0  0  0
   10.9593    7.3654   29.4081 C   0  0  1  0  0  0  0  0  0  0  0  0
    9.7651    6.5861   29.0932 O   0  0  0  0  0  0  0  0  0  0  0  0
    3.4659    6.7400   24.0330 C   0  0  0  0  0  0  0  0  0  0  0  0
    2.1422    6.2604   24.1984 O   0  0  0  0  0  0  0  0  0  0  0  0
    1.9109    2.3193   29.3482 C   0  0  1  0  0  0  0  0  0  0  0  0
    1.4024    2.8650   30.5646 O   0  0  0  0  0  0  0  0  0  0  0  0
   12.0785    7.0062   28.3974 C   0  0  0  0  0  0  0  0  0  0  0  0
   11.6580    7.2022   26.9982 N   0  0  0  0  0  0  0  0  0  0  0  0
  1  2  1  1  0  0  0
  1  7  1  0  0  0  0
  1 30  1  0  0  0  0
  3  4  1  1  0  0  0
  3  9  1  0  0  0  0
  3 39  1  0  0  0  0
  5 10  1  0  0  0  0
  5 26  1  0  0  0  0
  5 32  1  1  0  0  0
  6 12  1  0  0  0  0
  6 36  1  0  0  0  0
  6 19  1  6  0  0  0
  7  8  1  1  0  0  0
  7 14  1  0  0  0  0
  9 16  1  0  0  0  0
 10 11  1  6  0  0  0
 10 18  1  0  0  0  0
 12 13  1  6  0  0  0
 12 20  1  0  0  0  0
 14 15  1  6  0  0  0
 14 22  1  0  0  0  0
 16 17  1  6  0  0  0
 16 24  1  0  0  0  0
 18 19  1  6  0  0  0
 18 25  1  0  0  0  0
 20 21  1  1  0  0  0
 20 27  1  0  0  0  0
 22 23  1  1  0  0  0
 22 29  1  0  0  0  0
 24  2  1  6  0  0  0
 24 31  1  0  0  0  0
 25 26  1  0  0  0  0
 25 33  1  1  0  0  0
 27 28  1  6  0  0  0
 27 35  1  0  0  0  0
 29 30  1  0  0  0  0
 29 37  1  6  0  0  0
 31 32  1  1  0  0  0
 31 39  1  0  0  0  0
 33 34  1  0  0  0  0
 35 36  1  0  0  0  0
 35 41  1  6  0  0  0
 37 38  1  0  0  0  0
 39 40  1  1  0  0  0
 41 42  1  0  0  0  0
M  END
>  <CHROM.1>
-139.48713550,-48.80575630,62.87217863,58.07389276,167.56832250,93.81524823
-174.24125333,148.91619651,156.11192205,-76.17516233,-58.95807227,-57.65458553
57.20954266,43.93416599,176.79907204,60.83619702,67.94259047,175.02941600
-66.20603251,-53.87378889,178.43507634,46.80216481,5.95762548,5.23478233
28.20539637,-3.07058733,0.60030529,1.77044754

>  <Name>
1fyp_lig

>  <RI>
0

>  <Rbt.Current_Directory>
/home/itssahil/PROJECTS/Mol_Feturizer/New_Systems/rnas/1fyp

>  <Rbt.Executable>
rbdock ($Id: //depot/dev/client3/rdock/2013.1/src/exe/rbdock.cxx#4 $)

>  <Rbt.Library>
libRbt.so (2013.1, Build901 2013/11/27)

>  <Rbt.Parameter_File>
/export/apps/rDock/src/rDock_2013.1_src/data/scripts/dock_solv.prm

>  <Rbt.Receptor>
prm/pocket_docking_4.prm

>  <SCORE>
-50.526

>  <SCORE.INTER>
-42.6217

>  <SCORE.INTER.CONST>
1

>  <SCORE.INTER.POLAR>
-6.25284

>  <SCORE.INTER.ROT>
14

>  <SCORE.INTER.SOLV>
15.8856

>  <SCORE.INTER.VDW>
-25.8002

>  <SCORE.INTER.norm>
-1.0148

>  <SCORE.INTRA>
-7.90428

>  <SCORE.INTRA.DIHEDRAL>
-32.5882

>  <SCORE.INTRA.DIHEDRAL.0>
48.7173

>  <SCORE.INTRA.POLAR>
0.0403297

>  <SCORE.INTRA.POLAR.0>
-1.54691

>  <SCORE.INTRA.REPUL>
0.915512

>  <SCORE.INTRA.REPUL.0>
0

>  <SCORE.INTRA.SOLV>
0.855284

>  <SCORE.INTRA.SOLV.lig_0>
-64.052

>  <SCORE.INTRA.VDW>
3.24752

>  <SCORE.INTRA.VDW.0>
-7.0667

>  <SCORE.INTRA.norm>
-0.188197

>  <SCORE.RESTR>
0

>  <SCORE.RESTR.CAVITY>
0

>  <SCORE.RESTR.norm>
0

>  <SCORE.SYSTEM>
0

>  <SCORE.SYSTEM.CONST>
0

>  <SCORE.SYSTEM.DIHEDRAL>
0

>  <SCORE.SYSTEM.SOLV>
0

>  <SCORE.SYSTEM.norm>
0

>  <SCORE.heavy>
42

>  <SCORE.norm>
-1.203

>  <RMSD>
9.227

$$$$
1fyp_lig
 OpenBabel11021811393D
libRbt.so/2013.1/901 2013/11/27
 42 45  0  0  0  0  0  0  0  0999 V2000
    2.0625    4.3885   27.5349 C   0  0  2  0  0  0  0  0  0  0  0  0
    3.3606    4.8062   27.0222 O   0  0  0  0  0  0  0  0  0  0  0  0
    2.2198    7.4510   23.8687 C   0  0  2  0  0  0  0  0  0  0  0  0
    2.0304    8.5857   22.9462 N   0  0  0  0  0  0  0  0  0  0  0  0
    6.1107    5.8085   25.9161 C   0  0  1  0  0  0  0  0  0  0  0  0
    9.4398    7.0904   28.4968 C   0  0  1  0  0  0  0  0  0  0  0  0
    2.1798    3.7980   28.9770 C   0  0  2  0  0  0  0  0  0  0  0  0
    2.9281    4.7082   29.8699 N   0  0  0  0  0  0  0  0  0  0  0  0
    1.8999    7.9014   25.3081 C   0  0  0  0  0  0  0  0  0  0  0  0
    7.5512    5.3334   25.7084 C   0  0  2  0  0  0  0  0  0  0  0  0
    7.7485    4.0951   26.3919 O   0  0  0  0  0  0  0  0  0  0  0  0
   10.1712    6.2560   29.5923 C   0  0  2  0  0  0  0  0  0  0  0  0
    9.2332    5.4866   30.4458 N   0  0  0  0  0  0  0  0  0  0  0  0
    2.8550    2.3911   28.9487 C   0  0  1  0  0  0  0  0  0  0  0  0
    2.8114    1.7986   30.2444 O   0  0  0  0  0  0  0  0  0  0  0  0
    2.0527    6.7449   26.3335 C   0  0  2  0  0  0  0  0  0  0  0  0
    1.8043    7.2999   27.6803 N   0  0  0  0  0  0  0  0  0  0  0  0
    8.3514    6.4632   26.3624 C   0  0  2  0  0  0  0  0  0  0  0  0
    8.4417    6.2957   27.8048 O   0  0  0  0  0  0  0  0  0  0  0  0
   11.1051    7.1635   30.4509 C   0  0  1  0  0  0  0  0  0  0  0  0
   12.2437    7.5131   29.6667 O   0  0  0  0  0  0  0  0  0  0  0  0
    2.1572    1.4371   27.9470 C   0  0  2  0  0  0  0  0  0  0  0  0
    2.8740    0.2073   27.8997 O   0  0  0  0  0  0  0  0  0  0  0  0
    3.4542    6.0395   26.2530 C   0  0  2  0  0  0  0  0  0  0  0  0
    7.5085    7.6979   26.0142 C   0  0  2  0  0  0  0  0  0  0  0  0
    6.1419    7.2438   25.9670 O   0  0  0  0  0  0  0  0  0  0  0  0
   10.4327    8.4790   30.9480 C   0  0  2  0  0  0  0  0  0  0  0  0
    9.5090    8.1523   31.9876 O   0  0  0  0  0  0  0  0  0  0  0  0
    2.0930    2.0880   26.5362 C   0  0  2  0  0  0  0  0  0  0  0  0
    1.4543    3.3960   26.6416 O   0  0  0  0  0  0  0  0  0  0  0  0
    3.8854    5.7021   24.7798 C   0  0  2  0  0  0  0  0  0  0  0  0
    5.2997    5.3764   24.7868 O   0  0  0  0  0  0  0  0  0  0  0  0
    7.9006    8.3361   24.6697 C   0  0  0  0  0  0  0  0  0  0  0  0
    9.3085    8.4460   24.5543 O   0  0  0  0  0  0  0  0  0  0  0  0
    9.6941    9.2001   29.7780 C   0  0  1  0  0  0  0  0  0  0  0  0
    8.7983    8.2599   29.1101 O   0  0  0  0  0  0  0  0  0  0  0  0
    1.2892    1.2866   25.4880 C   0  0  0  0  0  0  0  0  0  0  0  0
    0.8415    2.1217   24.4337 O   0  0  0  0  0  0  0  0  0  0  0  0
    3.6599    6.8892   23.7926 C   0  0  1  0  0  0  0  0  0  0  0  0
    3.9160    6.4365   22.4640 O   0  0  0  0  0  0  0  0  0  0  0  0
    8.8755   10.4276   30.2537 C   0  0  0  0  0  0  0  0  0  0  0  0
    7.7772   10.0539   31.1631 N   0  0  0  0  0  0  0  0  0  0  0  0
  1  2  1  6  0  0  0
  1  7  1  0  0  0  0
  1 30  1  0  0  0  0
  3  4  1  6  0  0  0
  3  9  1  0  0  0  0
  3 39  1  0  0  0  0
  5 10  1  0  0  0  0
  5 26  1  0  0  0  0
  5 32  1  6  0  0  0
  6 12  1  0  0  0  0
  6 36  1  0  0  0  0
  6 19  1  1  0  0  0
  7  8  1  1  0  0  0
  7 14  1  0  0  0  0
  9 16  1  0  0  0  0
 10 11  1  1  0  0  0
 10 18  1  0  0  0  0
 12 13  1  1  0  0  0
 12 20  1  0  0  0  0
 14 15  1  1  0  0  0
 14 22  1  0  0  0  0
 16 17  1  1  0  0  0
 16 24  1  0  0  0  0
 18 19  1  1  0  0  0
 18 25  1  0  0  0  0
 20 21  1  6  0  0  0
 20 27  1  0  0  0  0
 22 23  1  6  0  0  0
 22 29  1  0  0  0  0
 24  2  1  1  0  0  0
 24 31  1  0  0  0  0
 25 26  1  0  0  0  0
 25 33  1  6  0  0  0
 27 28  1  1  0  0  0
 27 35  1  0  0  0  0
 29 30  1  0  0  0  0
 29 37  1  6  0  0  0
 31 32  1  1  0  0  0
 31 39  1  0  0  0  0
 33 34  1  0  0  0  0
 35 36  1  0  0  0  0
 35 41  1  1  0  0  0
 37 38  1  0  0  0  0
 39 40  1  6  0  0  0
 41 42  1  0  0  0  0
M  END
>  <CHROM.1>
-140.16169591,7.43357310,139.75554993,-159.82725799,65.58192577,68.59300585
-155.22786632,-57.80376371,164.79967995,-138.53821167,69.31408495,65.05640637
-45.32220354,-38.11323354,157.61691977,-19.24237827,179.14596023,-69.15238363
-63.94319125,-40.00971611,-45.82599561,-80.59535170,5.56434164,5.90170612
27.27145846,-3.13718583,-0.60854422,-0.90306493

>  <Name>
1fyp_lig

>  <RI>
0

>  <Rbt.Current_Directory>
/home/itssahil/PROJECTS/Mol_Feturizer/New_Systems/rnas/1fyp

>  <Rbt.Executable>
rbdock ($Id: //depot/dev/client3/rdock/2013.1/src/exe/rbdock.cxx#4 $)

>  <Rbt.Library>
libRbt.so (2013.1, Build901 2013/11/27)

>  <Rbt.Parameter_File>
/export/apps/rDock/src/rDock_2013.1_src/data/scripts/dock_solv.prm

>  <Rbt.Receptor>
prm/pocket_docking_4.prm

>  <SCORE>
-45.4845

>  <SCORE.INTER>
-49.089

>  <SCORE.INTER.CONST>
1

>  <SCORE.INTER.POLAR>
-6.33745

>  <SCORE.INTER.ROT>
14

>  <SCORE.INTER.SOLV>
21.2848

>  <SCORE.INTER.VDW>
-31.6295

>  <SCORE.INTER.norm>
-1.16879

>  <SCORE.INTRA>
3.37286

>  <SCORE.INTRA.DIHEDRAL>
-9.6833

>  <SCORE.INTRA.DIHEDRAL.0>
48.7173

>  <SCORE.INTRA.POLAR>
0.388849

>  <SCORE.INTRA.POLAR.0>
-1.54691

>  <SCORE.INTRA.REPUL>
0

>  <SCORE.INTRA.REPUL.0>
0

>  <SCORE.INTRA.SOLV>
-2.57427

>  <SCORE.INTRA.SOLV.lig_0>
-64.052

>  <SCORE.INTRA.VDW>
8.17956

>  <SCORE.INTRA.VDW.0>
-7.0667

>  <SCORE.INTRA.norm>
0.0803063

>  <SCORE.RESTR>
0.231661

>  <SCORE.RESTR.CAVITY>
0.231661

>  <SCORE.RESTR.norm>
0.00551574

>  <SCORE.SYSTEM>
0

>  <SCORE.SYSTEM.CONST>
0

>  <SCORE.SYSTEM.DIHEDRAL>
0

>  <SCORE.SYSTEM.SOLV>
0

>  <SCORE.SYSTEM.norm>
0

>  <SCORE.heavy>
42

>  <SCORE.norm>
-1.08296

>  <RMSD>
9.229

$$$$
1fyp_lig
 OpenBabel11021811393D
libRbt.so/2013.1/901 2013/11/27
 42 45  0  0  0  0  0  0  0  0999 V2000
   -0.1091    3.9735   27.6656 C   0  0  2  0  0  0  0  0  0  0  0  0
    1.1206    4.2654   28.3902 O   0  0  0  0  0  0  0  0  0  0  0  0
    3.1183    5.7946   24.9389 C   0  0  2  0  0  0  0  0  0  0  0  0
    3.9987    6.4885   23.9809 N   0  0  0  0  0  0  0  0  0  0  0  0
    4.5840    3.7894   28.6872 C   0  0  1  0  0  0  0  0  0  0  0  0
    7.4118    5.9552   31.0822 C   0  0  1  0  0  0  0  0  0  0  0  0
   -1.0860    3.1054   28.5224 C   0  0  2  0  0  0  0  0  0  0  0  0
   -1.2891    3.6926   29.8640 N   0  0  0  0  0  0  0  0  0  0  0  0
    2.4853    6.8262   25.8939 C   0  0  0  0  0  0  0  0  0  0  0  0
    6.0756    3.5529   28.4365 C   0  0  2  0  0  0  0  0  0  0  0  0
    6.5080    2.4092   29.1743 O   0  0  0  0  0  0  0  0  0  0  0  0
    8.9299    6.1253   30.7696 C   0  0  2  0  0  0  0  0  0  0  0  0
    9.6937    4.8656   30.9427 N   0  0  0  0  0  0  0  0  0  0  0  0
   -0.5644    1.6396   28.6462 C   0  0  1  0  0  0  0  0  0  0  0  0
   -1.5388    0.8238   29.2919 O   0  0  0  0  0  0  0  0  0  0  0  0
    1.5209    6.1660   26.9168 C   0  0  2  0  0  0  0  0  0  0  0  0
    1.0364    7.2235   27.8281 N   0  0  0  0  0  0  0  0  0  0  0  0
    6.6946    4.8389   28.9910 C   0  0  2  0  0  0  0  0  0  0  0  0
    6.8670    4.7762   30.4342 O   0  0  0  0  0  0  0  0  0  0  0  0
    9.5451    7.2825   31.6155 C   0  0  1  0  0  0  0  0  0  0  0  0
    9.0872    8.5246   31.0854 O   0  0  0  0  0  0  0  0  0  0  0  0
   -0.2450    1.0227   27.2614 C   0  0  2  0  0  0  0  0  0  0  0  0
    0.3120   -0.2749   27.4477 O   0  0  0  0  0  0  0  0  0  0  0  0
    2.1885    4.9859   27.7106 C   0  0  2  0  0  0  0  0  0  0  0  0
    5.6399    5.8903   28.6186 C   0  0  2  0  0  0  0  0  0  0  0  0
    4.3706    5.2098   28.6608 O   0  0  0  0  0  0  0  0  0  0  0  0
    9.1741    7.2315   33.1287 C   0  0  2  0  0  0  0  0  0  0  0  0
    9.9041    6.1663   33.7396 O   0  0  0  0  0  0  0  0  0  0  0  0
    0.7416    1.9346   26.4783 C   0  0  2  0  0  0  0  0  0  0  0  0
    0.1904    3.2840   26.4055 O   0  0  0  0  0  0  0  0  0  0  0  0
    2.9768    3.9929   26.7820 C   0  0  2  0  0  0  0  0  0  0  0  0
    3.8167    3.1593   27.6223 O   0  0  0  0  0  0  0  0  0  0  0  0
    5.8654    6.5034   27.2251 C   0  0  0  0  0  0  0  0  0  0  0  0
    4.9583    7.5658   26.9879 O   0  0  0  0  0  0  0  0  0  0  0  0
    7.6409    7.0109   33.3160 C   0  0  1  0  0  0  0  0  0  0  0  0
    7.2125    5.8549   32.5333 O   0  0  0  0  0  0  0  0  0  0  0  0
    1.0197    1.4916   25.0246 C   0  0  0  0  0  0  0  0  0  0  0  0
   -0.1823    1.1697   24.3455 O   0  0  0  0  0  0  0  0  0  0  0  0
    3.8881    4.7217   25.7461 C   0  0  1  0  0  0  0  0  0  0  0  0
    4.4245    3.7538   24.8454 O   0  0  0  0  0  0  0  0  0  0  0  0
    7.2450    6.7924   34.7988 C   0  0  0  0  0  0  0  0  0  0  0  0
    5.9573    6.0888   34.9400 N   0  0  0  0  0  0  0  0  0  0  0  0
  1  2  1  1  0  0  0
  1  7  1  0  0  0  0
  1 30  1  0  0  0  0
  3  4  1  6  0  0  0
  3  9  1  0  0  0  0
  3 39  1  0  0  0  0
  5 10  1  0  0  0  0
  5 26  1  0  0  0  0
  5 32  1  6  0  0  0
  6 12  1  0  0  0  0
  6 36  1  0  0  0  0
  6 19  1  6  0  0  0
  7  8  1  1  0  0  0
  7 14  1  0  0  0  0
  9 16  1  0  0  0  0
 10 11  1  1  0  0  0
 10 18  1  0  0  0  0
 12 13  1  1  0  0  0
 12 20  1  0  0  0  0
 14 15  1  6  0  0  0
 14 22  1  0  0  0  0
 16 17  1  1  0  0  0
 16 24  1  0  0  0  0
 18 19  1  1  0  0  0
 18 25  1  0  0  0  0
 20 21  1  6  0  0  0
 20 27  1  0  0  0  0
 22 23  1  1  0  0  0
 22 29  1  0  0  0  0
 24  2  1  6  0  0  0
 24 31  1  0  0  0  0
 25 26  1  0  0  0  0
 25 33  1  6  0  0  0
 27 28  1  1  0  0  0
 27 35  1  0  0  0  0
 29 30  1  0  0  0  0
 29 37  1  6  0  0  0
 31 32  1  1  0  0  0
 31 39  1  0  0  0  0
 33 34  1  0  0  0  0
 35 36  1  0  0  0  0
 35 41  1  1  0  0  0
 37 38  1  0  0  0  0
 39 40  1  6  0  0  0
 41 42  1  0  0  0  0
M  END
>  <CHROM.1>
175.71758606,43.73904735,164.82869555,-44.10853704,-67.61457368,50.24952716
-168.47290608,63.91845745,-178.30299443,-72.25403539,58.05665773,52.32924703
-173.63512402,171.37712062,46.47150316,-44.90163230,-118.91280133,51.20284289
-157.89740681,59.54932298,169.46332708,44.73123522,4.06913280,4.63578752
28.73973123,2.70968270,-0.55606836,-1.33170276

>  <Name>
1fyp_lig

>  <RI>
0

>  <Rbt.Current_Directory>
/home/itssahil/PROJECTS/Mol_Feturizer/New_Systems/rnas/1fyp

>  <Rbt.Executable>
rbdock ($Id: //depot/dev/client3/rdock/2013.1/src/exe/rbdock.cxx#4 $)

>  <Rbt.Library>
libRbt.so (2013.1, Build901 2013/11/27)

>  <Rbt.Parameter_File>
/export/apps/rDock/src/rDock_2013.1_src/data/scripts/dock_solv.prm

>  <Rbt.Receptor>
prm/pocket_docking_5.prm

>  <SCORE>
-40.9311

>  <SCORE.INTER>
-38.0236

>  <SCORE.INTER.CONST>
1

>  <SCORE.INTER.POLAR>
-6.24513

>  <SCORE.INTER.ROT>
14

>  <SCORE.INTER.SOLV>
15.0976

>  <SCORE.INTER.VDW>
-22.4978

>  <SCORE.INTER.norm>
-0.905324

>  <SCORE.INTRA>
-3.20894

>  <SCORE.INTRA.DIHEDRAL>
-31.717

>  <SCORE.INTRA.DIHEDRAL.0>
48.7173

>  <SCORE.INTRA.POLAR>
1.19453

>  <SCORE.INTRA.POLAR.0>
-1.54691

>  <SCORE.INTRA.REPUL>
0.109818

>  <SCORE.INTRA.REPUL.0>
0

>  <SCORE.INTRA.SOLV>
-0.634082

>  <SCORE.INTRA.SOLV.lig_0>
-64.052

>  <SCORE.INTRA.VDW>
8.35611

>  <SCORE.INTRA.VDW.0>
-7.0667

>  <SCORE.INTRA.norm>
-0.0764034

>  <SCORE.RESTR>
0.301446

>  <SCORE.RESTR.CAVITY>
0.301446

>  <SCORE.RESTR.norm>
0.00717728

>  <SCORE.SYSTEM>
0

>  <SCORE.SYSTEM.CONST>
0

>  <SCORE.SYSTEM.DIHEDRAL>
0

>  <SCORE.SYSTEM.SOLV>
0

>  <SCORE.SYSTEM.norm>
0

>  <SCORE.heavy>
42

>  <SCORE.norm>
-0.97455

>  <RMSD>
9.235

$$$$
1fyp_lig
 OpenBabel11021811393D
libRbt.so/2013.1/901 2013/11/27
 42 45  0  0  0  0  0  0  0  0999 V2000
    2.2902    1.3422   26.9505 C   0  0  2  0  0  0  0  0  0  0  0  0
    2.6277    2.7042   27.3421 O   0  0  0  0  0  0  0  0  0  0  0  0
    3.8418    4.9107   30.7915 C   0  0  2  0  0  0  0  0  0  0  0  0
    4.4332    5.3839   32.0567 N   0  0  0  0  0  0  0  0  0  0  0  0
    5.6552    4.7272   26.3109 C   0  0  1  0  0  0  0  0  0  0  0  0
    4.5606    7.8336   24.1131 C   0  0  1  0  0  0  0  0  0  0  0  0
    2.0247    1.2375   25.4141 C   0  0  2  0  0  0  0  0  0  0  0  0
    3.1263    1.8441   24.6369 N   0  0  0  0  0  0  0  0  0  0  0  0
    3.0986    3.5826   31.0378 C   0  0  0  0  0  0  0  0  0  0  0  0
    5.1218    6.1306   26.6104 C   0  0  2  0  0  0  0  0  0  0  0  0
    3.8036    6.2638   26.0775 O   0  0  0  0  0  0  0  0  0  0  0  0
    4.1518    7.6016   22.6264 C   0  0  2  0  0  0  0  0  0  0  0  0
    5.2881    7.7711   21.6881 N   0  0  0  0  0  0  0  0  0  0  0  0
    0.6650    1.9051   25.0379 C   0  0  1  0  0  0  0  0  0  0  0  0
    0.3614    1.6636   23.6664 O   0  0  0  0  0  0  0  0  0  0  0  0
    2.4253    3.0379   29.7485 C   0  0  2  0  0  0  0  0  0  0  0  0
    1.8151    1.7322   30.0749 N   0  0  0  0  0  0  0  0  0  0  0  0
    6.1190    7.0129   25.8543 C   0  0  2  0  0  0  0  0  0  0  0  0
    5.7816    7.1218   24.4433 O   0  0  0  0  0  0  0  0  0  0  0  0
    2.9495    8.5136   22.2319 C   0  0  1  0  0  0  0  0  0  0  0  0
    1.7705    8.0022   22.8500 O   0  0  0  0  0  0  0  0  0  0  0  0
   -0.5012    1.3648   25.9031 C   0  0  2  0  0  0  0  0  0  0  0  0
   -1.6908    2.0771   25.5772 O   0  0  0  0  0  0  0  0  0  0  0  0
    3.4247    2.9188   28.5422 C   0  0  2  0  0  0  0  0  0  0  0  0
    7.4338    6.2420   26.0370 C   0  0  2  0  0  0  0  0  0  0  0  0
    7.0707    4.8491   26.0982 O   0  0  0  0  0  0  0  0  0  0  0  0
    3.1154   10.0043   22.6565 C   0  0  2  0  0  0  0  0  0  0  0  0
    4.0818   10.6156   21.8004 O   0  0  0  0  0  0  0  0  0  0  0  0
   -0.1684    1.5175   27.4145 C   0  0  2  0  0  0  0  0  0  0  0  0
    1.1122    0.8739   27.6895 O   0  0  0  0  0  0  0  0  0  0  0  0
    4.3124    4.2021   28.3544 C   0  0  2  0  0  0  0  0  0  0  0  0
    5.4051    3.8680   27.4595 O   0  0  0  0  0  0  0  0  0  0  0  0
    8.1978    6.6460   27.3105 C   0  0  0  0  0  0  0  0  0  0  0  0
    8.4445    8.0411   27.3303 O   0  0  0  0  0  0  0  0  0  0  0  0
    3.5714   10.1089   24.1450 C   0  0  1  0  0  0  0  0  0  0  0  0
    4.7469    9.2691   24.3580 O   0  0  0  0  0  0  0  0  0  0  0  0
   -1.1986    0.8799   28.3732 C   0  0  0  0  0  0  0  0  0  0  0  0
   -2.5228    1.0621   27.9012 O   0  0  0  0  0  0  0  0  0  0  0  0
    4.9173    4.7251   29.6942 C   0  0  1  0  0  0  0  0  0  0  0  0
    5.5586    5.9762   29.4510 O   0  0  0  0  0  0  0  0  0  0  0  0
    3.9052   11.5626   24.5674 C   0  0  0  0  0  0  0  0  0  0  0  0
    2.9999   12.5499   23.9521 N   0  0  0  0  0  0  0  0  0  0  0  0
  1  2  1  1  0  0  0
  1  7  1  0  0  0  0
  1 30  1  0  0  0  0
  3  4  1  1  0  0  0
  3  9  1  0  0  0  0
  3 39  1  0  0  0  0
  5 10  1  0  0  0  0
  5 26  1  0  0  0  0
  5 32  1  1  0  0  0
  6 12  1  0  0  0  0
  6 36  1  0  0  0  0
  6 19  1  6  0  0  0
  7  8  1  6  0  0  0
  7 14  1  0  0  0  0
  9 16  1  0  0  0  0
 10 11  1  6  0  0  0
 10 18  1  0  0  0  0
 12 13  1  6  0  0  0
 12 20  1  0  0  0  0
 14 15  1  6  0  0  0
 14 22  1  0  0  0  0
 16 17  1  1  0  0  0
 16 24  1  0  0  0  0
 18 19  1  6  0  0  0
 18 25  1  0  0  0  0
 20 21  1  1  0  0  0
 20 27  1  0  0  0  0
 22 23  1  1  0  0  0
 22 29  1  0  0  0  0
 24  2  1  6  0  0  0
 24 31  1  0  0  0  0
 25 26  1  0  0  0  0
 25 33  1  1  0  0  0
 27 28  1  6  0  0  0
 27 35  1  0  0  0  0
 29 30  1  0  0  0  0
 29 37  1  1  0  0  0
 31 32  1  6  0  0  0
 31 39  1  0  0  0  0
 33 34  1  0  0  0  0
 35 36  1  0  0  0  0
 35 41  1  6  0  0  0
 37 38  1  0  0  0  0
 39 40  1  6  0  0  0
 41 42  1  0  0  0  0
M  END
>  <CHROM.1>
-154.65003575,-89.05173299,81.80028770,-174.30374552,-30.71884705,-177.58399212
-26.74378550,88.09501178,67.21385040,-167.09984053,-135.51223030,-174.16452787
-55.78631181,62.70816892,-38.32401252,128.91754435,25.12537218,-54.37811436
37.08033709,-92.06883013,-44.97124579,140.24330094,3.41048528,5.25217676
26.25933941,2.12771550,0.64679741,2.30336570

>  <Name>
1fyp_lig

>  <RI>
0

>  <Rbt.Current_Directory>
/home/itssahil/PROJECTS/Mol_Feturizer/New_Systems/rnas/1fyp

>  <Rbt.Executable>
rbdock ($Id: //depot/dev/client3/rdock/2013.1/src/exe/rbdock.cxx#4 $)

>  <Rbt.Library>
libRbt.so (2013.1, Build901 2013/11/27)

>  <Rbt.Parameter_File>
/export/apps/rDock/src/rDock_2013.1_src/data/scripts/dock_solv.prm

>  <Rbt.Receptor>
prm/pocket_docking_8.prm

>  <SCORE>
-46.8934

>  <SCORE.INTER>
-52.1421

>  <SCORE.INTER.CONST>
1

>  <SCORE.INTER.POLAR>
-6.72495

>  <SCORE.INTER.ROT>
14

>  <SCORE.INTER.SOLV>
20.289

>  <SCORE.INTER.VDW>
-32.0412

>  <SCORE.INTER.norm>
-1.24148

>  <SCORE.INTRA>
5.24872

>  <SCORE.INTRA.DIHEDRAL>
-4.29234

>  <SCORE.INTRA.DIHEDRAL.0>
48.7173

>  <SCORE.INTRA.POLAR>
-0.0703921

>  <SCORE.INTRA.POLAR.0>
-1.54691

>  <SCORE.INTRA.REPUL>
0

>  <SCORE.INTRA.REPUL.0>
0

>  <SCORE.INTRA.SOLV>
0.339261

>  <SCORE.INTRA.SOLV.lig_0>
-64.052

>  <SCORE.INTRA.VDW>
7.46459

>  <SCORE.INTRA.VDW.0>
-7.0667

>  <SCORE.INTRA.norm>
0.124969

>  <SCORE.RESTR>
0

>  <SCORE.RESTR.CAVITY>
0

>  <SCORE.RESTR.norm>
0

>  <SCORE.SYSTEM>
0

>  <SCORE.SYSTEM.CONST>
0

>  <SCORE.SYSTEM.DIHEDRAL>
0

>  <SCORE.SYSTEM.SOLV>
0

>  <SCORE.SYSTEM.norm>
0

>  <SCORE.heavy>
42

>  <SCORE.norm>
-1.11651

>  <RMSD>
9.246

$$$$
1fyp_lig
 OpenBabel11021811393D
libRbt.so/2013.1/901 2013/11/27
 42 45  0  0  0  0  0  0  0  0999 V2000
    2.1650    3.3601   28.5841 C   0  0  2  0  0  0  0  0  0  0  0  0
    1.8708    4.7682   28.3538 O   0  0  0  0  0  0  0  0  0  0  0  0
    3.4876    6.2204   24.6771 C   0  0  2  0  0  0  0  0  0  0  0  0
    4.2191    6.9352   23.6148 N   0  0  0  0  0  0  0  0  0  0  0  0
    5.1548    4.7341   28.6995 C   0  0  1  0  0  0  0  0  0  0  0  0
    7.4279    4.9186   32.1060 C   0  0  1  0  0  0  0  0  0  0  0  0
    1.4144    2.4443   27.5642 C   0  0  2  0  0  0  0  0  0  0  0  0
    1.6336    2.8975   26.1742 N   0  0  0  0  0  0  0  0  0  0  0  0
    2.7481    7.2402   25.5661 C   0  0  0  0  0  0  0  0  0  0  0  0
    6.4807    4.1272   29.1659 C   0  0  2  0  0  0  0  0  0  0  0  0
    6.2346    3.1961   30.2204 O   0  0  0  0  0  0  0  0  0  0  0  0
    7.0001    5.4539   33.5065 C   0  0  2  0  0  0  0  0  0  0  0  0
    7.1324    6.9269   33.6202 N   0  0  0  0  0  0  0  0  0  0  0  0
   -0.1127    2.3927   27.8824 C   0  0  1  0  0  0  0  0  0  0  0  0
   -0.7568    1.4338   27.0473 O   0  0  0  0  0  0  0  0  0  0  0  0
    1.9312    6.5530   26.6943 C   0  0  2  0  0  0  0  0  0  0  0  0
    1.3330    7.6151   27.5295 N   0  0  0  0  0  0  0  0  0  0  0  0
    7.2280    5.3618   29.6775 C   0  0  2  0  0  0  0  0  0  0  0  0
    6.8385    5.7037   31.0369 O   0  0  0  0  0  0  0  0  0  0  0  0
    7.7818    4.7248   34.6425 C   0  0  1  0  0  0  0  0  0  0  0  0
    7.2709    3.3992   34.7659 O   0  0  0  0  0  0  0  0  0  0  0  0
   -0.3808    2.0170   29.3614 C   0  0  2  0  0  0  0  0  0  0  0  0
   -1.7819    2.0782   29.6101 O   0  0  0  0  0  0  0  0  0  0  0  0
    2.7946    5.5631   27.5561 C   0  0  2  0  0  0  0  0  0  0  0  0
    6.7668    6.4472   28.6948 C   0  0  2  0  0  0  0  0  0  0  0  0
    5.4234    6.0918   28.3144 O   0  0  0  0  0  0  0  0  0  0  0  0
    9.3191    4.6345   34.4005 C   0  0  2  0  0  0  0  0  0  0  0  0
    9.8879    5.9288   34.6050 O   0  0  0  0  0  0  0  0  0  0  0  0
    0.3863    2.9803   30.3111 C   0  0  2  0  0  0  0  0  0  0  0  0
    1.8012    2.9782   29.9533 O   0  0  0  0  0  0  0  0  0  0  0  0
    3.6830    4.6059   26.6816 C   0  0  2  0  0  0  0  0  0  0  0  0
    4.6678    3.9862   27.5491 O   0  0  0  0  0  0  0  0  0  0  0  0
    7.6607    6.5495   27.4462 C   0  0  0  0  0  0  0  0  0  0  0  0
    7.5918    5.3615   26.6770 O   0  0  0  0  0  0  0  0  0  0  0  0
    9.6238    4.1344   32.9543 C   0  0  1  0  0  0  0  0  0  0  0  0
    8.8910    4.9492   31.9890 O   0  0  0  0  0  0  0  0  0  0  0  0
    0.3086    2.6120   31.8096 C   0  0  0  0  0  0  0  0  0  0  0  0
    0.9516    3.5867   32.6134 O   0  0  0  0  0  0  0  0  0  0  0  0
    4.4369    5.3518   25.5372 C   0  0  1  0  0  0  0  0  0  0  0  0
    5.0737    4.3865   24.7015 O   0  0  0  0  0  0  0  0  0  0  0  0
   11.1349    4.1808   32.6114 C   0  0  0  0  0  0  0  0  0  0  0  0
   11.6678    5.5552   32.5999 N   0  0  0  0  0  0  0  0  0  0  0  0
  1  2  1  6  0  0  0
  1  7  1  0  0  0  0
  1 30  1  0  0  0  0
  3  4  1  6  0  0  0
  3  9  1  0  0  0  0
  3 39  1  0  0  0  0
  5 10  1  0  0  0  0
  5 26  1  0  0  0  0
  5 32  1  6  0  0  0
  6 12  1  0  0  0  0
  6 36  1  0  0  0  0
  6 19  1  6  0  0  0
  7  8  1  6  0  0  0
  7 14  1  0  0  0  0
  9 16  1  0  0  0  0
 10 11  1  1  0  0  0
 10 18  1  0  0  0  0
 12 13  1  6  0  0  0
 12 20  1  0  0  0  0
 14 15  1  6  0  0  0
 14 22  1  0  0  0  0
 16 17  1  1  0  0  0
 16 24  1  0  0  0  0
 18 19  1  1  0  0  0
 18 25  1  0  0  0  0
 20 21  1  6  0  0  0
 20 27  1  0  0  0  0
 22 23  1  1  0  0  0
 22 29  1  0  0  0  0
 24  2  1  6  0  0  0
 24 31  1  0  0  0  0
 25 26  1  0  0  0  0
 25 33  1  6  0  0  0
 27 28  1  6  0  0  0
 27 35  1  0  0  0  0
 29 30  1  0  0  0  0
 29 37  1  1  0  0  0
 31 32  1  1  0  0  0
 31 39  1  0  0  0  0
 33 34  1  0  0  0  0
 35 36  1  0  0  0  0
 35 41  1  6  0  0  0
 37 38  1  0  0  0  0
 39 40  1  6  0  0  0
 41 42  1  0  0  0  0
M  END
>  <CHROM.1>
-96.28446703,142.57266981,60.92680205,171.09905669,170.99929735,62.92470554
55.19286283,74.94856779,78.88191623,176.12127366,61.00771664,64.03653025
64.47586872,60.49515596,-175.89214405,-31.27448104,-160.62379848,-174.35261980
-64.39981391,-177.97407815,67.55862690,164.71849926,4.72568192,4.61784210
29.46799883,2.59899140,-0.35064341,-1.26267703

>  <Name>
1fyp_lig

>  <RI>
0

>  <Rbt.Current_Directory>
/home/itssahil/PROJECTS/Mol_Feturizer/New_Systems/rnas/1fyp

>  <Rbt.Executable>
rbdock ($Id: //depot/dev/client3/rdock/2013.1/src/exe/rbdock.cxx#4 $)

>  <Rbt.Library>
libRbt.so (2013.1, Build901 2013/11/27)

>  <Rbt.Parameter_File>
/export/apps/rDock/src/rDock_2013.1_src/data/scripts/dock_solv.prm

>  <Rbt.Receptor>
prm/pocket_docking_6.prm

>  <SCORE>
-39.8975

>  <SCORE.INTER>
-33.1035

>  <SCORE.INTER.CONST>
1

>  <SCORE.INTER.POLAR>
-5.65906

>  <SCORE.INTER.ROT>
14

>  <SCORE.INTER.SOLV>
10.5398

>  <SCORE.INTER.VDW>
-19.6521

>  <SCORE.INTER.norm>
-0.788179

>  <SCORE.INTRA>
-6.81959

>  <SCORE.INTRA.DIHEDRAL>
-29.72

>  <SCORE.INTRA.DIHEDRAL.0>
48.7173

>  <SCORE.INTRA.POLAR>
0.864154

>  <SCORE.INTRA.POLAR.0>
-1.54691

>  <SCORE.INTRA.REPUL>
0

>  <SCORE.INTRA.REPUL.0>
0

>  <SCORE.INTRA.SOLV>
0.242295

>  <SCORE.INTRA.SOLV.lig_0>
-64.052

>  <SCORE.INTRA.VDW>
4.98115

>  <SCORE.INTRA.VDW.0>
-7.0667

>  <SCORE.INTRA.norm>
-0.162371

>  <SCORE.RESTR>
0.0256579

>  <SCORE.RESTR.CAVITY>
0.0256579

>  <SCORE.RESTR.norm>
0.000610902

>  <SCORE.SYSTEM>
0

>  <SCORE.SYSTEM.CONST>
0

>  <SCORE.SYSTEM.DIHEDRAL>
0

>  <SCORE.SYSTEM.SOLV>
0

>  <SCORE.SYSTEM.norm>
0

>  <SCORE.heavy>
42

>  <SCORE.norm>
-0.94994

>  <RMSD>
9.248

$$$$
1fyp_lig
 OpenBabel11021811393D
libRbt.so/2013.1/901 2013/11/27
 42 45  0  0  0  0  0  0  0  0999 V2000
    2.7148    4.5578   27.5497 C   0  0  2  0  0  0  0  0  0  0  0  0
    3.0239    4.8117   26.1489 O   0  0  0  0  0  0  0  0  0  0  0  0
    2.8336    8.2103   23.5693 C   0  0  2  0  0  0  0  0  0  0  0  0
    2.9464    9.5349   22.9312 N   0  0  0  0  0  0  0  0  0  0  0  0
    6.2917    6.2520   25.5550 C   0  0  1  0  0  0  0  0  0  0  0  0
    9.2858    8.3439   27.7474 C   0  0  1  0  0  0  0  0  0  0  0  0
    3.8857    5.0029   28.4841 C   0  0  2  0  0  0  0  0  0  0  0  0
    4.3088    6.3887   28.1906 N   0  0  0  0  0  0  0  0  0  0  0  0
    2.2342    8.3703   24.9807 C   0  0  0  0  0  0  0  0  0  0  0  0
    7.7415    5.7989   25.3643 C   0  0  2  0  0  0  0  0  0  0  0  0
    8.0180    4.7038   26.2382 O   0  0  0  0  0  0  0  0  0  0  0  0
   10.8305    8.3355   27.5358 C   0  0  2  0  0  0  0  0  0  0  0  0
   11.4553    7.0514   27.9369 N   0  0  0  0  0  0  0  0  0  0  0  0
    5.0984    4.0283   28.3586 C   0  0  1  0  0  0  0  0  0  0  0  0
    6.0919    4.3524   29.3280 O   0  0  0  0  0  0  0  0  0  0  0  0
    2.0609    7.0066   25.7037 C   0  0  2  0  0  0  0  0  0  0  0  0
    1.5599    7.2790   27.0670 N   0  0  0  0  0  0  0  0  0  0  0  0
    8.5186    7.0512   25.7790 C   0  0  2  0  0  0  0  0  0  0  0  0
    8.6734    7.1369   27.2230 O   0  0  0  0  0  0  0  0  0  0  0  0
   11.4976    9.5429   28.2640 C   0  0  1  0  0  0  0  0  0  0  0  0
   11.1985   10.7326   27.5369 O   0  0  0  0  0  0  0  0  0  0  0  0
    4.6747    2.5520   28.5620 C   0  0  2  0  0  0  0  0  0  0  0  0
    5.8027    1.7102   28.3435 O   0  0  0  0  0  0  0  0  0  0  0  0
    3.3848    6.1614   25.7370 C   0  0  2  0  0  0  0  0  0  0  0  0
    7.6111    8.1778   25.2657 C   0  0  2  0  0  0  0  0  0  0  0  0
    6.2642    7.6750   25.3599 O   0  0  0  0  0  0  0  0  0  0  0  0
   11.0239    9.7389   29.7361 C   0  0  2  0  0  0  0  0  0  0  0  0
   11.6050    8.7115   30.5408 O   0  0  0  0  0  0  0  0  0  0  0  0
    3.5193    2.1826   27.5889 C   0  0  2  0  0  0  0  0  0  0  0  0
    2.4266    3.1346   27.7607 O   0  0  0  0  0  0  0  0  0  0  0  0
    4.1089    6.1037   24.3433 C   0  0  2  0  0  0  0  0  0  0  0  0
    5.4553    5.6046   24.5544 O   0  0  0  0  0  0  0  0  0  0  0  0
    7.9220    8.5892   23.8155 C   0  0  0  0  0  0  0  0  0  0  0  0
    9.0765    9.4087   23.7595 O   0  0  0  0  0  0  0  0  0  0  0  0
    9.4675    9.6810   29.8295 C   0  0  1  0  0  0  0  0  0  0  0  0
    8.9818    8.4675   29.1783 O   0  0  0  0  0  0  0  0  0  0  0  0
    2.9173    0.7756   27.8012 C   0  0  0  0  0  0  0  0  0  0  0  0
    2.3875    0.6341   29.1084 O   0  0  0  0  0  0  0  0  0  0  0  0
    4.2053    7.4979   23.6494 C   0  0  1  0  0  0  0  0  0  0  0  0
    4.7177    7.3195   22.3298 O   0  0  0  0  0  0  0  0  0  0  0  0
    8.9547    9.7098   31.2922 C   0  0  0  0  0  0  0  0  0  0  0  0
    7.4829    9.7037   31.3732 N   0  0  0  0  0  0  0  0  0  0  0  0
  1  2  1  6  0  0  0
  1  7  1  0  0  0  0
  1 30  1  0  0  0  0
  3  4  1  1  0  0  0
  3  9  1  0  0  0  0
  3 39  1  0  0  0  0
  5 10  1  0  0  0  0
  5 26  1  0  0  0  0
  5 32  1  6  0  0  0
  6 12  1  0  0  0  0
  6 36  1  0  0  0  0
  6 19  1  1  0  0  0
  7  8  1  6  0  0  0
  7 14  1  0  0  0  0
  9 16  1  0  0  0  0
 10 11  1  1  0  0  0
 10 18  1  0  0  0  0
 12 13  1  1  0  0  0
 12 20  1  0  0  0  0
 14 15  1  1  0  0  0
 14 22  1  0  0  0  0
 16 17  1  1  0  0  0
 16 24  1  0  0  0  0
 18 19  1  1  0  0  0
 18 25  1  0  0  0  0
 20 21  1  6  0  0  0
 20 27  1  0  0  0  0
 22 23  1  6  0  0  0
 22 29  1  0  0  0  0
 24  2  1  6  0  0  0
 24 31  1  0  0  0  0
 25 26  1  0  0  0  0
 25 33  1  6  0  0  0
 27 28  1  1  0  0  0
 27 35  1  0  0  0  0
 29 30  1  0  0  0  0
 29 37  1  1  0  0  0
 31 32  1  1  0  0  0
 31 39  1  0  0  0  0
 33 34  1  0  0  0  0
 35 36  1  0  0  0  0
 35 41  1  1  0  0  0
 37 38  1  0  0  0  0
 39 40  1  6  0  0  0
 41 42  1  0  0  0  0
M  END
>  <CHROM.1>
-55.68486990,-75.54568234,-53.00494236,41.50819183,53.40277408,-51.17038534
58.90286652,57.36841724,-174.47035370,-76.45154669,-58.87616686,87.91383313
-77.65923481,171.34993083,59.58492969,-52.25905435,-166.24832102,63.99242500
177.94637177,58.91552912,-46.69659820,161.44226748,6.26079965,6.60399473
26.96262630,-2.90618171,-0.58317141,-0.82812356

>  <Name>
1fyp_lig

>  <RI>
0

>  <Rbt.Current_Directory>
/home/itssahil/PROJECTS/Mol_Feturizer/New_Systems/rnas/1fyp

>  <Rbt.Executable>
rbdock ($Id: //depot/dev/client3/rdock/2013.1/src/exe/rbdock.cxx#4 $)

>  <Rbt.Library>
libRbt.so (2013.1, Build901 2013/11/27)

>  <Rbt.Parameter_File>
/export/apps/rDock/src/rDock_2013.1_src/data/scripts/dock_solv.prm

>  <Rbt.Receptor>
prm/pocket_docking_5.prm

>  <SCORE>
-46.1113

>  <SCORE.INTER>
-33.4158

>  <SCORE.INTER.CONST>
1

>  <SCORE.INTER.POLAR>
-3.0063

>  <SCORE.INTER.ROT>
14

>  <SCORE.INTER.SOLV>
19.1234

>  <SCORE.INTER.VDW>
-31.564

>  <SCORE.INTER.norm>
-0.795615

>  <SCORE.INTRA>
-12.6955

>  <SCORE.INTRA.DIHEDRAL>
-37.2594

>  <SCORE.INTRA.DIHEDRAL.0>
48.7173

>  <SCORE.INTRA.POLAR>
0.538132

>  <SCORE.INTRA.POLAR.0>
-1.54691

>  <SCORE.INTRA.REPUL>
0.0341546

>  <SCORE.INTRA.REPUL.0>
0

>  <SCORE.INTRA.SOLV>
-1.08952

>  <SCORE.INTRA.SOLV.lig_0>
-64.052

>  <SCORE.INTRA.VDW>
4.4785

>  <SCORE.INTRA.VDW.0>
-7.0667

>  <SCORE.INTRA.norm>
-0.302275

>  <SCORE.RESTR>
0

>  <SCORE.RESTR.CAVITY>
0

>  <SCORE.RESTR.norm>
0

>  <SCORE.SYSTEM>
0

>  <SCORE.SYSTEM.CONST>
0

>  <SCORE.SYSTEM.DIHEDRAL>
0

>  <SCORE.SYSTEM.SOLV>
0

>  <SCORE.SYSTEM.norm>
0

>  <SCORE.heavy>
42

>  <SCORE.norm>
-1.09789

>  <RMSD>
9.270

$$$$
1fyp_lig
 OpenBabel11021811393D
libRbt.so/2013.1/901 2013/11/27
 42 45  0  0  0  0  0  0  0  0999 V2000
    1.7934    4.3668   27.4325 C   0  0  2  0  0  0  0  0  0  0  0  0
    2.4724    4.5582   26.1579 O   0  0  0  0  0  0  0  0  0  0  0  0
    2.6985    8.1364   23.8371 C   0  0  2  0  0  0  0  0  0  0  0  0
    2.9805    9.4774   23.2923 N   0  0  0  0  0  0  0  0  0  0  0  0
    5.8706    5.5384   25.5947 C   0  0  1  0  0  0  0  0  0  0  0  0
    9.5139    6.6310   27.8544 C   0  0  1  0  0  0  0  0  0  0  0  0
    2.8034    4.3686   28.6250 C   0  0  2  0  0  0  0  0  0  0  0  0
    3.6912    5.5496   28.5741 N   0  0  0  0  0  0  0  0  0  0  0  0
    2.1611    8.2700   25.2759 C   0  0  0  0  0  0  0  0  0  0  0  0
    7.2694    5.0050   25.2745 C   0  0  2  0  0  0  0  0  0  0  0  0
    7.4755    3.7669   25.9558 O   0  0  0  0  0  0  0  0  0  0  0  0
    9.4070    6.7040   29.4082 C   0  0  2  0  0  0  0  0  0  0  0  0
    8.0716    7.1569   29.8685 N   0  0  0  0  0  0  0  0  0  0  0  0
    3.6483    3.0563   28.6401 C   0  0  1  0  0  0  0  0  0  0  0  0
    4.4490    3.0006   29.8180 O   0  0  0  0  0  0  0  0  0  0  0  0
    1.8158    6.8923   25.9046 C   0  0  2  0  0  0  0  0  0  0  0  0
    1.3904    7.1269   27.3002 N   0  0  0  0  0  0  0  0  0  0  0  0
    8.1642    6.1090   25.8446 C   0  0  2  0  0  0  0  0  0  0  0  0
    8.3682    5.9528   27.2765 O   0  0  0  0  0  0  0  0  0  0  0  0
   10.5432    7.5925   30.0022 C   0  0  1  0  0  0  0  0  0  0  0  0
   11.7723    6.8746   29.9158 O   0  0  0  0  0  0  0  0  0  0  0  0
    2.7521    1.7934   28.5934 C   0  0  2  0  0  0  0  0  0  0  0  0
    3.5809    0.6377   28.5153 O   0  0  0  0  0  0  0  0  0  0  0  0
    3.0088    5.8726   25.8320 C   0  0  2  0  0  0  0  0  0  0  0  0
    7.3431    7.3724   25.5510 C   0  0  2  0  0  0  0  0  0  0  0  0
    5.9610    6.9719   25.6236 O   0  0  0  0  0  0  0  0  0  0  0  0
   10.7256    8.9607   29.2780 C   0  0  2  0  0  0  0  0  0  0  0  0
    9.6368    9.8131   29.6366 O   0  0  0  0  0  0  0  0  0  0  0  0
    1.7886    1.8594   27.3746 C   0  0  2  0  0  0  0  0  0  0  0  0
    1.0372    3.1094   27.4261 O   0  0  0  0  0  0  0  0  0  0  0  0
    3.6843    5.8216   24.4139 C   0  0  2  0  0  0  0  0  0  0  0  0
    4.9522    5.1270   24.5425 O   0  0  0  0  0  0  0  0  0  0  0  0
    7.6457    7.9809   24.1701 C   0  0  0  0  0  0  0  0  0  0  0  0
    7.2509    9.3408   24.1200 O   0  0  0  0  0  0  0  0  0  0  0  0
   10.7709    8.7667   27.7305 C   0  0  1  0  0  0  0  0  0  0  0  0
    9.6139    7.9867   27.2999 O   0  0  0  0  0  0  0  0  0  0  0  0
    0.7473    0.7199   27.3084 C   0  0  0  0  0  0  0  0  0  0  0  0
    0.0014    0.7733   26.1041 O   0  0  0  0  0  0  0  0  0  0  0  0
    3.9584    7.2377   23.8190 C   0  0  1  0  0  0  0  0  0  0  0  0
    4.4093    7.0911   22.4733 O   0  0  0  0  0  0  0  0  0  0  0  0
   10.7894   10.1114   26.9595 C   0  0  0  0  0  0  0  0  0  0  0  0
   10.1428   10.0122   25.6385 N   0  0  0  0  0  0  0  0  0  0  0  0
  1  2  1  6  0  0  0
  1  7  1  0  0  0  0
  1 30  1  0  0  0  0
  3  4  1  1  0  0  0
  3  9  1  0  0  0  0
  3 39  1  0  0  0  0
  5 10  1  0  0  0  0
  5 26  1  0  0  0  0
  5 32  1  6  0  0  0
  6 12  1  0  0  0  0
  6 36  1  0  0  0  0
  6 19  1  6  0  0  0
  7  8  1  6  0  0  0
  7 14  1  0  0  0  0
  9 16  1  0  0  0  0
 10 11  1  1  0  0  0
 10 18  1  0  0  0  0
 12 13  1  6  0  0  0
 12 20  1  0  0  0  0
 14 15  1  1  0  0  0
 14 22  1  0  0  0  0
 16 17  1  1  0  0  0
 16 24  1  0  0  0  0
 18 19  1  1  0  0  0
 18 25  1  0  0  0  0
 20 21  1  6  0  0  0
 20 27  1  0  0  0  0
 22 23  1  6  0  0  0
 22 29  1  0  0  0  0
 24  2  1  6  0  0  0
 24 31  1  0  0  0  0
 25 26  1  0  0  0  0
 25 33  1  6  0  0  0
 27 28  1  6  0  0  0
 27 35  1  0  0  0  0
 29 30  1  0  0  0  0
 29 37  1  1  0  0  0
 31 32  1  1  0  0  0
 31 39  1  0  0  0  0
 33 34  1  0  0  0  0
 35 36  1  0  0  0  0
 35 41  1  6  0  0  0
 37 38  1  0  0  0  0
 39 40  1  6  0  0  0
 41 42  1  0  0  0  0
M  END
>  <CHROM.1>
-72.37076449,-57.15751093,65.80144590,45.04638178,-74.10974129,51.50930195
62.83716642,-42.81884413,160.07583912,164.78135804,-170.43813712,-69.75111322
-159.65803783,65.06379085,-173.99341993,-49.69278153,-162.22185123,70.66549813
-149.81809369,-177.58001854,78.75454563,36.03344912,5.63010221,6.03112345
26.77660183,-2.81294023,-0.47509480,-0.76232765

>  <Name>
1fyp_lig

>  <RI>
0

>  <Rbt.Current_Directory>
/home/itssahil/PROJECTS/Mol_Feturizer/New_Systems/rnas/1fyp

>  <Rbt.Executable>
rbdock ($Id: //depot/dev/client3/rdock/2013.1/src/exe/rbdock.cxx#4 $)

>  <Rbt.Library>
libRbt.so (2013.1, Build901 2013/11/27)

>  <Rbt.Parameter_File>
/export/apps/rDock/src/rDock_2013.1_src/data/scripts/dock_solv.prm

>  <Rbt.Receptor>
prm/pocket_docking_6.prm

>  <SCORE>
-47.4981

>  <SCORE.INTER>
-34.7185

>  <SCORE.INTER.CONST>
1

>  <SCORE.INTER.POLAR>
-3.85737

>  <SCORE.INTER.ROT>
14

>  <SCORE.INTER.SOLV>
15.9096

>  <SCORE.INTER.VDW>
-28.5243

>  <SCORE.INTER.norm>
-0.826631

>  <SCORE.INTRA>
-12.7796

>  <SCORE.INTRA.DIHEDRAL>
-32.5753

>  <SCORE.INTRA.DIHEDRAL.0>
48.7173

>  <SCORE.INTRA.POLAR>
-0.0508923

>  <SCORE.INTRA.POLAR.0>
-1.54691

>  <SCORE.INTRA.REPUL>
0

>  <SCORE.INTRA.REPUL.0>
0

>  <SCORE.INTRA.SOLV>
-0.820123

>  <SCORE.INTRA.SOLV.lig_0>
-64.052

>  <SCORE.INTRA.VDW>
4.09114

>  <SCORE.INTRA.VDW.0>
-7.0667

>  <SCORE.INTRA.norm>
-0.304276

>  <SCORE.RESTR>
0

>  <SCORE.RESTR.CAVITY>
0

>  <SCORE.RESTR.norm>
0

>  <SCORE.SYSTEM>
0

>  <SCORE.SYSTEM.CONST>
0

>  <SCORE.SYSTEM.DIHEDRAL>
0

>  <SCORE.SYSTEM.SOLV>
0

>  <SCORE.SYSTEM.norm>
0

>  <SCORE.heavy>
42

>  <SCORE.norm>
-1.13091

>  <RMSD>
9.276

$$$$
1fyp_lig
 OpenBabel11021811393D
libRbt.so/2013.1/901 2013/11/27
 42 45  0  0  0  0  0  0  0  0999 V2000
    2.1188    3.0341   28.8257 C   0  0  2  0  0  0  0  0  0  0  0  0
    1.8085    4.4298   28.5466 O   0  0  0  0  0  0  0  0  0  0  0  0
    3.4720    6.0923   24.9815 C   0  0  2  0  0  0  0  0  0  0  0  0
    4.2342    6.8507   23.9724 N   0  0  0  0  0  0  0  0  0  0  0  0
    5.7754    4.2146   28.0535 C   0  0  1  0  0  0  0  0  0  0  0  0
    8.7672    6.6602   30.1594 C   0  0  1  0  0  0  0  0  0  0  0  0
    0.8417    2.1370   28.7474 C   0  0  2  0  0  0  0  0  0  0  0  0
    0.1054    2.3612   27.4851 N   0  0  0  0  0  0  0  0  0  0  0  0
    2.8038    7.0743   25.9644 C   0  0  0  0  0  0  0  0  0  0  0  0
    5.4269    5.5394   28.7370 C   0  0  2  0  0  0  0  0  0  0  0  0
    5.5034    6.6018   27.7857 O   0  0  0  0  0  0  0  0  0  0  0  0
    9.9358    7.3868   29.4262 C   0  0  2  0  0  0  0  0  0  0  0  0
   10.4290    6.6317   28.2486 N   0  0  0  0  0  0  0  0  0  0  0  0
   -0.0925    2.3914   29.9716 C   0  0  1  0  0  0  0  0  0  0  0  0
   -1.1696    1.4578   29.9705 O   0  0  0  0  0  0  0  0  0  0  0  0
    1.9587    6.3428   27.0428 C   0  0  2  0  0  0  0  0  0  0  0  0
    1.4335    7.3632   27.9736 N   0  0  0  0  0  0  0  0  0  0  0  0
    6.5359    5.6520   29.7867 C   0  0  2  0  0  0  0  0  0  0  0  0
    7.7604    6.1979   29.2217 O   0  0  0  0  0  0  0  0  0  0  0  0
   11.0955    7.7135   30.4169 C   0  0  1  0  0  0  0  0  0  0  0  0
   10.6834    8.7880   31.2589 O   0  0  0  0  0  0  0  0  0  0  0  0
    0.6694    2.2629   31.3144 C   0  0  2  0  0  0  0  0  0  0  0  0
   -0.2115    2.5967   32.3827 O   0  0  0  0  0  0  0  0  0  0  0  0
    2.7700    5.2341   27.8049 C   0  0  2  0  0  0  0  0  0  0  0  0
    6.7381    4.1875   30.1996 C   0  0  2  0  0  0  0  0  0  0  0  0
    6.4523    3.4022   29.0259 O   0  0  0  0  0  0  0  0  0  0  0  0
   11.5144    6.5165   31.3234 C   0  0  2  0  0  0  0  0  0  0  0  0
   12.2312    5.5722   30.5264 O   0  0  0  0  0  0  0  0  0  0  0  0
    1.9146    3.1943   31.3203 C   0  0  2  0  0  0  0  0  0  0  0  0
    2.7363    2.9018   30.1502 O   0  0  0  0  0  0  0  0  0  0  0  0
    3.5908    4.3043   26.8395 C   0  0  2  0  0  0  0  0  0  0  0  0
    4.5455    3.5563   27.6366 O   0  0  0  0  0  0  0  0  0  0  0  0
    5.8237    3.7564   31.3601 C   0  0  0  0  0  0  0  0  0  0  0  0
    6.0959    4.5143   32.5259 O   0  0  0  0  0  0  0  0  0  0  0  0
   10.2616    5.8410   31.9628 C   0  0  1  0  0  0  0  0  0  0  0  0
    9.2919    5.5190   30.9195 O   0  0  0  0  0  0  0  0  0  0  0  0
    2.8322    3.0428   32.5541 C   0  0  0  0  0  0  0  0  0  0  0  0
    3.2806    1.7061   32.7012 O   0  0  0  0  0  0  0  0  0  0  0  0
    4.3763    5.0994   25.7508 C   0  0  1  0  0  0  0  0  0  0  0  0
    4.9458    4.1730   24.8271 O   0  0  0  0  0  0  0  0  0  0  0  0
   10.6122    4.5485   32.7436 C   0  0  0  0  0  0  0  0  0  0  0  0
   11.1206    3.4799   31.8645 N   0  0  0  0  0  0  0  0  0  0  0  0
  1  2  1  1  0  0  0
  1  7  1  0  0  0  0
  1 30  1  0  0  0  0
  3  4  1  6  0  0  0
  3  9  1  0  0  0  0
  3 39  1  0  0  0  0
  5 10  1  0  0  0  0
  5 26  1  0  0  0  0
  5 32  1  1  0  0  0
  6 12  1  0  0  0  0
  6 36  1  0  0  0  0
  6 19  1  6  0  0  0
  7  8  1  6  0  0  0
  7 14  1  0  0  0  0
  9 16  1  0  0  0  0
 10 11  1  6  0  0  0
 10 18  1  0  0  0  0
 12 13  1  6  0  0  0
 12 20  1  0  0  0  0
 14 15  1  1  0  0  0
 14 22  1  0  0  0  0
 16 17  1  1  0  0  0
 16 24  1  0  0  0  0
 18 19  1  6  0  0  0
 18 25  1  0  0  0  0
 20 21  1  1  0  0  0
 20 27  1  0  0  0  0
 22 23  1  1  0  0  0
 22 29  1  0  0  0  0
 24  2  1  6  0  0  0
 24 31  1  0  0  0  0
 25 26  1  0  0  0  0
 25 33  1  1  0  0  0
 27 28  1  6  0  0  0
 27 35  1  0  0  0  0
 29 30  1  0  0  0  0
 29 37  1  1  0  0  0
 31 32  1  1  0  0  0
 31 39  1  0  0  0  0
 33 34  1  0  0  0  0
 35 36  1  0  0  0  0
 35 41  1  6  0  0  0
 37 38  1  0  0  0  0
 39 40  1  6  0  0  0
 41 42  1  0  0  0  0
M  END
>  <CHROM.1>
-143.41403933,151.73540897,177.55900939,176.48435277,177.95135279,161.17887860
-64.25770779,77.17729119,165.25927997,-172.51099178,-177.21623655,-53.07801236
-62.01729555,-74.35762178,56.74731333,-79.53097754,52.27241279,-58.77499042
-65.40731464,66.38226602,68.34174720,-31.45664962,5.26752862,4.75384909,29.35321463
3.12192504,-0.34119372,-1.09446382

>  <Name>
1fyp_lig

>  <RI>
0

>  <Rbt.Current_Directory>
/home/itssahil/PROJECTS/Mol_Feturizer/New_Systems/rnas/1fyp

>  <Rbt.Executable>
rbdock ($Id: //depot/dev/client3/rdock/2013.1/src/exe/rbdock.cxx#4 $)

>  <Rbt.Library>
libRbt.so (2013.1, Build901 2013/11/27)

>  <Rbt.Parameter_File>
/export/apps/rDock/src/rDock_2013.1_src/data/scripts/dock_solv.prm

>  <Rbt.Receptor>
prm/pocket_docking_6.prm

>  <SCORE>
-50.5615

>  <SCORE.INTER>
-45.7295

>  <SCORE.INTER.CONST>
1

>  <SCORE.INTER.POLAR>
-7.00335

>  <SCORE.INTER.ROT>
14

>  <SCORE.INTER.SOLV>
11.8202

>  <SCORE.INTER.VDW>
-24.0153

>  <SCORE.INTER.norm>
-1.0888

>  <SCORE.INTRA>
-4.83198

>  <SCORE.INTRA.DIHEDRAL>
-32.3696

>  <SCORE.INTRA.DIHEDRAL.0>
48.7173

>  <SCORE.INTRA.POLAR>
1.50714

>  <SCORE.INTRA.POLAR.0>
-1.54691

>  <SCORE.INTRA.REPUL>
0

>  <SCORE.INTRA.REPUL.0>
0

>  <SCORE.INTRA.SOLV>
0.430002

>  <SCORE.INTRA.SOLV.lig_0>
-64.052

>  <SCORE.INTRA.VDW>
6.01357

>  <SCORE.INTRA.VDW.0>
-7.0667

>  <SCORE.INTRA.norm>
-0.115047

>  <SCORE.RESTR>
0

>  <SCORE.RESTR.CAVITY>
0

>  <SCORE.RESTR.norm>
0

>  <SCORE.SYSTEM>
0

>  <SCORE.SYSTEM.CONST>
0

>  <SCORE.SYSTEM.DIHEDRAL>
0

>  <SCORE.SYSTEM.SOLV>
0

>  <SCORE.SYSTEM.norm>
0

>  <SCORE.heavy>
42

>  <SCORE.norm>
-1.20385

>  <RMSD>
9.286

$$$$
1fyp_lig
 OpenBabel11021811393D
libRbt.so/2013.1/901 2013/11/27
 42 45  0  0  0  0  0  0  0  0999 V2000
    4.2397    3.0004   27.7637 C   0  0  2  0  0  0  0  0  0  0  0  0
    3.1397    3.7216   27.1375 O   0  0  0  0  0  0  0  0  0  0  0  0
    2.2903    7.1839   24.7854 C   0  0  2  0  0  0  0  0  0  0  0  0
    2.2099    8.5331   24.1958 N   0  0  0  0  0  0  0  0  0  0  0  0
    6.1558    5.3772   26.0341 C   0  0  1  0  0  0  0  0  0  0  0  0
   10.0155    7.0626   27.5132 C   0  0  1  0  0  0  0  0  0  0  0  0
    3.7326    1.7368   28.5307 C   0  0  2  0  0  0  0  0  0  0  0  0
    2.8611    0.9038   27.6749 N   0  0  0  0  0  0  0  0  0  0  0  0
    1.9510    7.2594   26.2874 C   0  0  0  0  0  0  0  0  0  0  0  0
    7.5641    5.1503   25.4786 C   0  0  2  0  0  0  0  0  0  0  0  0
    8.1581    4.0260   26.1287 O   0  0  0  0  0  0  0  0  0  0  0  0
   10.1909    7.3584   29.0340 C   0  0  2  0  0  0  0  0  0  0  0  0
    8.9923    7.9932   29.6346 N   0  0  0  0  0  0  0  0  0  0  0  0
    2.9804    2.1435   29.8364 C   0  0  1  0  0  0  0  0  0  0  0  0
    2.6642    0.9842   30.6031 O   0  0  0  0  0  0  0  0  0  0  0  0
    1.9898    5.8647   26.9697 C   0  0  2  0  0  0  0  0  0  0  0  0
    1.7319    6.0601   28.4116 N   0  0  0  0  0  0  0  0  0  0  0  0
    8.2683    6.4532   25.8671 C   0  0  2  0  0  0  0  0  0  0  0  0
    8.7419    6.4214   27.2423 O   0  0  0  0  0  0  0  0  0  0  0  0
   11.4723    8.2100   29.2903 C   0  0  1  0  0  0  0  0  0  0  0  0
   12.6147    7.3753   29.1118 O   0  0  0  0  0  0  0  0  0  0  0  0
    3.8260    3.0994   30.7147 C   0  0  2  0  0  0  0  0  0  0  0  0
    3.0513    3.5055   31.8388 O   0  0  0  0  0  0  0  0  0  0  0  0
    3.3428    5.1041   26.7266 C   0  0  2  0  0  0  0  0  0  0  0  0
    7.1444    7.4865   25.7070 C   0  0  2  0  0  0  0  0  0  0  0  0
    5.9220    6.7947   26.0281 O   0  0  0  0  0  0  0  0  0  0  0  0
   11.6166    9.4425   28.3468 C   0  0  2  0  0  0  0  0  0  0  0  0
   10.6694   10.4342   28.7470 O   0  0  0  0  0  0  0  0  0  0  0  0
    4.2787    4.3354   29.8866 C   0  0  2  0  0  0  0  0  0  0  0  0
    4.9696    3.8789   28.6849 O   0  0  0  0  0  0  0  0  0  0  0  0
    3.8019    5.1379   25.2238 C   0  0  2  0  0  0  0  0  0  0  0  0
    5.1901    4.7182   25.1664 O   0  0  0  0  0  0  0  0  0  0  0  0
    7.0627    8.0735   24.2867 C   0  0  0  0  0  0  0  0  0  0  0  0
    5.9714    8.9699   24.1726 O   0  0  0  0  0  0  0  0  0  0  0  0
   11.3736    9.0340   26.8607 C   0  0  1  0  0  0  0  0  0  0  0  0
   10.1081    8.3137   26.7507 O   0  0  0  0  0  0  0  0  0  0  0  0
    5.2496    5.2874   30.6201 C   0  0  0  0  0  0  0  0  0  0  0  0
    6.4596    4.6299   30.9564 O   0  0  0  0  0  0  0  0  0  0  0  0
    3.6913    6.5573   24.5854 C   0  0  1  0  0  0  0  0  0  0  0  0
    3.9630    6.4549   23.1884 O   0  0  0  0  0  0  0  0  0  0  0  0
   11.3471   10.2521   25.9023 C   0  0  0  0  0  0  0  0  0  0  0  0
   10.1189   11.0546   26.0453 N   0  0  0  0  0  0  0  0  0  0  0  0
  1  2  1  1  0  0  0
  1  7  1  0  0  0  0
  1 30  1  0  0  0  0
  3  4  1  1  0  0  0
  3  9  1  0  0  0  0
  3 39  1  0  0  0  0
  5 10  1  0  0  0  0
  5 26  1  0  0  0  0
  5 32  1  6  0  0  0
  6 12  1  0  0  0  0
  6 36  1  0  0  0  0
  6 19  1  1  0  0  0
  7  8  1  6  0  0  0
  7 14  1  0  0  0  0
  9 16  1  0  0  0  0
 10 11  1  1  0  0  0
 10 18  1  0  0  0  0
 12 13  1  6  0  0  0
 12 20  1  0  0  0  0
 14 15  1  1  0  0  0
 14 22  1  0  0  0  0
 16 17  1  1  0  0  0
 16 24  1  0  0  0  0
 18 19  1  1  0  0  0
 18 25  1  0  0  0  0
 20 21  1  6  0  0  0
 20 27  1  0  0  0  0
 22 23  1  1  0  0  0
 22 29  1  0  0  0  0
 24  2  1  6  0  0  0
 24 31  1  0  0  0  0
 25 26  1  0  0  0  0
 25 33  1  6  0  0  0
 27 28  1  1  0  0  0
 27 35  1  0  0  0  0
 29 30  1  0  0  0  0
 29 37  1  1  0  0  0
 31 32  1  1  0  0  0
 31 39  1  0  0  0  0
 33 34  1  0  0  0  0
 35 36  1  0  0  0  0
 35 41  1  6  0  0  0
 37 38  1  0  0  0  0
 39 40  1  6  0  0  0
 41 42  1  0  0  0  0
M  END
>  <CHROM.1>
161.94760919,-144.50074167,-63.31410019,68.38902765,58.96844581,-82.93278292
61.28578038,167.63423241,142.71992588,161.94523883,62.42953736,175.34686718
177.10312198,166.17340056,61.84602212,-51.79736600,-160.23609246,63.46727241
-72.76713657,-58.56045686,-179.72377573,113.30259377,6.22339862,6.08392343
27.35389175,-2.69528379,-0.44555132,-0.91507414

>  <Name>
1fyp_lig

>  <RI>
0

>  <Rbt.Current_Directory>
/home/itssahil/PROJECTS/Mol_Feturizer/New_Systems/rnas/1fyp

>  <Rbt.Executable>
rbdock ($Id: //depot/dev/client3/rdock/2013.1/src/exe/rbdock.cxx#4 $)

>  <Rbt.Library>
libRbt.so (2013.1, Build901 2013/11/27)

>  <Rbt.Parameter_File>
/export/apps/rDock/src/rDock_2013.1_src/data/scripts/dock_solv.prm

>  <Rbt.Receptor>
prm/pocket_docking_5.prm

>  <SCORE>
-51.0905

>  <SCORE.INTER>
-42.1359

>  <SCORE.INTER.CONST>
1

>  <SCORE.INTER.POLAR>
-5.18241

>  <SCORE.INTER.ROT>
14

>  <SCORE.INTER.SOLV>
16.5562

>  <SCORE.INTER.VDW>
-29.268

>  <SCORE.INTER.norm>
-1.00324

>  <SCORE.INTRA>
-8.95461

>  <SCORE.INTRA.DIHEDRAL>
-28.2695

>  <SCORE.INTRA.DIHEDRAL.0>
48.7173

>  <SCORE.INTRA.POLAR>
1.0713

>  <SCORE.INTRA.POLAR.0>
-1.54691

>  <SCORE.INTRA.REPUL>
0

>  <SCORE.INTRA.REPUL.0>
0

>  <SCORE.INTRA.SOLV>
-0.338509

>  <SCORE.INTRA.SOLV.lig_0>
-64.052

>  <SCORE.INTRA.VDW>
1.70696

>  <SCORE.INTRA.VDW.0>
-7.0667

>  <SCORE.INTRA.norm>
-0.213205

>  <SCORE.RESTR>
0

>  <SCORE.RESTR.CAVITY>
0

>  <SCORE.RESTR.norm>
0

>  <SCORE.SYSTEM>
0

>  <SCORE.SYSTEM.CONST>
0

>  <SCORE.SYSTEM.DIHEDRAL>
0

>  <SCORE.SYSTEM.SOLV>
0

>  <SCORE.SYSTEM.norm>
0

>  <SCORE.heavy>
42

>  <SCORE.norm>
-1.21644

>  <RMSD>
9.291

$$$$
1fyp_lig
 OpenBabel11021811393D
libRbt.so/2013.1/901 2013/11/27
 42 45  0  0  0  0  0  0  0  0999 V2000
    2.9321    1.5318   26.8705 C   0  0  2  0  0  0  0  0  0  0  0  0
    2.9191    2.6837   27.7622 O   0  0  0  0  0  0  0  0  0  0  0  0
    2.4388    2.7161   32.0059 C   0  0  2  0  0  0  0  0  0  0  0  0
    2.5857    2.5836   33.4672 N   0  0  0  0  0  0  0  0  0  0  0  0
    4.2750    5.3289   28.0741 C   0  0  1  0  0  0  0  0  0  0  0  0
    3.8871    8.1738   24.7059 C   0  0  1  0  0  0  0  0  0  0  0  0
    3.0923    1.9654   25.3777 C   0  0  2  0  0  0  0  0  0  0  0  0
    4.2359    2.8866   25.2066 N   0  0  0  0  0  0  0  0  0  0  0  0
    2.6754    1.3458   31.3402 C   0  0  0  0  0  0  0  0  0  0  0  0
    3.5541    6.6763   28.1663 C   0  0  2  0  0  0  0  0  0  0  0  0
    2.1647    6.4939   27.8910 O   0  0  0  0  0  0  0  0  0  0  0  0
    2.9719    7.9084   23.4718 C   0  0  2  0  0  0  0  0  0  0  0  0
    2.9786    6.4860   23.0507 N   0  0  0  0  0  0  0  0  0  0  0  0
    1.7814    2.6251   24.8464 C   0  0  1  0  0  0  0  0  0  0  0  0
    1.8865    2.8696   23.4461 O   0  0  0  0  0  0  0  0  0  0  0  0
    2.5091    1.4054   29.7971 C   0  0  2  0  0  0  0  0  0  0  0  0
    2.8346    0.0694   29.2561 N   0  0  0  0  0  0  0  0  0  0  0  0
    4.2407    7.4760   27.0557 C   0  0  2  0  0  0  0  0  0  0  0  0
    3.6652    7.1908   25.7504 O   0  0  0  0  0  0  0  0  0  0  0  0
    3.3476    8.8522   22.2881 C   0  0  1  0  0  0  0  0  0  0  0  0
    2.8963   10.1691   22.5973 O   0  0  0  0  0  0  0  0  0  0  0  0
    0.5425    1.7296   25.0985 C   0  0  2  0  0  0  0  0  0  0  0  0
   -0.6273    2.4249   24.6778 O   0  0  0  0  0  0  0  0  0  0  0  0
    3.3888    2.5241   29.1316 C   0  0  2  0  0  0  0  0  0  0  0  0
    5.6845    6.9604   27.1333 C   0  0  2  0  0  0  0  0  0  0  0  0
    5.5921    5.5880   27.5624 O   0  0  0  0  0  0  0  0  0  0  0  0
    4.8757    8.9184   21.9873 C   0  0  2  0  0  0  0  0  0  0  0  0
    5.2690    7.6955   21.3624 O   0  0  0  0  0  0  0  0  0  0  0  0
    0.4445    1.3544   26.6044 C   0  0  2  0  0  0  0  0  0  0  0  0
    1.7021    0.7476   27.0289 O   0  0  0  0  0  0  0  0  0  0  0  0
    3.2923    3.9034   29.8787 C   0  0  2  0  0  0  0  0  0  0  0  0
    4.3728    4.7494   29.4061 O   0  0  0  0  0  0  0  0  0  0  0  0
    6.5597    7.7630   28.1124 C   0  0  0  0  0  0  0  0  0  0  0  0
    7.8768    7.2423   28.1559 O   0  0  0  0  0  0  0  0  0  0  0  0
    5.6896    9.1387   23.3000 C   0  0  1  0  0  0  0  0  0  0  0  0
    5.2960    8.1440   24.2941 O   0  0  0  0  0  0  0  0  0  0  0  0
   -0.6726    0.3445   26.9499 C   0  0  0  0  0  0  0  0  0  0  0  0
   -0.2511   -0.9889   26.7177 O   0  0  0  0  0  0  0  0  0  0  0  0
    3.4175    3.7666   31.4280 C   0  0  1  0  0  0  0  0  0  0  0  0
    3.1486    5.0347   32.0241 O   0  0  0  0  0  0  0  0  0  0  0  0
    7.2211    9.0510   23.0760 C   0  0  0  0  0  0  0  0  0  0  0  0
    7.6963   10.0024   22.0552 N   0  0  0  0  0  0  0  0  0  0  0  0
  1  2  1  1  0  0  0
  1  7  1  0  0  0  0
  1 30  1  0  0  0  0
  3  4  1  1  0  0  0
  3  9  1  0  0  0  0
  3 39  1  0  0  0  0
  5 10  1  0  0  0  0
  5 26  1  0  0  0  0
  5 32  1  1  0  0  0
  6 12  1  0  0  0  0
  6 36  1  0  0  0  0
  6 19  1  1  0  0  0
  7  8  1  1  0  0  0
  7 14  1  0  0  0  0
  9 16  1  0  0  0  0
 10 11  1  6  0  0  0
 10 18  1  0  0  0  0
 12 13  1  6  0  0  0
 12 20  1  0  0  0  0
 14 15  1  6  0  0  0
 14 22  1  0  0  0  0
 16 17  1  6  0  0  0
 16 24  1  0  0  0  0
 18 19  1  6  0  0  0
 18 25  1  0  0  0  0
 20 21  1  1  0  0  0
 20 27  1  0  0  0  0
 22 23  1  1  0  0  0
 22 29  1  0  0  0  0
 24  2  1  6  0  0  0
 24 31  1  0  0  0  0
 25 26  1  0  0  0  0
 25 33  1  1  0  0  0
 27 28  1  1  0  0  0
 27 35  1  0  0  0  0
 29 30  1  0  0  0  0
 29 37  1  6  0  0  0
 31 32  1  6  0  0  0
 31 39  1  0  0  0  0
 33 34  1  0  0  0  0
 35 36  1  0  0  0  0
 35 41  1  6  0  0  0
 37 38  1  0  0  0  0
 39 40  1  1  0  0  0
 41 42  1  0  0  0  0
M  END
>  <CHROM.1>
-151.91628075,-57.99846127,-53.63716198,127.40207276,75.32321295,72.41414050
53.53735786,7.79563146,159.64605169,-167.52729744,63.88823647,178.72040850
179.52898025,160.66529237,83.00862526,73.93565521,89.03053070,-54.16717648
56.49292363,-60.90469103,179.30924170,-50.16884478,3.43829593,4.84107823
26.60008449,2.16527852,0.92603587,1.95297523

>  <Name>
1fyp_lig

>  <RI>
0

>  <Rbt.Current_Directory>
/home/itssahil/PROJECTS/Mol_Feturizer/New_Systems/rnas/1fyp

>  <Rbt.Executable>
rbdock ($Id: //depot/dev/client3/rdock/2013.1/src/exe/rbdock.cxx#4 $)

>  <Rbt.Library>
libRbt.so (2013.1, Build901 2013/11/27)

>  <Rbt.Parameter_File>
/export/apps/rDock/src/rDock_2013.1_src/data/scripts/dock_solv.prm

>  <Rbt.Receptor>
prm/blind_docking_40.prm

>  <SCORE>
-39.6853

>  <SCORE.INTER>
-32.9309

>  <SCORE.INTER.CONST>
1

>  <SCORE.INTER.POLAR>
-3.54803

>  <SCORE.INTER.ROT>
14

>  <SCORE.INTER.SOLV>
22.344

>  <SCORE.INTER.VDW>
-30.5085

>  <SCORE.INTER.norm>
-0.784069

>  <SCORE.INTRA>
-7.15385

>  <SCORE.INTRA.DIHEDRAL>
-27.9794

>  <SCORE.INTRA.DIHEDRAL.0>
48.7173

>  <SCORE.INTRA.POLAR>
1.24042

>  <SCORE.INTRA.POLAR.0>
-1.54691

>  <SCORE.INTRA.REPUL>
0

>  <SCORE.INTRA.REPUL.0>
0

>  <SCORE.INTRA.SOLV>
-2.3258

>  <SCORE.INTRA.SOLV.lig_0>
-64.052

>  <SCORE.INTRA.VDW>
3.78134

>  <SCORE.INTRA.VDW.0>
-7.0667

>  <SCORE.INTRA.norm>
-0.17033

>  <SCORE.RESTR>
0.399485

>  <SCORE.RESTR.CAVITY>
0.399485

>  <SCORE.RESTR.norm>
0.00951154

>  <SCORE.SYSTEM>
0

>  <SCORE.SYSTEM.CONST>
0

>  <SCORE.SYSTEM.DIHEDRAL>
0

>  <SCORE.SYSTEM.SOLV>
0

>  <SCORE.SYSTEM.norm>
0

>  <SCORE.heavy>
42

>  <SCORE.norm>
-0.944887

>  <RMSD>
9.344

$$$$
1fyp_lig
 OpenBabel11021811393D
libRbt.so/2013.1/901 2013/11/27
 42 45  0  0  0  0  0  0  0  0999 V2000
    3.7462    4.1150   26.0932 C   0  0  2  0  0  0  0  0  0  0  0  0
    3.0689    4.9303   25.0937 O   0  0  0  0  0  0  0  0  0  0  0  0
    5.1548    8.3571   23.6285 C   0  0  2  0  0  0  0  0  0  0  0  0
    5.6331    9.7121   23.2972 N   0  0  0  0  0  0  0  0  0  0  0  0
    6.1580    6.2048   27.5846 C   0  0  1  0  0  0  0  0  0  0  0  0
    9.0557    7.4754   29.8748 C   0  0  1  0  0  0  0  0  0  0  0  0
    3.7879    2.6107   25.6722 C   0  0  2  0  0  0  0  0  0  0  0  0
    4.3076    2.4528   24.2972 N   0  0  0  0  0  0  0  0  0  0  0  0
    3.6645    8.2333   23.2533 C   0  0  0  0  0  0  0  0  0  0  0  0
    6.2235    6.9632   28.9129 C   0  0  2  0  0  0  0  0  0  0  0  0
    6.8920    8.2101   28.7179 O   0  0  0  0  0  0  0  0  0  0  0  0
   10.6137    7.4187   29.9000 C   0  0  2  0  0  0  0  0  0  0  0  0
   11.1310    6.2530   30.6576 N   0  0  0  0  0  0  0  0  0  0  0  0
    2.3749    1.9594   25.7952 C   0  0  1  0  0  0  0  0  0  0  0  0
    2.4585    0.5556   25.5624 O   0  0  0  0  0  0  0  0  0  0  0  0
    3.0991    6.8176   23.5509 C   0  0  2  0  0  0  0  0  0  0  0  0
    1.6560    6.8319   23.2333 N   0  0  0  0  0  0  0  0  0  0  0  0
    7.0590    6.0134   29.7755 C   0  0  2  0  0  0  0  0  0  0  0  0
    8.4846    6.1836   29.5403 O   0  0  0  0  0  0  0  0  0  0  0  0
   11.2097    8.7555   30.4393 C   0  0  1  0  0  0  0  0  0  0  0  0
   11.0581    9.7571   29.4356 O   0  0  0  0  0  0  0  0  0  0  0  0
    1.7537    2.1905   27.1956 C   0  0  2  0  0  0  0  0  0  0  0  0
    0.4336    1.6558   27.2127 O   0  0  0  0  0  0  0  0  0  0  0  0
    3.3566    6.3567   25.0306 C   0  0  2  0  0  0  0  0  0  0  0  0
    6.5915    4.6365   29.2835 C   0  0  2  0  0  0  0  0  0  0  0  0
    6.2607    4.8051   27.8913 O   0  0  0  0  0  0  0  0  0  0  0  0
   10.5366    9.2703   31.7477 C   0  0  2  0  0  0  0  0  0  0  0  0
   10.9613    8.4438   32.8326 O   0  0  0  0  0  0  0  0  0  0  0  0
    1.7342    3.7081   27.5342 C   0  0  2  0  0  0  0  0  0  0  0  0
    3.0836    4.2464   27.3958 O   0  0  0  0  0  0  0  0  0  0  0  0
    4.8343    6.6106   25.5019 C   0  0  2  0  0  0  0  0  0  0  0  0
    4.8773    6.4732   26.9462 O   0  0  0  0  0  0  0  0  0  0  0  0
    5.3724    4.1021   30.0560 C   0  0  0  0  0  0  0  0  0  0  0  0
    4.8266    2.9634   29.4132 O   0  0  0  0  0  0  0  0  0  0  0  0
    8.9818    9.2365   31.6211 C   0  0  1  0  0  0  0  0  0  0  0  0
    8.5540    7.9104   31.1842 O   0  0  0  0  0  0  0  0  0  0  0  0
    1.2678    4.0469   28.9677 C   0  0  0  0  0  0  0  0  0  0  0  0
    2.2286    3.6462   29.9299 O   0  0  0  0  0  0  0  0  0  0  0  0
    5.3565    8.0326   25.1283 C   0  0  1  0  0  0  0  0  0  0  0  0
    6.7467    8.1079   25.4405 O   0  0  0  0  0  0  0  0  0  0  0  0
    8.2658    9.5861   32.9509 C   0  0  0  0  0  0  0  0  0  0  0  0
    6.8076    9.3839   32.8754 N   0  0  0  0  0  0  0  0  0  0  0  0
  1  2  1  6  0  0  0
  1  7  1  0  0  0  0
  1 30  1  0  0  0  0
  3  4  1  1  0  0  0
  3  9  1  0  0  0  0
  3 39  1  0  0  0  0
  5 10  1  0  0  0  0
  5 26  1  0  0  0  0
  5 32  1  1  0  0  0
  6 12  1  0  0  0  0
  6 36  1  0  0  0  0
  6 19  1  1  0  0  0
  7  8  1  6  0  0  0
  7 14  1  0  0  0  0
  9 16  1  0  0  0  0
 10 11  1  6  0  0  0
 10 18  1  0  0  0  0
 12 13  1  1  0  0  0
 12 20  1  0  0  0  0
 14 15  1  1  0  0  0
 14 22  1  0  0  0  0
 16 17  1  1  0  0  0
 16 24  1  0  0  0  0
 18 19  1  6  0  0  0
 18 25  1  0  0  0  0
 20 21  1  6  0  0  0
 20 27  1  0  0  0  0
 22 23  1  6  0  0  0
 22 29  1  0  0  0  0
 24  2  1  6  0  0  0
 24 31  1  0  0  0  0
 25 26  1  0  0  0  0
 25 33  1  1  0  0  0
 27 28  1  1  0  0  0
 27 35  1  0  0  0  0
 29 30  1  0  0  0  0
 29 37  1  1  0  0  0
 31 32  1  1  0  0  0
 31 39  1  0  0  0  0
 33 34  1  0  0  0  0
 35 36  1  0  0  0  0
 35 41  1  1  0  0  0
 37 38  1  0  0  0  0
 39 40  1  6  0  0  0
 41 42  1  0  0  0  0
M  END
>  <CHROM.1>
-156.86272111,152.83911606,-31.16895346,100.41251669,109.81775693,76.72828848
47.62844277,77.15304080,63.04537154,166.44833584,-54.32327882,-175.09063131
169.02165326,-42.18810774,70.00838632,159.20168554,142.84814958,-62.45160354
-172.58225703,-54.33684785,-54.61711889,-61.57995632,5.70386377,6.05244556
27.88588427,2.97299111,-0.76577042,-0.95479034

>  <Name>
1fyp_lig

>  <RI>
0

>  <Rbt.Current_Directory>
/home/itssahil/PROJECTS/Mol_Feturizer/New_Systems/rnas/1fyp

>  <Rbt.Executable>
rbdock ($Id: //depot/dev/client3/rdock/2013.1/src/exe/rbdock.cxx#4 $)

>  <Rbt.Library>
libRbt.so (2013.1, Build901 2013/11/27)

>  <Rbt.Parameter_File>
/export/apps/rDock/src/rDock_2013.1_src/data/scripts/dock_solv.prm

>  <Rbt.Receptor>
prm/pocket_docking_8.prm

>  <SCORE>
-50.3433

>  <SCORE.INTER>
-43.5385

>  <SCORE.INTER.CONST>
1

>  <SCORE.INTER.POLAR>
-6.87149

>  <SCORE.INTER.ROT>
14

>  <SCORE.INTER.SOLV>
15.8488

>  <SCORE.INTER.VDW>
-24.337

>  <SCORE.INTER.norm>
-1.03663

>  <SCORE.INTRA>
-6.80476

>  <SCORE.INTRA.DIHEDRAL>
-21.4872

>  <SCORE.INTRA.DIHEDRAL.0>
48.7173

>  <SCORE.INTRA.POLAR>
-0.173688

>  <SCORE.INTRA.POLAR.0>
-1.54691

>  <SCORE.INTRA.REPUL>
0.000633073

>  <SCORE.INTRA.REPUL.0>
0

>  <SCORE.INTRA.SOLV>
0.159469

>  <SCORE.INTRA.SOLV.lig_0>
-64.052

>  <SCORE.INTRA.VDW>
4.4465

>  <SCORE.INTRA.VDW.0>
-7.0667

>  <SCORE.INTRA.norm>
-0.162018

>  <SCORE.RESTR>
0

>  <SCORE.RESTR.CAVITY>
0

>  <SCORE.RESTR.norm>
0

>  <SCORE.SYSTEM>
0

>  <SCORE.SYSTEM.CONST>
0

>  <SCORE.SYSTEM.DIHEDRAL>
0

>  <SCORE.SYSTEM.SOLV>
0

>  <SCORE.SYSTEM.norm>
0

>  <SCORE.heavy>
42

>  <SCORE.norm>
-1.19865

>  <RMSD>
9.344

$$$$
1fyp_lig
 OpenBabel11021811393D
libRbt.so/2013.1/901 2013/11/27
 42 45  0  0  0  0  0  0  0  0999 V2000
    0.3127    3.0510   27.6493 C   0  0  2  0  0  0  0  0  0  0  0  0
    1.4918    2.8376   28.4778 O   0  0  0  0  0  0  0  0  0  0  0  0
    5.7198    2.5332   27.9560 C   0  0  2  0  0  0  0  0  0  0  0  0
    7.0957    2.1549   27.5841 N   0  0  0  0  0  0  0  0  0  0  0  0
    3.0655    4.9343   25.1397 C   0  0  1  0  0  0  0  0  0  0  0  0
    3.9034    8.3751   23.7279 C   0  0  1  0  0  0  0  0  0  0  0  0
   -0.7561    3.9197   28.3876 C   0  0  2  0  0  0  0  0  0  0  0  0
   -0.1578    5.1566   28.9335 N   0  0  0  0  0  0  0  0  0  0  0  0
    5.0032    1.3171   28.5760 C   0  0  0  0  0  0  0  0  0  0  0  0
    1.8173    5.4248   24.4013 C   0  0  2  0  0  0  0  0  0  0  0  0
    1.8297    4.9294   23.0620 O   0  0  0  0  0  0  0  0  0  0  0  0
    4.0818    9.4459   22.6087 C   0  0  2  0  0  0  0  0  0  0  0  0
    4.1932    8.8462   21.2566 N   0  0  0  0  0  0  0  0  0  0  0  0
   -1.4461    3.1041   29.5254 C   0  0  1  0  0  0  0  0  0  0  0  0
   -2.5237    3.8523   30.0828 O   0  0  0  0  0  0  0  0  0  0  0  0
    3.5524    1.6520   29.0178 C   0  0  2  0  0  0  0  0  0  0  0  0
    2.9343    0.4069   29.5192 N   0  0  0  0  0  0  0  0  0  0  0  0
    2.0099    6.9434   24.4343 C   0  0  2  0  0  0  0  0  0  0  0  0
    2.8906    7.3991   23.3697 O   0  0  0  0  0  0  0  0  0  0  0  0
    5.2948   10.3764   22.9182 C   0  0  1  0  0  0  0  0  0  0  0  0
    4.9337   11.2530   23.9835 O   0  0  0  0  0  0  0  0  0  0  0  0
   -1.9998    1.7517   29.0107 C   0  0  2  0  0  0  0  0  0  0  0  0
   -2.5309    1.0180   30.1099 O   0  0  0  0  0  0  0  0  0  0  0  0
    2.6972    2.2942   27.8670 C   0  0  2  0  0  0  0  0  0  0  0  0
    2.6665    7.1549   25.8056 C   0  0  2  0  0  0  0  0  0  0  0  0
    3.4500    5.9719   26.0559 O   0  0  0  0  0  0  0  0  0  0  0  0
    6.5914    9.6157   23.3307 C   0  0  2  0  0  0  0  0  0  0  0  0
    7.1437    8.9958   22.1683 O   0  0  0  0  0  0  0  0  0  0  0  0
   -0.8761    0.9418   28.3038 C   0  0  2  0  0  0  0  0  0  0  0  0
   -0.2779    1.7660   27.2584 O   0  0  0  0  0  0  0  0  0  0  0  0
    3.4574    3.4409   27.1070 C   0  0  2  0  0  0  0  0  0  0  0  0
    2.7358    3.7249   25.8802 O   0  0  0  0  0  0  0  0  0  0  0  0
    1.6449    7.3622   26.9379 C   0  0  0  0  0  0  0  0  0  0  0  0
    2.2725    7.2805   28.2056 O   0  0  0  0  0  0  0  0  0  0  0  0
    6.2808    8.5410   24.4184 C   0  0  1  0  0  0  0  0  0  0  0  0
    5.1805    7.6925   23.9693 O   0  0  0  0  0  0  0  0  0  0  0  0
   -1.3470   -0.3628   27.6231 C   0  0  0  0  0  0  0  0  0  0  0  0
   -0.2495   -1.1989   27.2976 O   0  0  0  0  0  0  0  0  0  0  0  0
    4.9238    3.0575   26.7366 C   0  0  1  0  0  0  0  0  0  0  0  0
    5.5803    4.2093   26.2092 O   0  0  0  0  0  0  0  0  0  0  0  0
    7.5061    7.6494   24.7452 C   0  0  0  0  0  0  0  0  0  0  0  0
    8.6364    8.4231   25.2899 N   0  0  0  0  0  0  0  0  0  0  0  0
  1  2  1  1  0  0  0
  1  7  1  0  0  0  0
  1 30  1  0  0  0  0
  3  4  1  6  0  0  0
  3  9  1  0  0  0  0
  3 39  1  0  0  0  0
  5 10  1  0  0  0  0
  5 26  1  0  0  0  0
  5 32  1  1  0  0  0
  6 12  1  0  0  0  0
  6 36  1  0  0  0  0
  6 19  1  6  0  0  0
  7  8  1  1  0  0  0
  7 14  1  0  0  0  0
  9 16  1  0  0  0  0
 10 11  1  6  0  0  0
 10 18  1  0  0  0  0
 12 13  1  6  0  0  0
 12 20  1  0  0  0  0
 14 15  1  6  0  0  0
 14 22  1  0  0  0  0
 16 17  1  6  0  0  0
 16 24  1  0  0  0  0
 18 19  1  6  0  0  0
 18 25  1  0  0  0  0
 20 21  1  1  0  0  0
 20 27  1  0  0  0  0
 22 23  1  1  0  0  0
 22 29  1  0  0  0  0
 24  2  1  1  0  0  0
 24 31  1  0  0  0  0
 25 26  1  0  0  0  0
 25 33  1  1  0  0  0
 27 28  1  6  0  0  0
 27 35  1  0  0  0  0
 29 30  1  0  0  0  0
 29 37  1  6  0  0  0
 31 32  1  6  0  0  0
 31 39  1  0  0  0  0
 33 34  1  0  0  0  0
 35 36  1  0  0  0  0
 35 41  1  6  0  0  0
 37 38  1  0  0  0  0
 39 40  1  1  0  0  0
 41 42  1  0  0  0  0
M  END
>  <CHROM.1>
-167.36983356,-157.86414344,92.03094675,-29.04412959,54.21083524,35.63854609
-42.85230273,-125.24594584,-135.65156531,-140.92576198,-55.34994387,-177.92615394
168.10065916,-44.52120639,-165.44378333,166.93964194,-150.11671139,69.15314913
61.71814094,61.68729601,155.58640798,-128.42704588,2.82529243,4.93297245
26.30246662,2.15081969,-0.12825145,2.60675297

>  <Name>
1fyp_lig

>  <RI>
0

>  <Rbt.Current_Directory>
/home/itssahil/PROJECTS/Mol_Feturizer/New_Systems/rnas/1fyp

>  <Rbt.Executable>
rbdock ($Id: //depot/dev/client3/rdock/2013.1/src/exe/rbdock.cxx#4 $)

>  <Rbt.Library>
libRbt.so (2013.1, Build901 2013/11/27)

>  <Rbt.Parameter_File>
/export/apps/rDock/src/rDock_2013.1_src/data/scripts/dock_solv.prm

>  <Rbt.Receptor>
prm/blind_docking_80.prm

>  <SCORE>
17.4165

>  <SCORE.INTER>
18.5111

>  <SCORE.INTER.CONST>
1

>  <SCORE.INTER.POLAR>
-3.53478

>  <SCORE.INTER.ROT>
14

>  <SCORE.INTER.SOLV>
30.7381

>  <SCORE.INTER.VDW>
0.943981

>  <SCORE.INTER.norm>
0.440741

>  <SCORE.INTRA>
-1.09466

>  <SCORE.INTRA.DIHEDRAL>
-14.919

>  <SCORE.INTRA.DIHEDRAL.0>
48.7173

>  <SCORE.INTRA.POLAR>
0.63251

>  <SCORE.INTRA.POLAR.0>
-1.54691

>  <SCORE.INTRA.REPUL>
0

>  <SCORE.INTRA.REPUL.0>
0

>  <SCORE.INTRA.SOLV>
-2.44928

>  <SCORE.INTRA.SOLV.lig_0>
-64.052

>  <SCORE.INTRA.VDW>
5.43897

>  <SCORE.INTRA.VDW.0>
-7.0667

>  <SCORE.INTRA.norm>
-0.0260633

>  <SCORE.RESTR>
0

>  <SCORE.RESTR.CAVITY>
0

>  <SCORE.RESTR.norm>
0

>  <SCORE.SYSTEM>
0

>  <SCORE.SYSTEM.CONST>
0

>  <SCORE.SYSTEM.DIHEDRAL>
0

>  <SCORE.SYSTEM.SOLV>
0

>  <SCORE.SYSTEM.norm>
0

>  <SCORE.heavy>
42

>  <SCORE.norm>
0.414677

>  <RMSD>
9.364

$$$$
1fyp_lig
 OpenBabel11021811393D
libRbt.so/2013.1/901 2013/11/27
 42 45  0  0  0  0  0  0  0  0999 V2000
    0.7700    3.7175   28.8572 C   0  0  2  0  0  0  0  0  0  0  0  0
    0.6942    3.3963   30.2761 O   0  0  0  0  0  0  0  0  0  0  0  0
    3.8802    4.2330   32.9947 C   0  0  2  0  0  0  0  0  0  0  0  0
    5.0504    4.1876   33.8907 N   0  0  0  0  0  0  0  0  0  0  0  0
    4.1285    4.6729   28.3784 C   0  0  1  0  0  0  0  0  0  0  0  0
    4.9915    7.5959   25.2186 C   0  0  1  0  0  0  0  0  0  0  0  0
   -0.6394    3.6708   28.1837 C   0  0  2  0  0  0  0  0  0  0  0  0
   -1.6231    4.4723   28.9425 N   0  0  0  0  0  0  0  0  0  0  0  0
    2.8689    3.1483   33.4163 C   0  0  0  0  0  0  0  0  0  0  0  0
    3.6250    4.4936   26.9438 C   0  0  2  0  0  0  0  0  0  0  0  0
    4.5520    3.6931   26.2093 O   0  0  0  0  0  0  0  0  0  0  0  0
    3.8259    7.6883   24.1871 C   0  0  2  0  0  0  0  0  0  0  0  0
    3.6529    6.4388   23.4068 N   0  0  0  0  0  0  0  0  0  0  0  0
   -1.1375    2.1989   28.0377 C   0  0  1  0  0  0  0  0  0  0  0  0
   -2.3457    2.1613   27.2822 O   0  0  0  0  0  0  0  0  0  0  0  0
    1.5941    3.1564   32.5291 C   0  0  2  0  0  0  0  0  0  0  0  0
    0.7350    2.0352   32.9630 N   0  0  0  0  0  0  0  0  0  0  0  0
    3.6109    5.9372   26.4336 C   0  0  2  0  0  0  0  0  0  0  0  0
    4.9265    6.3627   25.9814 O   0  0  0  0  0  0  0  0  0  0  0  0
    4.0099    8.9216   23.2499 C   0  0  1  0  0  0  0  0  0  0  0  0
    3.7189   10.1033   23.9931 O   0  0  0  0  0  0  0  0  0  0  0  0
   -0.0881    1.3026   27.3336 C   0  0  2  0  0  0  0  0  0  0  0  0
   -0.5613   -0.0407   27.3151 O   0  0  0  0  0  0  0  0  0  0  0  0
    1.9187    3.0702   30.9943 C   0  0  2  0  0  0  0  0  0  0  0  0
    3.1927    6.7175   27.6876 C   0  0  2  0  0  0  0  0  0  0  0  0
    3.7269    5.9840   28.8067 O   0  0  0  0  0  0  0  0  0  0  0  0
    5.4439    9.0604   22.6548 C   0  0  2  0  0  0  0  0  0  0  0  0
    5.6192    8.0569   21.6534 O   0  0  0  0  0  0  0  0  0  0  0  0
    1.2790    1.3914   28.0694 C   0  0  2  0  0  0  0  0  0  0  0  0
    1.6777    2.7916   28.1703 O   0  0  0  0  0  0  0  0  0  0  0  0
    3.0588    4.0581   30.5538 C   0  0  2  0  0  0  0  0  0  0  0  0
    3.5073    3.6683   29.2297 O   0  0  0  0  0  0  0  0  0  0  0  0
    1.6667    6.8599   27.8283 C   0  0  0  0  0  0  0  0  0  0  0  0
    1.3346    7.6341   28.9676 O   0  0  0  0  0  0  0  0  0  0  0  0
    6.5240    8.9033   23.7698 C   0  0  1  0  0  0  0  0  0  0  0  0
    6.2800    7.6739   24.5193 O   0  0  0  0  0  0  0  0  0  0  0  0
    2.4408    0.6500   27.3710 C   0  0  0  0  0  0  0  0  0  0  0  0
    3.6747    0.8953   28.0243 O   0  0  0  0  0  0  0  0  0  0  0  0
    4.2880    4.0363   31.5146 C   0  0  1  0  0  0  0  0  0  0  0  0
    5.1865    5.0774   31.1345 O   0  0  0  0  0  0  0  0  0  0  0  0
    7.9671    8.8729   23.2045 C   0  0  0  0  0  0  0  0  0  0  0  0
    8.9633    8.4959   24.2236 N   0  0  0  0  0  0  0  0  0  0  0  0
  1  2  1  1  0  0  0
  1  7  1  0  0  0  0
  1 30  1  0  0  0  0
  3  4  1  1  0  0  0
  3  9  1  0  0  0  0
  3 39  1  0  0  0  0
  5 10  1  0  0  0  0
  5 26  1  0  0  0  0
  5 32  1  1  0  0  0
  6 12  1  0  0  0  0
  6 36  1  0  0  0  0
  6 19  1  6  0  0  0
  7  8  1  1  0  0  0
  7 14  1  0  0  0  0
  9 16  1  0  0  0  0
 10 11  1  6  0  0  0
 10 18  1  0  0  0  0
 12 13  1  6  0  0  0
 12 20  1  0  0  0  0
 14 15  1  6  0  0  0
 14 22  1  0  0  0  0
 16 17  1  1  0  0  0
 16 24  1  0  0  0  0
 18 19  1  1  0  0  0
 18 25  1  0  0  0  0
 20 21  1  1  0  0  0
 20 27  1  0  0  0  0
 22 23  1  1  0  0  0
 22 29  1  0  0  0  0
 24  2  1  6  0  0  0
 24 31  1  0  0  0  0
 25 26  1  0  0  0  0
 25 33  1  1  0  0  0
 27 28  1  6  0  0  0
 27 35  1  0  0  0  0
 29 30  1  0  0  0  0
 29 37  1  6  0  0  0
 31 32  1  6  0  0  0
 31 39  1  0  0  0  0
 33 34  1  0  0  0  0
 35 36  1  0  0  0  0
 35 41  1  6  0  0  0
 37 38  1  0  0  0  0
 39 40  1  6  0  0  0
 41 42  1  0  0  0  0
M  END
>  <CHROM.1>
165.12718453,164.99145207,76.87262167,127.25150509,73.43407201,-40.85091075
-63.49148679,175.53595826,167.28396854,-41.91507496,66.84814071,55.64054034
-177.52824679,60.03774799,173.79926879,155.35981499,-139.23192135,-40.11838458
-170.20730176,-47.89501524,-56.50930982,41.02672402,3.04825330,4.93118098
27.70775831,2.16986759,0.62287725,1.90703421

>  <Name>
1fyp_lig

>  <RI>
0

>  <Rbt.Current_Directory>
/home/itssahil/PROJECTS/Mol_Feturizer/New_Systems/rnas/1fyp

>  <Rbt.Executable>
rbdock ($Id: //depot/dev/client3/rdock/2013.1/src/exe/rbdock.cxx#4 $)

>  <Rbt.Library>
libRbt.so (2013.1, Build901 2013/11/27)

>  <Rbt.Parameter_File>
/export/apps/rDock/src/rDock_2013.1_src/data/scripts/dock_solv.prm

>  <Rbt.Receptor>
prm/pocket_docking_8.prm

>  <SCORE>
-57.4068

>  <SCORE.INTER>
-49.4944

>  <SCORE.INTER.CONST>
1

>  <SCORE.INTER.POLAR>
-5.50339

>  <SCORE.INTER.ROT>
14

>  <SCORE.INTER.SOLV>
17.6902

>  <SCORE.INTER.VDW>
-33.4817

>  <SCORE.INTER.norm>
-1.17844

>  <SCORE.INTRA>
-7.94647

>  <SCORE.INTRA.DIHEDRAL>
-27.795

>  <SCORE.INTRA.DIHEDRAL.0>
48.7173

>  <SCORE.INTRA.POLAR>
0.216324

>  <SCORE.INTRA.POLAR.0>
-1.54691

>  <SCORE.INTRA.REPUL>
0.0715721

>  <SCORE.INTRA.REPUL.0>
0

>  <SCORE.INTRA.SOLV>
-0.544589

>  <SCORE.INTRA.SOLV.lig_0>
-64.052

>  <SCORE.INTRA.VDW>
5.12999

>  <SCORE.INTRA.VDW.0>
-7.0667

>  <SCORE.INTRA.norm>
-0.189202

>  <SCORE.RESTR>
0.0340753

>  <SCORE.RESTR.CAVITY>
0.0340753

>  <SCORE.RESTR.norm>
0.000811316

>  <SCORE.SYSTEM>
0

>  <SCORE.SYSTEM.CONST>
0

>  <SCORE.SYSTEM.DIHEDRAL>
0

>  <SCORE.SYSTEM.SOLV>
0

>  <SCORE.SYSTEM.norm>
0

>  <SCORE.heavy>
42

>  <SCORE.norm>
-1.36683

>  <RMSD>
9.373

$$$$
1fyp_lig
 OpenBabel11021811393D
libRbt.so/2013.1/901 2013/11/27
 42 45  0  0  0  0  0  0  0  0999 V2000
    2.5796    3.9100   27.6936 C   0  0  2  0  0  0  0  0  0  0  0  0
    2.4325    4.4806   26.3612 O   0  0  0  0  0  0  0  0  0  0  0  0
    2.4517    8.2180   24.2942 C   0  0  2  0  0  0  0  0  0  0  0  0
    2.6654    9.6040   23.8384 N   0  0  0  0  0  0  0  0  0  0  0  0
    5.7470    5.5874   25.8161 C   0  0  1  0  0  0  0  0  0  0  0  0
    8.9305    6.8256   28.3244 C   0  0  1  0  0  0  0  0  0  0  0  0
    3.1583    2.4596   27.6343 C   0  0  2  0  0  0  0  0  0  0  0  0
    4.3806    2.4033   26.8046 N   0  0  0  0  0  0  0  0  0  0  0  0
    1.9519    8.2290   25.7526 C   0  0  0  0  0  0  0  0  0  0  0  0
    7.1223    4.9827   25.5214 C   0  0  2  0  0  0  0  0  0  0  0  0
    7.2353    3.7155   26.1702 O   0  0  0  0  0  0  0  0  0  0  0  0
   10.0889    7.4331   27.4758 C   0  0  2  0  0  0  0  0  0  0  0  0
   10.9136    6.3959   26.8091 N   0  0  0  0  0  0  0  0  0  0  0  0
    2.0910    1.4566   27.0949 C   0  0  1  0  0  0  0  0  0  0  0  0
    2.5767    0.1203   27.1959 O   0  0  0  0  0  0  0  0  0  0  0  0
    1.6789    6.7980   26.2912 C   0  0  2  0  0  0  0  0  0  0  0  0
    1.2858    6.9173   27.7107 N   0  0  0  0  0  0  0  0  0  0  0  0
    8.0606    6.0156   26.1515 C   0  0  2  0  0  0  0  0  0  0  0  0
    8.2101    5.8064   27.5835 O   0  0  0  0  0  0  0  0  0  0  0  0
   10.9685    8.3886   28.3397 C   0  0  1  0  0  0  0  0  0  0  0  0
   10.2367    9.5896   28.5753 O   0  0  0  0  0  0  0  0  0  0  0  0
    0.7582    1.5568   27.8784 C   0  0  2  0  0  0  0  0  0  0  0  0
   -0.1990    0.6877   27.2807 O   0  0  0  0  0  0  0  0  0  0  0  0
    2.9078    5.8352   26.1151 C   0  0  2  0  0  0  0  0  0  0  0  0
    7.3231    7.3327   25.8727 C   0  0  2  0  0  0  0  0  0  0  0  0
    5.9187    7.0117   25.8918 O   0  0  0  0  0  0  0  0  0  0  0  0
   11.3880    7.7946   29.7185 C   0  0  2  0  0  0  0  0  0  0  0  0
   12.3856    6.7961   29.4984 O   0  0  0  0  0  0  0  0  0  0  0  0
    0.2408    3.0232   27.8791 C   0  0  2  0  0  0  0  0  0  0  0  0
    1.2890    3.8999   28.3916 O   0  0  0  0  0  0  0  0  0  0  0  0
    3.5430    5.9106   24.6794 C   0  0  2  0  0  0  0  0  0  0  0  0
    4.8400    5.2610   24.7250 O   0  0  0  0  0  0  0  0  0  0  0  0
    7.7035    7.9623   24.5208 C   0  0  0  0  0  0  0  0  0  0  0  0
    7.6877    9.3769   24.6001 O   0  0  0  0  0  0  0  0  0  0  0  0
   10.1582    7.1750   30.4521 C   0  0  1  0  0  0  0  0  0  0  0  0
    9.4720    6.2451   29.5594 O   0  0  0  0  0  0  0  0  0  0  0  0
   -1.0088    3.2699   28.7536 C   0  0  0  0  0  0  0  0  0  0  0  0
   -0.7505    2.9741   30.1157 O   0  0  0  0  0  0  0  0  0  0  0  0
    3.7444    7.3748   24.1792 C   0  0  1  0  0  0  0  0  0  0  0  0
    4.1611    7.3407   22.8150 O   0  0  0  0  0  0  0  0  0  0  0  0
   10.5511    6.4298   31.7534 C   0  0  0  0  0  0  0  0  0  0  0  0
    9.4298    5.6601   32.3220 N   0  0  0  0  0  0  0  0  0  0  0  0
  1  2  1  6  0  0  0
  1  7  1  0  0  0  0
  1 30  1  0  0  0  0
  3  4  1  1  0  0  0
  3  9  1  0  0  0  0
  3 39  1  0  0  0  0
  5 10  1  0  0  0  0
  5 26  1  0  0  0  0
  5 32  1  6  0  0  0
  6 12  1  0  0  0  0
  6 36  1  0  0  0  0
  6 19  1  6  0  0  0
  7  8  1  6  0  0  0
  7 14  1  0  0  0  0
  9 16  1  0  0  0  0
 10 11  1  1  0  0  0
 10 18  1  0  0  0  0
 12 13  1  1  0  0  0
 12 20  1  0  0  0  0
 14 15  1  1  0  0  0
 14 22  1  0  0  0  0
 16 17  1  1  0  0  0
 16 24  1  0  0  0  0
 18 19  1  1  0  0  0
 18 25  1  0  0  0  0
 20 21  1  1  0  0  0
 20 27  1  0  0  0  0
 22 23  1  6  0  0  0
 22 29  1  0  0  0  0
 24  2  1  6  0  0  0
 24 31  1  0  0  0  0
 25 26  1  0  0  0  0
 25 33  1  6  0  0  0
 27 28  1  6  0  0  0
 27 35  1  0  0  0  0
 29 30  1  0  0  0  0
 29 37  1  1  0  0  0
 31 32  1  1  0  0  0
 31 39  1  0  0  0  0
 33 34  1  0  0  0  0
 35 36  1  0  0  0  0
 35 41  1  1  0  0  0
 37 38  1  0  0  0  0
 39 40  1  6  0  0  0
 41 42  1  0  0  0  0
M  END
>  <CHROM.1>
-133.32090529,-94.99636489,84.66524568,-149.70412296,51.37920396,174.81713750
-66.34238696,67.17837848,-171.99393293,-34.99928979,-43.87452187,-54.72476762
-145.94093567,-82.30123293,61.04019529,-46.74779281,-170.06423933,-51.22240340
-170.47753643,-59.75423443,-174.93587983,-164.57765420,5.39427492,5.64720692
27.10908728,-2.95802678,-0.38491590,-0.79138984

>  <Name>
1fyp_lig

>  <RI>
0

>  <Rbt.Current_Directory>
/home/itssahil/PROJECTS/Mol_Feturizer/New_Systems/rnas/1fyp

>  <Rbt.Executable>
rbdock ($Id: //depot/dev/client3/rdock/2013.1/src/exe/rbdock.cxx#4 $)

>  <Rbt.Library>
libRbt.so (2013.1, Build901 2013/11/27)

>  <Rbt.Parameter_File>
/export/apps/rDock/src/rDock_2013.1_src/data/scripts/dock_solv.prm

>  <Rbt.Receptor>
prm/pocket_docking_4.prm

>  <SCORE>
-54.6409

>  <SCORE.INTER>
-48.627

>  <SCORE.INTER.CONST>
1

>  <SCORE.INTER.POLAR>
-6.35223

>  <SCORE.INTER.ROT>
14

>  <SCORE.INTER.SOLV>
17.3738

>  <SCORE.INTER.VDW>
-29.9685

>  <SCORE.INTER.norm>
-1.15779

>  <SCORE.INTRA>
-6.12333

>  <SCORE.INTRA.DIHEDRAL>
-22.4488

>  <SCORE.INTRA.DIHEDRAL.0>
48.7173

>  <SCORE.INTRA.POLAR>
0.186451

>  <SCORE.INTRA.POLAR.0>
-1.54691

>  <SCORE.INTRA.REPUL>
0.00414302

>  <SCORE.INTRA.REPUL.0>
0

>  <SCORE.INTRA.SOLV>
-1.42142

>  <SCORE.INTRA.SOLV.lig_0>
-64.052

>  <SCORE.INTRA.VDW>
5.15713

>  <SCORE.INTRA.VDW.0>
-7.0667

>  <SCORE.INTRA.norm>
-0.145794

>  <SCORE.RESTR>
0.109432

>  <SCORE.RESTR.CAVITY>
0.109432

>  <SCORE.RESTR.norm>
0.00260553

>  <SCORE.SYSTEM>
0

>  <SCORE.SYSTEM.CONST>
0

>  <SCORE.SYSTEM.DIHEDRAL>
0

>  <SCORE.SYSTEM.SOLV>
0

>  <SCORE.SYSTEM.norm>
0

>  <SCORE.heavy>
42

>  <SCORE.norm>
-1.30097

>  <RMSD>
9.377

$$$$
1fyp_lig
 OpenBabel11021811393D
libRbt.so/2013.1/901 2013/11/27
 42 45  0  0  0  0  0  0  0  0999 V2000
    4.9578    4.6702   26.4548 C   0  0  2  0  0  0  0  0  0  0  0  0
    4.1075    5.6195   25.7490 O   0  0  0  0  0  0  0  0  0  0  0  0
    4.0332    9.5867   24.1690 C   0  0  2  0  0  0  0  0  0  0  0  0
    4.1694   11.0332   23.9173 N   0  0  0  0  0  0  0  0  0  0  0  0
    7.2774    6.9029   25.8666 C   0  0  1  0  0  0  0  0  0  0  0  0
    9.6066    7.6664   29.1465 C   0  0  1  0  0  0  0  0  0  0  0  0
    4.5738    3.1942   26.1139 C   0  0  2  0  0  0  0  0  0  0  0  0
    4.5000    2.9832   24.6525 N   0  0  0  0  0  0  0  0  0  0  0  0
    3.3507    9.3655   25.5336 C   0  0  0  0  0  0  0  0  0  0  0  0
    8.6431    6.2152   25.7914 C   0  0  2  0  0  0  0  0  0  0  0  0
    8.5283    4.8731   26.2661 O   0  0  0  0  0  0  0  0  0  0  0  0
   11.1436    7.9097   29.2435 C   0  0  2  0  0  0  0  0  0  0  0  0
   11.9203    6.6468   29.2898 N   0  0  0  0  0  0  0  0  0  0  0  0
    3.2210    2.8021   26.7865 C   0  0  1  0  0  0  0  0  0  0  0  0
    2.9637    1.4126   26.5998 O   0  0  0  0  0  0  0  0  0  0  0  0
    3.1496    7.8588   25.8528 C   0  0  2  0  0  0  0  0  0  0  0  0
    2.5670    7.7582   27.2071 N   0  0  0  0  0  0  0  0  0  0  0  0
    9.4790    7.0727   26.7455 C   0  0  2  0  0  0  0  0  0  0  0  0
    9.2903    6.6771   28.1327 O   0  0  0  0  0  0  0  0  0  0  0  0
   11.4851    8.8304   30.4554 C   0  0  1  0  0  0  0  0  0  0  0  0
   11.0873   10.1627   30.1389 O   0  0  0  0  0  0  0  0  0  0  0  0
    3.2248    3.1025   28.3064 C   0  0  2  0  0  0  0  0  0  0  0  0
    1.9372    2.8114   28.8412 O   0  0  0  0  0  0  0  0  0  0  0  0
    4.4779    7.0280   25.7363 C   0  0  2  0  0  0  0  0  0  0  0  0
    8.9068    8.4761   26.5019 C   0  0  2  0  0  0  0  0  0  0  0  0
    7.5166    8.2855   26.1752 O   0  0  0  0  0  0  0  0  0  0  0  0
   10.7870    8.4160   31.7861 C   0  0  2  0  0  0  0  0  0  0  0  0
   11.4211    7.2365   32.2834 O   0  0  0  0  0  0  0  0  0  0  0  0
    3.6003    4.5898   28.5622 C   0  0  2  0  0  0  0  0  0  0  0  0
    4.8695    4.8826   27.9039 O   0  0  0  0  0  0  0  0  0  0  0  0
    5.2827    7.3423   24.4235 C   0  0  2  0  0  0  0  0  0  0  0  0
    6.6195    6.7971   24.5721 O   0  0  0  0  0  0  0  0  0  0  0  0
    9.6193    9.2287   25.3640 C   0  0  0  0  0  0  0  0  0  0  0  0
    9.1906   10.5779   25.3048 O   0  0  0  0  0  0  0  0  0  0  0  0
    9.2663    8.1539   31.5555 C   0  0  1  0  0  0  0  0  0  0  0  0
    9.0922    7.2194   30.4469 O   0  0  0  0  0  0  0  0  0  0  0  0
    3.7762    4.9678   30.0499 C   0  0  0  0  0  0  0  0  0  0  0  0
    2.8877    6.0063   30.4258 O   0  0  0  0  0  0  0  0  0  0  0  0
    5.4051    8.8710   24.1359 C   0  0  1  0  0  0  0  0  0  0  0  0
    5.9956    9.0504   22.8494 O   0  0  0  0  0  0  0  0  0  0  0  0
    8.5603    7.5842   32.8126 C   0  0  0  0  0  0  0  0  0  0  0  0
    9.4323    7.5937   34.0011 N   0  0  0  0  0  0  0  0  0  0  0  0
  1  2  1  6  0  0  0
  1  7  1  0  0  0  0
  1 30  1  0  0  0  0
  3  4  1  1  0  0  0
  3  9  1  0  0  0  0
  3 39  1  0  0  0  0
  5 10  1  0  0  0  0
  5 26  1  0  0  0  0
  5 32  1  6  0  0  0
  6 12  1  0  0  0  0
  6 36  1  0  0  0  0
  6 19  1  6  0  0  0
  7  8  1  6  0  0  0
  7 14  1  0  0  0  0
  9 16  1  0  0  0  0
 10 11  1  1  0  0  0
 10 18  1  0  0  0  0
 12 13  1  1  0  0  0
 12 20  1  0  0  0  0
 14 15  1  1  0  0  0
 14 22  1  0  0  0  0
 16 17  1  1  0  0  0
 16 24  1  0  0  0  0
 18 19  1  1  0  0  0
 18 25  1  0  0  0  0
 20 21  1  6  0  0  0
 20 27  1  0  0  0  0
 22 23  1  6  0  0  0
 22 29  1  0  0  0  0
 24  2  1  6  0  0  0
 24 31  1  0  0  0  0
 25 26  1  0  0  0  0
 25 33  1  6  0  0  0
 27 28  1  6  0  0  0
 27 35  1  0  0  0  0
 29 30  1  0  0  0  0
 29 37  1  1  0  0  0
 31 32  1  1  0  0  0
 31 39  1  0  0  0  0
 33 34  1  0  0  0  0
 35 36  1  0  0  0  0
 35 41  1  1  0  0  0
 37 38  1  0  0  0  0
 39 40  1  6  0  0  0
 41 42  1  0  0  0  0
M  END
>  <CHROM.1>
-168.17324517,-142.06024861,43.57880942,91.45975503,-65.26815936,32.09825836
47.66604679,-178.54302431,-158.04379468,-70.59274389,-58.32322240,-57.39186350
-171.56708603,61.63621052,-121.39228698,-39.21059169,177.86250746,59.85118553
8.08650590,70.34959297,-177.04658489,-50.53409700,6.72011458,6.83048044,27.54746403
2.91082804,-0.60131940,-0.98426537

>  <Name>
1fyp_lig

>  <RI>
0

>  <Rbt.Current_Directory>
/home/itssahil/PROJECTS/Mol_Feturizer/New_Systems/rnas/1fyp

>  <Rbt.Executable>
rbdock ($Id: //depot/dev/client3/rdock/2013.1/src/exe/rbdock.cxx#4 $)

>  <Rbt.Library>
libRbt.so (2013.1, Build901 2013/11/27)

>  <Rbt.Parameter_File>
/export/apps/rDock/src/rDock_2013.1_src/data/scripts/dock_solv.prm

>  <Rbt.Receptor>
prm/pocket_docking_5.prm

>  <SCORE>
-44.3618

>  <SCORE.INTER>
-39.2313

>  <SCORE.INTER.CONST>
1

>  <SCORE.INTER.POLAR>
-6.28661

>  <SCORE.INTER.ROT>
14

>  <SCORE.INTER.SOLV>
17.1482

>  <SCORE.INTER.VDW>
-23.8483

>  <SCORE.INTER.norm>
-0.934079

>  <SCORE.INTRA>
-5.13045

>  <SCORE.INTRA.DIHEDRAL>
-22.7598

>  <SCORE.INTRA.DIHEDRAL.0>
48.7173

>  <SCORE.INTRA.POLAR>
0.83369

>  <SCORE.INTRA.POLAR.0>
-1.54691

>  <SCORE.INTRA.REPUL>
0

>  <SCORE.INTRA.REPUL.0>
0

>  <SCORE.INTRA.SOLV>
-2.03948

>  <SCORE.INTRA.SOLV.lig_0>
-64.052

>  <SCORE.INTRA.VDW>
4.43464

>  <SCORE.INTRA.VDW.0>
-7.0667

>  <SCORE.INTRA.norm>
-0.122154

>  <SCORE.RESTR>
0

>  <SCORE.RESTR.CAVITY>
0

>  <SCORE.RESTR.norm>
0

>  <SCORE.SYSTEM>
0

>  <SCORE.SYSTEM.CONST>
0

>  <SCORE.SYSTEM.DIHEDRAL>
0

>  <SCORE.SYSTEM.SOLV>
0

>  <SCORE.SYSTEM.norm>
0

>  <SCORE.heavy>
42

>  <SCORE.norm>
-1.05623

>  <RMSD>
9.391

$$$$
1fyp_lig
 OpenBabel11021811393D
libRbt.so/2013.1/901 2013/11/27
 42 45  0  0  0  0  0  0  0  0999 V2000
    1.8966    1.3124   27.7960 C   0  0  2  0  0  0  0  0  0  0  0  0
    1.9597    2.6080   28.4590 O   0  0  0  0  0  0  0  0  0  0  0  0
    3.8525    4.6676   31.6865 C   0  0  2  0  0  0  0  0  0  0  0  0
    4.7490    5.1386   32.7583 N   0  0  0  0  0  0  0  0  0  0  0  0
    3.9326    5.4567   26.9185 C   0  0  1  0  0  0  0  0  0  0  0  0
    3.4332    9.0461   24.6200 C   0  0  1  0  0  0  0  0  0  0  0  0
    2.4495    1.3887   26.3364 C   0  0  2  0  0  0  0  0  0  0  0  0
    3.7800    2.0323   26.2999 N   0  0  0  0  0  0  0  0  0  0  0  0
    3.5392    3.1731   31.8996 C   0  0  0  0  0  0  0  0  0  0  0  0
    3.5458    6.7404   27.6576 C   0  0  2  0  0  0  0  0  0  0  0  0
    2.1277    6.7890   27.8193 O   0  0  0  0  0  0  0  0  0  0  0  0
    2.4908    8.9660   23.3804 C   0  0  2  0  0  0  0  0  0  0  0  0
    2.2870    7.5753   22.9064 N   0  0  0  0  0  0  0  0  0  0  0  0
    1.4548    2.1484   25.4039 C   0  0  1  0  0  0  0  0  0  0  0  0
    1.8942    2.0722   24.0501 O   0  0  0  0  0  0  0  0  0  0  0  0
    2.5743    2.6148   30.8181 C   0  0  2  0  0  0  0  0  0  0  0  0
    2.4062    1.1679   31.0667 N   0  0  0  0  0  0  0  0  0  0  0  0
    4.0321    7.8199   26.6868 C   0  0  2  0  0  0  0  0  0  0  0  0
    3.0659    8.0684   25.6279 O   0  0  0  0  0  0  0  0  0  0  0  0
    3.0047    9.8873   22.2313 C   0  0  1  0  0  0  0  0  0  0  0  0
    2.7534   11.2441   22.5913 O   0  0  0  0  0  0  0  0  0  0  0  0
    0.0227    1.5635   25.4907 C   0  0  2  0  0  0  0  0  0  0  0  0
   -0.8520    2.3550   24.6924 O   0  0  0  0  0  0  0  0  0  0  0  0
    3.0731    2.8915   29.3543 C   0  0  2  0  0  0  0  0  0  0  0  0
    5.3085    7.1872   26.1151 C   0  0  2  0  0  0  0  0  0  0  0  0
    5.0748    5.7656   26.1037 O   0  0  0  0  0  0  0  0  0  0  0  0
    4.5262    9.7370   21.9273 C   0  0  2  0  0  0  0  0  0  0  0  0
    4.7345    8.4936   21.2557 O   0  0  0  0  0  0  0  0  0  0  0  0
   -0.4605    1.5348   26.9684 C   0  0  2  0  0  0  0  0  0  0  0  0
    0.5168    0.8134   27.7773 O   0  0  0  0  0  0  0  0  0  0  0  0
    3.5482    4.3742   29.1400 C   0  0  2  0  0  0  0  0  0  0  0  0
    4.2885    4.4353   27.8932 O   0  0  0  0  0  0  0  0  0  0  0  0
    6.5648    7.5102   26.9434 C   0  0  0  0  0  0  0  0  0  0  0  0
    6.4665    6.9600   28.2455 O   0  0  0  0  0  0  0  0  0  0  0  0
    5.3615    9.7847   23.2443 C   0  0  1  0  0  0  0  0  0  0  0  0
    4.8227    8.8229   24.2019 O   0  0  0  0  0  0  0  0  0  0  0  0
   -1.8209    0.8375   27.1926 C   0  0  0  0  0  0  0  0  0  0  0  0
   -2.8998    1.6936   26.8572 O   0  0  0  0  0  0  0  0  0  0  0  0
    4.4736    4.8885   30.2862 C   0  0  1  0  0  0  0  0  0  0  0  0
    4.7112    6.2822   30.0942 O   0  0  0  0  0  0  0  0  0  0  0  0
    6.8633    9.4789   23.0112 C   0  0  0  0  0  0  0  0  0  0  0  0
    7.5610    9.1027   24.2541 N   0  0  0  0  0  0  0  0  0  0  0  0
  1  2  1  6  0  0  0
  1  7  1  0  0  0  0
  1 30  1  0  0  0  0
  3  4  1  1  0  0  0
  3  9  1  0  0  0  0
  3 39  1  0  0  0  0
  5 10  1  0  0  0  0
  5 26  1  0  0  0  0
  5 32  1  1  0  0  0
  6 12  1  0  0  0  0
  6 36  1  0  0  0  0
  6 19  1  1  0  0  0
  7  8  1  1  0  0  0
  7 14  1  0  0  0  0
  9 16  1  0  0  0  0
 10 11  1  6  0  0  0
 10 18  1  0  0  0  0
 12 13  1  6  0  0  0
 12 20  1  0  0  0  0
 14 15  1  6  0  0  0
 14 22  1  0  0  0  0
 16 17  1  1  0  0  0
 16 24  1  0  0  0  0
 18 19  1  6  0  0  0
 18 25  1  0  0  0  0
 20 21  1  1  0  0  0
 20 27  1  0  0  0  0
 22 23  1  6  0  0  0
 22 29  1  0  0  0  0
 24  2  1  6  0  0  0
 24 31  1  0  0  0  0
 25 26  1  0  0  0  0
 25 33  1  1  0  0  0
 27 28  1  1  0  0  0
 27 35  1  0  0  0  0
 29 30  1  0  0  0  0
 29 37  1  6  0  0  0
 31 32  1  6  0  0  0
 31 39  1  0  0  0  0
 33 34  1  0  0  0  0
 35 36  1  0  0  0  0
 35 41  1  6  0  0  0
 37 38  1  0  0  0  0
 39 40  1  6  0  0  0
 41 42  1  0  0  0  0
M  END
>  <CHROM.1>
-98.21342798,-97.56523367,79.54204522,-23.80876460,-175.14262392,45.91211300
50.86902907,-47.40869024,-178.20658551,166.16503053,62.45036577,163.09043653
63.79730407,51.11397235,-79.64328289,129.45823938,36.65505869,-170.31769506
-161.77769491,72.74942226,66.16193330,-177.30504898,3.16317402,5.34510824
26.60304992,2.08932228,0.77860174,2.14613999

>  <Name>
1fyp_lig

>  <RI>
0

>  <Rbt.Current_Directory>
/home/itssahil/PROJECTS/Mol_Feturizer/New_Systems/rnas/1fyp

>  <Rbt.Executable>
rbdock ($Id: //depot/dev/client3/rdock/2013.1/src/exe/rbdock.cxx#4 $)

>  <Rbt.Library>
libRbt.so (2013.1, Build901 2013/11/27)

>  <Rbt.Parameter_File>
/export/apps/rDock/src/rDock_2013.1_src/data/scripts/dock_solv.prm

>  <Rbt.Receptor>
prm/blind_docking_100.prm

>  <SCORE>
-48.6351

>  <SCORE.INTER>
-46.3476

>  <SCORE.INTER.CONST>
1

>  <SCORE.INTER.POLAR>
-6.13157

>  <SCORE.INTER.ROT>
14

>  <SCORE.INTER.SOLV>
19.8295

>  <SCORE.INTER.VDW>
-30.003

>  <SCORE.INTER.norm>
-1.10351

>  <SCORE.INTRA>
-2.47821

>  <SCORE.INTRA.DIHEDRAL>
-19.3845

>  <SCORE.INTRA.DIHEDRAL.0>
48.7173

>  <SCORE.INTRA.POLAR>
0.529284

>  <SCORE.INTRA.POLAR.0>
-1.54691

>  <SCORE.INTRA.REPUL>
0.00800033

>  <SCORE.INTRA.REPUL.0>
0

>  <SCORE.INTRA.SOLV>
1.04105

>  <SCORE.INTRA.SOLV.lig_0>
-64.052

>  <SCORE.INTRA.VDW>
4.85393

>  <SCORE.INTRA.VDW.0>
-7.0667

>  <SCORE.INTRA.norm>
-0.059005

>  <SCORE.RESTR>
0.190652

>  <SCORE.RESTR.CAVITY>
0.190652

>  <SCORE.RESTR.norm>
0.00453933

>  <SCORE.SYSTEM>
0

>  <SCORE.SYSTEM.CONST>
0

>  <SCORE.SYSTEM.DIHEDRAL>
0

>  <SCORE.SYSTEM.SOLV>
0

>  <SCORE.SYSTEM.norm>
0

>  <SCORE.heavy>
42

>  <SCORE.norm>
-1.15798

>  <RMSD>
9.406

$$$$
1fyp_lig
 OpenBabel11021811393D
libRbt.so/2013.1/901 2013/11/27
 42 45  0  0  0  0  0  0  0  0999 V2000
    4.1825    3.6668   27.1396 C   0  0  2  0  0  0  0  0  0  0  0  0
    3.1913    4.5447   26.5322 O   0  0  0  0  0  0  0  0  0  0  0  0
    3.2348    8.4733   24.8574 C   0  0  2  0  0  0  0  0  0  0  0  0
    3.2949    9.9252   24.6068 N   0  0  0  0  0  0  0  0  0  0  0  0
    6.3658    6.8240   27.2722 C   0  0  1  0  0  0  0  0  0  0  0  0
    8.5338    7.3393   30.8940 C   0  0  1  0  0  0  0  0  0  0  0  0
    3.7372    2.1702   27.0762 C   0  0  2  0  0  0  0  0  0  0  0  0
    3.3366    1.7876   25.7055 N   0  0  0  0  0  0  0  0  0  0  0  0
    2.1617    8.1811   25.9251 C   0  0  0  0  0  0  0  0  0  0  0  0
    7.4232    6.0225   28.0359 C   0  0  2  0  0  0  0  0  0  0  0  0
    6.8282    5.4235   29.1877 O   0  0  0  0  0  0  0  0  0  0  0  0
    8.0794    8.2406   32.0824 C   0  0  2  0  0  0  0  0  0  0  0  0
    8.2533    9.6867   31.8018 N   0  0  0  0  0  0  0  0  0  0  0  0
    2.5725    1.8936   28.0777 C   0  0  1  0  0  0  0  0  0  0  0  0
    2.2851    0.4983   28.1244 O   0  0  0  0  0  0  0  0  0  0  0  0
    2.0245    6.6624   26.2203 C   0  0  2  0  0  0  0  0  0  0  0  0
    1.0358    6.5011   27.3066 N   0  0  0  0  0  0  0  0  0  0  0  0
    8.4208    7.1151   28.4301 C   0  0  2  0  0  0  0  0  0  0  0  0
    8.0023    7.8201   29.6319 O   0  0  0  0  0  0  0  0  0  0  0  0
    8.8027    7.8276   33.4012 C   0  0  1  0  0  0  0  0  0  0  0  0
    8.2477    6.5952   33.8559 O   0  0  0  0  0  0  0  0  0  0  0  0
    2.9177    2.3736   29.5098 C   0  0  2  0  0  0  0  0  0  0  0  0
    1.7850    2.1793   30.3511 O   0  0  0  0  0  0  0  0  0  0  0  0
    3.3945    5.9860   26.5862 C   0  0  2  0  0  0  0  0  0  0  0  0
    8.3733    8.0487   27.2125 C   0  0  2  0  0  0  0  0  0  0  0  0
    7.0297    7.9619   26.6994 O   0  0  0  0  0  0  0  0  0  0  0  0
   10.3432    7.6428   33.2511 C   0  0  2  0  0  0  0  0  0  0  0  0
   10.9449    8.9320   33.1227 O   0  0  0  0  0  0  0  0  0  0  0  0
    3.3355    3.8714   29.4915 C   0  0  2  0  0  0  0  0  0  0  0  0
    4.4224    4.0531   28.5347 O   0  0  0  0  0  0  0  0  0  0  0  0
    4.5550    6.3847   25.6041 C   0  0  2  0  0  0  0  0  0  0  0  0
    5.8141    5.9938   26.2110 O   0  0  0  0  0  0  0  0  0  0  0  0
    9.3837    7.6635   26.1173 C   0  0  0  0  0  0  0  0  0  0  0  0
   10.7126    7.7623   26.5989 O   0  0  0  0  0  0  0  0  0  0  0  0
   10.6772    6.7657   32.0047 C   0  0  1  0  0  0  0  0  0  0  0  0
   10.0001    7.3061   30.8291 O   0  0  0  0  0  0  0  0  0  0  0  0
    3.8408    4.4205   30.8444 C   0  0  0  0  0  0  0  0  0  0  0  0
    4.1450    5.8023   30.7580 O   0  0  0  0  0  0  0  0  0  0  0  0
    4.6056    7.9165   25.3117 C   0  0  1  0  0  0  0  0  0  0  0  0
    5.5707    8.1570   24.2887 O   0  0  0  0  0  0  0  0  0  0  0  0
   12.1989    6.6861   31.7198 C   0  0  0  0  0  0  0  0  0  0  0  0
   12.4922    6.2223   30.3516 N   0  0  0  0  0  0  0  0  0  0  0  0
  1  2  1  1  0  0  0
  1  7  1  0  0  0  0
  1 30  1  0  0  0  0
  3  4  1  1  0  0  0
  3  9  1  0  0  0  0
  3 39  1  0  0  0  0
  5 10  1  0  0  0  0
  5 26  1  0  0  0  0
  5 32  1  6  0  0  0
  6 12  1  0  0  0  0
  6 36  1  0  0  0  0
  6 19  1  6  0  0  0
  7  8  1  6  0  0  0
  7 14  1  0  0  0  0
  9 16  1  0  0  0  0
 10 11  1  1  0  0  0
 10 18  1  0  0  0  0
 12 13  1  6  0  0  0
 12 20  1  0  0  0  0
 14 15  1  1  0  0  0
 14 22  1  0  0  0  0
 16 17  1  1  0  0  0
 16 24  1  0  0  0  0
 18 19  1  1  0  0  0
 18 25  1  0  0  0  0
 20 21  1  6  0  0  0
 20 27  1  0  0  0  0
 22 23  1  1  0  0  0
 22 29  1  0  0  0  0
 24  2  1  6  0  0  0
 24 31  1  0  0  0  0
 25 26  1  0  0  0  0
 25 33  1  6  0  0  0
 27 28  1  6  0  0  0
 27 35  1  0  0  0  0
 29 30  1  0  0  0  0
 29 37  1  1  0  0  0
 31 32  1  1  0  0  0
 31 39  1  0  0  0  0
 33 34  1  0  0  0  0
 35 36  1  0  0  0  0
 35 41  1  6  0  0  0
 37 38  1  0  0  0  0
 39 40  1  6  0  0  0
 41 42  1  0  0  0  0
M  END
>  <CHROM.1>
175.65448218,-164.92902772,88.71424056,31.93771139,161.73479054,73.13151126
-177.46387642,-49.67230741,94.03080178,176.25002202,-177.13890901,-57.15965131
-62.58151055,59.26902114,-177.43647455,-77.51297205,162.77455617,61.70478969
-162.57957908,-177.22761510,80.51224681,-52.36139380,6.12391972,6.17308642
28.63035294,2.95118857,-0.62021489,-0.93198949

>  <Name>
1fyp_lig

>  <RI>
0

>  <Rbt.Current_Directory>
/home/itssahil/PROJECTS/Mol_Feturizer/New_Systems/rnas/1fyp

>  <Rbt.Executable>
rbdock ($Id: //depot/dev/client3/rdock/2013.1/src/exe/rbdock.cxx#4 $)

>  <Rbt.Library>
libRbt.so (2013.1, Build901 2013/11/27)

>  <Rbt.Parameter_File>
/export/apps/rDock/src/rDock_2013.1_src/data/scripts/dock_solv.prm

>  <Rbt.Receptor>
prm/pocket_docking_5.prm

>  <SCORE>
-48.8111

>  <SCORE.INTER>
-38.7621

>  <SCORE.INTER.CONST>
1

>  <SCORE.INTER.POLAR>
-5.91781

>  <SCORE.INTER.ROT>
14

>  <SCORE.INTER.SOLV>
11.4508

>  <SCORE.INTER.VDW>
-22.8656

>  <SCORE.INTER.norm>
-0.922907

>  <SCORE.INTRA>
-10.0716

>  <SCORE.INTRA.DIHEDRAL>
-32.6987

>  <SCORE.INTRA.DIHEDRAL.0>
48.7173

>  <SCORE.INTRA.POLAR>
1.54691

>  <SCORE.INTRA.POLAR.0>
-1.54691

>  <SCORE.INTRA.REPUL>
0.0191432

>  <SCORE.INTRA.REPUL.0>
0

>  <SCORE.INTRA.SOLV>
-2.01693

>  <SCORE.INTRA.SOLV.lig_0>
-64.052

>  <SCORE.INTRA.VDW>
1.93093

>  <SCORE.INTRA.VDW.0>
-7.0667

>  <SCORE.INTRA.norm>
-0.239801

>  <SCORE.RESTR>
0.0226653

>  <SCORE.RESTR.CAVITY>
0.0226653

>  <SCORE.RESTR.norm>
0.000539651

>  <SCORE.SYSTEM>
0

>  <SCORE.SYSTEM.CONST>
0

>  <SCORE.SYSTEM.DIHEDRAL>
0

>  <SCORE.SYSTEM.SOLV>
0

>  <SCORE.SYSTEM.norm>
0

>  <SCORE.heavy>
42

>  <SCORE.norm>
-1.16217

>  <RMSD>
9.417

$$$$
1fyp_lig
 OpenBabel11021811393D
libRbt.so/2013.1/901 2013/11/27
 42 45  0  0  0  0  0  0  0  0999 V2000
    3.6553    5.1972   26.2702 C   0  0  2  0  0  0  0  0  0  0  0  0
    3.1418    5.5622   24.9566 O   0  0  0  0  0  0  0  0  0  0  0  0
    4.7680    8.6900   22.5457 C   0  0  2  0  0  0  0  0  0  0  0  0
    5.0728    9.9541   21.8502 N   0  0  0  0  0  0  0  0  0  0  0  0
    6.0877    7.5864   26.9003 C   0  0  1  0  0  0  0  0  0  0  0  0
    8.9934    7.7981   28.1216 C   0  0  1  0  0  0  0  0  0  0  0  0
    3.9040    3.6584   26.3803 C   0  0  2  0  0  0  0  0  0  0  0  0
    4.7130    3.1634   25.2461 N   0  0  0  0  0  0  0  0  0  0  0  0
    3.2952    8.3091   22.2954 C   0  0  0  0  0  0  0  0  0  0  0  0
    6.0707    6.3341   27.7807 C   0  0  2  0  0  0  0  0  0  0  0  0
    5.7406    6.6980   29.1217 O   0  0  0  0  0  0  0  0  0  0  0  0
   10.1313    7.5133   27.0944 C   0  0  2  0  0  0  0  0  0  0  0  0
   11.0667    6.4585   27.5556 N   0  0  0  0  0  0  0  0  0  0  0  0
    2.5530    2.8811   26.4616 C   0  0  1  0  0  0  0  0  0  0  0  0
    2.7949    1.5005   26.7208 O   0  0  0  0  0  0  0  0  0  0  0  0
    2.9105    6.9685   22.9788 C   0  0  2  0  0  0  0  0  0  0  0  0
    1.4692    6.7403   22.7457 N   0  0  0  0  0  0  0  0  0  0  0  0
    7.5217    5.8568   27.6752 C   0  0  2  0  0  0  0  0  0  0  0  0
    8.3920    6.5667   28.5999 O   0  0  0  0  0  0  0  0  0  0  0  0
   10.8915    8.8255   26.7293 C   0  0  1  0  0  0  0  0  0  0  0  0
   10.0528    9.6170   25.8904 O   0  0  0  0  0  0  0  0  0  0  0  0
    1.6340    3.4381   27.5776 C   0  0  2  0  0  0  0  0  0  0  0  0
    0.3866    2.7516   27.5387 O   0  0  0  0  0  0  0  0  0  0  0  0
    3.2549    6.9443   24.5114 C   0  0  2  0  0  0  0  0  0  0  0  0
    7.8724    6.2115   26.2235 C   0  0  2  0  0  0  0  0  0  0  0  0
    7.1098    7.3929   25.9095 O   0  0  0  0  0  0  0  0  0  0  0  0
   11.3014    9.6874   27.9618 C   0  0  2  0  0  0  0  0  0  0  0  0
   12.3872    9.0404   28.6275 O   0  0  0  0  0  0  0  0  0  0  0  0
    1.4231    4.9675   27.3906 C   0  0  2  0  0  0  0  0  0  0  0  0
    2.7243    5.6246   27.3208 O   0  0  0  0  0  0  0  0  0  0  0  0
    4.7018    7.4738   24.8216 C   0  0  2  0  0  0  0  0  0  0  0  0
    4.7938    7.7269   26.2477 O   0  0  0  0  0  0  0  0  0  0  0  0
    7.5368    5.0854   25.2296 C   0  0  0  0  0  0  0  0  0  0  0  0
    7.6378    3.8162   25.8514 O   0  0  0  0  0  0  0  0  0  0  0  0
   10.0982    9.8638   28.9393 C   0  0  1  0  0  0  0  0  0  0  0  0
    9.5297    8.5570   29.2581 O   0  0  0  0  0  0  0  0  0  0  0  0
    0.6394    5.6582   28.5289 C   0  0  0  0  0  0  0  0  0  0  0  0
   -0.6573    5.1036   28.6715 O   0  0  0  0  0  0  0  0  0  0  0  0
    5.0412    8.7958   24.0654 C   0  0  1  0  0  0  0  0  0  0  0  0
    6.4191    9.1027   24.2730 O   0  0  0  0  0  0  0  0  0  0  0  0
   10.4976   10.5765   30.2568 C   0  0  0  0  0  0  0  0  0  0  0  0
   11.4327    9.7768   31.0686 N   0  0  0  0  0  0  0  0  0  0  0  0
  1  2  1  6  0  0  0
  1  7  1  0  0  0  0
  1 30  1  0  0  0  0
  3  4  1  6  0  0  0
  3  9  1  0  0  0  0
  3 39  1  0  0  0  0
  5 10  1  0  0  0  0
  5 26  1  0  0  0  0
  5 32  1  6  0  0  0
  6 12  1  0  0  0  0
  6 36  1  0  0  0  0
  6 19  1  1  0  0  0
  7  8  1  6  0  0  0
  7 14  1  0  0  0  0
  9 16  1  0  0  0  0
 10 11  1  1  0  0  0
 10 18  1  0  0  0  0
 12 13  1  1  0  0  0
 12 20  1  0  0  0  0
 14 15  1  1  0  0  0
 14 22  1  0  0  0  0
 16 17  1  1  0  0  0
 16 24  1  0  0  0  0
 18 19  1  1  0  0  0
 18 25  1  0  0  0  0
 20 21  1  6  0  0  0
 20 27  1  0  0  0  0
 22 23  1  6  0  0  0
 22 29  1  0  0  0  0
 24  2  1  6  0  0  0
 24 31  1  0  0  0  0
 25 26  1  0  0  0  0
 25 33  1  6  0  0  0
 27 28  1  1  0  0  0
 27 35  1  0  0  0  0
 29 30  1  0  0  0  0
 29 37  1  1  0  0  0
 31 32  1  1  0  0  0
 31 39  1  0  0  0  0
 33 34  1  0  0  0  0
 35 36  1  0  0  0  0
 35 41  1  1  0  0  0
 37 38  1  0  0  0  0
 39 40  1  6  0  0  0
 41 42  1  0  0  0  0
M  END
>  <CHROM.1>
-160.30071169,168.12639223,159.74177318,60.90135010,46.76653956,-148.35442101
-47.02659026,70.92182466,-88.82334093,-73.47858724,-170.73039434,-174.43604200
-29.87232473,-62.33102368,-59.80137881,150.37843942,-108.63439217,-59.18568577
-65.55201105,-174.94195013,157.73062623,-177.25815835,5.93530483,6.72966754
26.55562115,-3.09652168,-0.49448072,-0.97910269

>  <Name>
1fyp_lig

>  <RI>
0

>  <Rbt.Current_Directory>
/home/itssahil/PROJECTS/Mol_Feturizer/New_Systems/rnas/1fyp

>  <Rbt.Executable>
rbdock ($Id: //depot/dev/client3/rdock/2013.1/src/exe/rbdock.cxx#4 $)

>  <Rbt.Library>
libRbt.so (2013.1, Build901 2013/11/27)

>  <Rbt.Parameter_File>
/export/apps/rDock/src/rDock_2013.1_src/data/scripts/dock_solv.prm

>  <Rbt.Receptor>
prm/pocket_docking_8.prm

>  <SCORE>
-47.1309

>  <SCORE.INTER>
-43.4433

>  <SCORE.INTER.CONST>
1

>  <SCORE.INTER.POLAR>
-6.10501

>  <SCORE.INTER.ROT>
14

>  <SCORE.INTER.SOLV>
18.9986

>  <SCORE.INTER.VDW>
-27.8784

>  <SCORE.INTER.norm>
-1.03436

>  <SCORE.INTRA>
-3.68759

>  <SCORE.INTRA.DIHEDRAL>
-22.2234

>  <SCORE.INTRA.DIHEDRAL.0>
48.7173

>  <SCORE.INTRA.POLAR>
-0.437098

>  <SCORE.INTRA.POLAR.0>
-1.54691

>  <SCORE.INTRA.REPUL>
0.126513

>  <SCORE.INTRA.REPUL.0>
0

>  <SCORE.INTRA.SOLV>
1.28343

>  <SCORE.INTRA.SOLV.lig_0>
-64.052

>  <SCORE.INTRA.VDW>
7.63599

>  <SCORE.INTRA.VDW.0>
-7.0667

>  <SCORE.INTRA.norm>
-0.0877998

>  <SCORE.RESTR>
0

>  <SCORE.RESTR.CAVITY>
0

>  <SCORE.RESTR.norm>
0

>  <SCORE.SYSTEM>
0

>  <SCORE.SYSTEM.CONST>
0

>  <SCORE.SYSTEM.DIHEDRAL>
0

>  <SCORE.SYSTEM.SOLV>
0

>  <SCORE.SYSTEM.norm>
0

>  <SCORE.heavy>
42

>  <SCORE.norm>
-1.12216

>  <RMSD>
9.422

$$$$
1fyp_lig
 OpenBabel11021811393D
libRbt.so/2013.1/901 2013/11/27
 42 45  0  0  0  0  0  0  0  0999 V2000
   -0.5975    1.5038   30.0741 C   0  0  2  0  0  0  0  0  0  0  0  0
   -0.8756    2.5678   29.1186 O   0  0  0  0  0  0  0  0  0  0  0  0
    0.4546    0.2462   25.7897 C   0  0  2  0  0  0  0  0  0  0  0  0
    0.8218   -0.2766   24.4607 N   0  0  0  0  0  0  0  0  0  0  0  0
    2.2298    3.9590   26.7077 C   0  0  1  0  0  0  0  0  0  0  0  0
    3.6729    7.5241   24.4771 C   0  0  1  0  0  0  0  0  0  0  0  0
   -1.9116    0.8062   30.5523 C   0  0  2  0  0  0  0  0  0  0  0  0
   -2.7496    0.3970   29.4052 N   0  0  0  0  0  0  0  0  0  0  0  0
   -1.0097    0.7280   25.7646 C   0  0  0  0  0  0  0  0  0  0  0  0
    2.5294    5.3893   27.1639 C   0  0  2  0  0  0  0  0  0  0  0  0
    1.3830    6.2112   26.9412 O   0  0  0  0  0  0  0  0  0  0  0  0
    3.2082    7.8105   23.0166 C   0  0  2  0  0  0  0  0  0  0  0  0
    3.4401    6.6616   22.1074 N   0  0  0  0  0  0  0  0  0  0  0  0
   -2.7199    1.7384   31.5082 C   0  0  1  0  0  0  0  0  0  0  0  0
   -3.8293    1.0338   32.0600 O   0  0  0  0  0  0  0  0  0  0  0  0
   -1.4743    1.2685   27.1446 C   0  0  2  0  0  0  0  0  0  0  0  0
   -2.8539    1.7750   26.9898 N   0  0  0  0  0  0  0  0  0  0  0  0
    3.6824    5.7797   26.2351 C   0  0  2  0  0  0  0  0  0  0  0  0
    3.2017    6.2312   24.9384 O   0  0  0  0  0  0  0  0  0  0  0  0
    3.8713    9.1112   22.4675 C   0  0  1  0  0  0  0  0  0  0  0  0
    3.2600   10.2337   23.0999 O   0  0  0  0  0  0  0  0  0  0  0  0
   -1.8451    2.2687   32.6717 C   0  0  2  0  0  0  0  0  0  0  0  0
   -2.6114    3.1825   33.4506 O   0  0  0  0  0  0  0  0  0  0  0  0
   -0.5181    2.3744   27.7199 C   0  0  2  0  0  0  0  0  0  0  0  0
    4.4463    4.4555   26.0964 C   0  0  2  0  0  0  0  0  0  0  0  0
    3.4546    3.4146   26.1907 O   0  0  0  0  0  0  0  0  0  0  0  0
    5.4091    9.1927   22.7096 C   0  0  2  0  0  0  0  0  0  0  0  0
    6.0577    8.2817   21.8207 O   0  0  0  0  0  0  0  0  0  0  0  0
   -0.5681    2.9603   32.1157 C   0  0  2  0  0  0  0  0  0  0  0  0
    0.1316    2.0332   31.2321 O   0  0  0  0  0  0  0  0  0  0  0  0
    1.0005    1.9817   27.6208 C   0  0  2  0  0  0  0  0  0  0  0  0
    1.7917    3.1758   27.8543 O   0  0  0  0  0  0  0  0  0  0  0  0
    5.5206    4.2625   27.1815 C   0  0  0  0  0  0  0  0  0  0  0  0
    6.5026    3.3320   26.7602 O   0  0  0  0  0  0  0  0  0  0  0  0
    5.7562    8.8409   24.1895 C   0  0  1  0  0  0  0  0  0  0  0  0
    5.1387    7.5672   24.5486 O   0  0  0  0  0  0  0  0  0  0  0  0
    0.4508    3.4013   33.1902 C   0  0  0  0  0  0  0  0  0  0  0  0
    0.3988    2.5560   34.3269 O   0  0  0  0  0  0  0  0  0  0  0  0
    1.3890    1.4002   26.2260 C   0  0  1  0  0  0  0  0  0  0  0  0
    2.7307    0.9185   26.2869 O   0  0  0  0  0  0  0  0  0  0  0  0
    7.2834    8.7508   24.4403 C   0  0  0  0  0  0  0  0  0  0  0  0
    7.7764    7.3617   24.4209 N   0  0  0  0  0  0  0  0  0  0  0  0
  1  2  1  6  0  0  0
  1  7  1  0  0  0  0
  1 30  1  0  0  0  0
  3  4  1  6  0  0  0
  3  9  1  0  0  0  0
  3 39  1  0  0  0  0
  5 10  1  0  0  0  0
  5 26  1  0  0  0  0
  5 32  1  1  0  0  0
  6 12  1  0  0  0  0
  6 36  1  0  0  0  0
  6 19  1  6  0  0  0
  7  8  1  6  0  0  0
  7 14  1  0  0  0  0
  9 16  1  0  0  0  0
 10 11  1  6  0  0  0
 10 18  1  0  0  0  0
 12 13  1  6  0  0  0
 12 20  1  0  0  0  0
 14 15  1  1  0  0  0
 14 22  1  0  0  0  0
 16 17  1  6  0  0  0
 16 24  1  0  0  0  0
 18 19  1  6  0  0  0
 18 25  1  0  0  0  0
 20 21  1  1  0  0  0
 20 27  1  0  0  0  0
 22 23  1  6  0  0  0
 22 29  1  0  0  0  0
 24  2  1  1  0  0  0
 24 31  1  0  0  0  0
 25 26  1  0  0  0  0
 25 33  1  1  0  0  0
 27 28  1  6  0  0  0
 27 35  1  0  0  0  0
 29 30  1  0  0  0  0
 29 37  1  1  0  0  0
 31 32  1  6  0  0  0
 31 39  1  0  0  0  0
 33 34  1  0  0  0  0
 35 36  1  0  0  0  0
 35 41  1  6  0  0  0
 37 38  1  0  0  0  0
 39 40  1  1  0  0  0
 41 42  1  0  0  0  0
M  END
>  <CHROM.1>
-108.86644240,68.83401772,141.95312176,-68.73730111,-168.07559240,109.52753472
61.35693990,87.33954789,126.83958441,173.75227941,-46.10524076,-62.52808627
-158.29007312,75.90280504,29.69058930,-93.90209764,157.58540653,-179.77436325
-98.56860537,77.83869441,173.30607383,-9.44562817,1.75748124,4.10370965,27.18079024
-2.71692153,-0.88474104,-1.90692352

>  <Name>
1fyp_lig

>  <RI>
0

>  <Rbt.Current_Directory>
/home/itssahil/PROJECTS/Mol_Feturizer/New_Systems/rnas/1fyp

>  <Rbt.Executable>
rbdock ($Id: //depot/dev/client3/rdock/2013.1/src/exe/rbdock.cxx#4 $)

>  <Rbt.Library>
libRbt.so (2013.1, Build901 2013/11/27)

>  <Rbt.Parameter_File>
/export/apps/rDock/src/rDock_2013.1_src/data/scripts/dock_solv.prm

>  <Rbt.Receptor>
prm/pocket_docking_8.prm

>  <SCORE>
-37.2745

>  <SCORE.INTER>
-43.3529

>  <SCORE.INTER.CONST>
1

>  <SCORE.INTER.POLAR>
-6.21712

>  <SCORE.INTER.ROT>
14

>  <SCORE.INTER.SOLV>
19.4354

>  <SCORE.INTER.VDW>
-27.59

>  <SCORE.INTER.norm>
-1.03221

>  <SCORE.INTRA>
6.07845

>  <SCORE.INTRA.DIHEDRAL>
-8.05327

>  <SCORE.INTRA.DIHEDRAL.0>
48.7173

>  <SCORE.INTRA.POLAR>
0.33416

>  <SCORE.INTRA.POLAR.0>
-1.54691

>  <SCORE.INTRA.REPUL>
0

>  <SCORE.INTRA.REPUL.0>
0

>  <SCORE.INTRA.SOLV>
-0.972675

>  <SCORE.INTRA.SOLV.lig_0>
-64.052

>  <SCORE.INTRA.VDW>
9.45528

>  <SCORE.INTRA.VDW.0>
-7.0667

>  <SCORE.INTRA.norm>
0.144725

>  <SCORE.RESTR>
0

>  <SCORE.RESTR.CAVITY>
0

>  <SCORE.RESTR.norm>
0

>  <SCORE.SYSTEM>
0

>  <SCORE.SYSTEM.CONST>
0

>  <SCORE.SYSTEM.DIHEDRAL>
0

>  <SCORE.SYSTEM.SOLV>
0

>  <SCORE.SYSTEM.norm>
0

>  <SCORE.heavy>
42

>  <SCORE.norm>
-0.887487

>  <RMSD>
9.457

$$$$
1fyp_lig
 OpenBabel11021811393D
libRbt.so/2013.1/901 2013/11/27
 42 45  0  0  0  0  0  0  0  0999 V2000
    5.1552    4.6487   27.7185 C   0  0  2  0  0  0  0  0  0  0  0  0
    5.1077    4.7312   26.2647 O   0  0  0  0  0  0  0  0  0  0  0  0
    3.5736    6.9143   22.9299 C   0  0  2  0  0  0  0  0  0  0  0  0
    2.8197    7.7871   22.0110 N   0  0  0  0  0  0  0  0  0  0  0  0
    7.0115    7.3112   26.5771 C   0  0  1  0  0  0  0  0  0  0  0  0
   10.5690    6.9290   27.9473 C   0  0  1  0  0  0  0  0  0  0  0  0
    5.2571    3.1671   28.2047 C   0  0  2  0  0  0  0  0  0  0  0  0
    6.3497    2.4499   27.5135 N   0  0  0  0  0  0  0  0  0  0  0  0
    2.5972    5.9642   23.6516 C   0  0  0  0  0  0  0  0  0  0  0  0
    7.8002    6.4846   25.5582 C   0  0  2  0  0  0  0  0  0  0  0  0
    7.6052    5.0940   25.8185 O   0  0  0  0  0  0  0  0  0  0  0  0
   12.0611    7.0578   27.5133 C   0  0  2  0  0  0  0  0  0  0  0  0
   12.6428    5.7652   27.0764 N   0  0  0  0  0  0  0  0  0  0  0  0
    3.9028    2.4194   27.9978 C   0  0  1  0  0  0  0  0  0  0  0  0
    3.9613    1.1235   28.5885 O   0  0  0  0  0  0  0  0  0  0  0  0
    3.3284    4.9938   24.6191 C   0  0  2  0  0  0  0  0  0  0  0  0
    2.3014    4.1898   25.3136 N   0  0  0  0  0  0  0  0  0  0  0  0
    9.2405    6.9096   25.8572 C   0  0  2  0  0  0  0  0  0  0  0  0
    9.7998    6.1701   26.9783 O   0  0  0  0  0  0  0  0  0  0  0  0
   12.9143    7.7105   28.6442 C   0  0  1  0  0  0  0  0  0  0  0  0
   12.5990    9.0999   28.7057 O   0  0  0  0  0  0  0  0  0  0  0  0
    2.7158    3.1933   28.6243 C   0  0  2  0  0  0  0  0  0  0  0  0
    1.5034    2.5098   28.3217 O   0  0  0  0  0  0  0  0  0  0  0  0
    4.2614    5.7388   25.6402 C   0  0  2  0  0  0  0  0  0  0  0  0
    9.0702    8.3915   26.2193 C   0  0  2  0  0  0  0  0  0  0  0  0
    7.7728    8.5016   26.8362 O   0  0  0  0  0  0  0  0  0  0  0  0
   12.6779    7.0938   30.0562 C   0  0  2  0  0  0  0  0  0  0  0  0
   13.2946    5.8060   30.0984 O   0  0  0  0  0  0  0  0  0  0  0  0
    2.6734    4.6498   28.0810 C   0  0  2  0  0  0  0  0  0  0  0  0
    3.9693    5.2821   28.3063 O   0  0  0  0  0  0  0  0  0  0  0  0
    5.1663    6.8286   24.9594 C   0  0  2  0  0  0  0  0  0  0  0  0
    5.7224    7.6700   26.0031 O   0  0  0  0  0  0  0  0  0  0  0  0
    9.1563    9.3244   24.9982 C   0  0  0  0  0  0  0  0  0  0  0  0
    9.5030   10.6407   25.3917 O   0  0  0  0  0  0  0  0  0  0  0  0
   11.1522    6.9709   30.3586 C   0  0  1  0  0  0  0  0  0  0  0  0
   10.4888    6.2752   29.2593 O   0  0  0  0  0  0  0  0  0  0  0  0
    1.6160    5.5594   28.7455 C   0  0  0  0  0  0  0  0  0  0  0  0
    0.3031    5.0789   28.5114 O   0  0  0  0  0  0  0  0  0  0  0  0
    4.3803    7.7368   23.9634 C   0  0  1  0  0  0  0  0  0  0  0  0
    5.3084    8.5731   23.2742 O   0  0  0  0  0  0  0  0  0  0  0  0
   10.8637    6.2164   31.6818 C   0  0  0  0  0  0  0  0  0  0  0  0
    9.4239    6.1534   31.9918 N   0  0  0  0  0  0  0  0  0  0  0  0
  1  2  1  6  0  0  0
  1  7  1  0  0  0  0
  1 30  1  0  0  0  0
  3  4  1  6  0  0  0
  3  9  1  0  0  0  0
  3 39  1  0  0  0  0
  5 10  1  0  0  0  0
  5 26  1  0  0  0  0
  5 32  1  6  0  0  0
  6 12  1  0  0  0  0
  6 36  1  0  0  0  0
  6 19  1  6  0  0  0
  7  8  1  6  0  0  0
  7 14  1  0  0  0  0
  9 16  1  0  0  0  0
 10 11  1  1  0  0  0
 10 18  1  0  0  0  0
 12 13  1  1  0  0  0
 12 20  1  0  0  0  0
 14 15  1  1  0  0  0
 14 22  1  0  0  0  0
 16 17  1  1  0  0  0
 16 24  1  0  0  0  0
 18 19  1  1  0  0  0
 18 25  1  0  0  0  0
 20 21  1  1  0  0  0
 20 27  1  0  0  0  0
 22 23  1  6  0  0  0
 22 29  1  0  0  0  0
 24  2  1  6  0  0  0
 24 31  1  0  0  0  0
 25 26  1  0  0  0  0
 25 33  1  6  0  0  0
 27 28  1  6  0  0  0
 27 35  1  0  0  0  0
 29 30  1  0  0  0  0
 29 37  1  1  0  0  0
 31 32  1  1  0  0  0
 31 39  1  0  0  0  0
 33 34  1  0  0  0  0
 35 36  1  0  0  0  0
 35 41  1  1  0  0  0
 37 38  1  0  0  0  0
 39 40  1  6  0  0  0
 41 42  1  0  0  0  0
M  END
>  <CHROM.1>
142.96687872,-126.56157277,107.20007900,-44.46671206,63.04627756,-160.59284571
-89.15301103,53.32750482,-137.04907512,-86.30556072,-68.52511400,-62.44210403
-157.73955325,-67.05841640,-62.75860219,91.29404488,25.06366211,56.13962656
177.54972888,165.36612842,-60.42786100,-58.06706362,6.84578712,6.06381200
27.07771038,3.11525687,-0.37053992,-0.89678811

>  <Name>
1fyp_lig

>  <RI>
0

>  <Rbt.Current_Directory>
/home/itssahil/PROJECTS/Mol_Feturizer/New_Systems/rnas/1fyp

>  <Rbt.Executable>
rbdock ($Id: //depot/dev/client3/rdock/2013.1/src/exe/rbdock.cxx#4 $)

>  <Rbt.Library>
libRbt.so (2013.1, Build901 2013/11/27)

>  <Rbt.Parameter_File>
/export/apps/rDock/src/rDock_2013.1_src/data/scripts/dock_solv.prm

>  <Rbt.Receptor>
prm/pocket_docking_4.prm

>  <SCORE>
-37.7946

>  <SCORE.INTER>
-40.3398

>  <SCORE.INTER.CONST>
1

>  <SCORE.INTER.POLAR>
-4.32466

>  <SCORE.INTER.ROT>
14

>  <SCORE.INTER.SOLV>
17.9711

>  <SCORE.INTER.VDW>
-31.4013

>  <SCORE.INTER.norm>
-0.960471

>  <SCORE.INTRA>
2.20688

>  <SCORE.INTRA.DIHEDRAL>
-9.65172

>  <SCORE.INTRA.DIHEDRAL.0>
48.7173

>  <SCORE.INTRA.POLAR>
0.517006

>  <SCORE.INTRA.POLAR.0>
-1.54691

>  <SCORE.INTRA.REPUL>
0

>  <SCORE.INTRA.REPUL.0>
0

>  <SCORE.INTRA.SOLV>
-0.252781

>  <SCORE.INTRA.SOLV.lig_0>
-64.052

>  <SCORE.INTRA.VDW>
5.40131

>  <SCORE.INTRA.VDW.0>
-7.0667

>  <SCORE.INTRA.norm>
0.0525448

>  <SCORE.RESTR>
0.338317

>  <SCORE.RESTR.CAVITY>
0.338317

>  <SCORE.RESTR.norm>
0.00805518

>  <SCORE.SYSTEM>
0

>  <SCORE.SYSTEM.CONST>
0

>  <SCORE.SYSTEM.DIHEDRAL>
0

>  <SCORE.SYSTEM.SOLV>
0

>  <SCORE.SYSTEM.norm>
0

>  <SCORE.heavy>
42

>  <SCORE.norm>
-0.899871

>  <RMSD>
9.486

$$$$
1fyp_lig
 OpenBabel11021811393D
libRbt.so/2013.1/901 2013/11/27
 42 45  0  0  0  0  0  0  0  0999 V2000
    0.6496    4.2035   27.1546 C   0  0  2  0  0  0  0  0  0  0  0  0
    1.8937    4.0367   27.8940 O   0  0  0  0  0  0  0  0  0  0  0  0
    6.0219    3.1505   27.2510 C   0  0  2  0  0  0  0  0  0  0  0  0
    7.3209    2.5753   26.8556 N   0  0  0  0  0  0  0  0  0  0  0  0
    3.5805    5.7479   24.4052 C   0  0  1  0  0  0  0  0  0  0  0  0
    3.2253    9.4842   22.0213 C   0  0  1  0  0  0  0  0  0  0  0  0
   -0.4925    4.7485   28.0716 C   0  0  2  0  0  0  0  0  0  0  0  0
   -0.0557    5.9487   28.8161 N   0  0  0  0  0  0  0  0  0  0  0  0
    5.1784    2.0726   27.9607 C   0  0  0  0  0  0  0  0  0  0  0  0
    2.3636    6.5895   24.0121 C   0  0  2  0  0  0  0  0  0  0  0  0
    1.9083    6.1945   22.7175 O   0  0  0  0  0  0  0  0  0  0  0  0
    4.3460    9.9789   21.0567 C   0  0  2  0  0  0  0  0  0  0  0  0
    5.6818   10.0099   21.7009 N   0  0  0  0  0  0  0  0  0  0  0  0
   -0.9846    3.6466   29.0613 C   0  0  1  0  0  0  0  0  0  0  0  0
   -2.1278    4.1051   29.7787 O   0  0  0  0  0  0  0  0  0  0  0  0
    3.8023    2.6182   28.4308 C   0  0  2  0  0  0  0  0  0  0  0  0
    3.0479    1.4926   29.0204 N   0  0  0  0  0  0  0  0  0  0  0  0
    2.9541    8.0020   23.9868 C   0  0  2  0  0  0  0  0  0  0  0  0
    3.6284    8.2826   22.7286 O   0  0  0  0  0  0  0  0  0  0  0  0
    3.9794   11.3657   20.4439 C   0  0  1  0  0  0  0  0  0  0  0  0
    2.9478   11.1762   19.4779 O   0  0  0  0  0  0  0  0  0  0  0  0
   -1.3582    2.3357   28.3249 C   0  0  2  0  0  0  0  0  0  0  0  0
   -1.7081    1.3454   29.2869 O   0  0  0  0  0  0  0  0  0  0  0  0
    2.9928    3.3087   27.2748 C   0  0  2  0  0  0  0  0  0  0  0  0
    3.9650    7.9489   25.1408 C   0  0  2  0  0  0  0  0  0  0  0  0
    4.4432    6.5905   25.1859 O   0  0  0  0  0  0  0  0  0  0  0  0
    3.4838   12.4118   21.4879 C   0  0  2  0  0  0  0  0  0  0  0  0
    4.6049   12.8546   22.2546 O   0  0  0  0  0  0  0  0  0  0  0  0
   -0.1690    1.8510   27.4479 C   0  0  2  0  0  0  0  0  0  0  0  0
    0.2366    2.9303   26.5533 O   0  0  0  0  0  0  0  0  0  0  0  0
    3.8648    4.3049   26.4279 C   0  0  2  0  0  0  0  0  0  0  0  0
    3.1380    4.6193   25.2117 O   0  0  0  0  0  0  0  0  0  0  0  0
    3.3523    8.3393   26.4976 C   0  0  0  0  0  0  0  0  0  0  0  0
    3.7909    9.6257   26.8984 O   0  0  0  0  0  0  0  0  0  0  0  0
    2.4022   11.7899   22.4248 C   0  0  1  0  0  0  0  0  0  0  0  0
    2.9026   10.5396   22.9894 O   0  0  0  0  0  0  0  0  0  0  0  0
   -0.4778    0.6288   26.5546 C   0  0  0  0  0  0  0  0  0  0  0  0
    0.6983    0.1297   25.9404 O   0  0  0  0  0  0  0  0  0  0  0  0
    5.2529    3.7129   26.0313 C   0  0  1  0  0  0  0  0  0  0  0  0
    6.0322    4.7397   25.4196 O   0  0  0  0  0  0  0  0  0  0  0  0
    1.9946   12.7393   23.5805 C   0  0  0  0  0  0  0  0  0  0  0  0
    0.8675   13.6172   23.2172 N   0  0  0  0  0  0  0  0  0  0  0  0
  1  2  1  1  0  0  0
  1  7  1  0  0  0  0
  1 30  1  0  0  0  0
  3  4  1  6  0  0  0
  3  9  1  0  0  0  0
  3 39  1  0  0  0  0
  5 10  1  0  0  0  0
  5 26  1  0  0  0  0
  5 32  1  1  0  0  0
  6 12  1  0  0  0  0
  6 36  1  0  0  0  0
  6 19  1  1  0  0  0
  7  8  1  1  0  0  0
  7 14  1  0  0  0  0
  9 16  1  0  0  0  0
 10 11  1  6  0  0  0
 10 18  1  0  0  0  0
 12 13  1  1  0  0  0
 12 20  1  0  0  0  0
 14 15  1  6  0  0  0
 14 22  1  0  0  0  0
 16 17  1  6  0  0  0
 16 24  1  0  0  0  0
 18 19  1  6  0  0  0
 18 25  1  0  0  0  0
 20 21  1  6  0  0  0
 20 27  1  0  0  0  0
 22 23  1  1  0  0  0
 22 29  1  0  0  0  0
 24  2  1  1  0  0  0
 24 31  1  0  0  0  0
 25 26  1  0  0  0  0
 25 33  1  1  0  0  0
 27 28  1  1  0  0  0
 27 35  1  0  0  0  0
 29 30  1  0  0  0  0
 29 37  1  6  0  0  0
 31 32  1  6  0  0  0
 31 39  1  0  0  0  0
 33 34  1  0  0  0  0
 35 36  1  0  0  0  0
 35 41  1  1  0  0  0
 37 38  1  0  0  0  0
 39 40  1  1  0  0  0
 41 42  1  0  0  0  0
M  END
>  <CHROM.1>
168.61046844,-149.58976960,82.52985036,171.07790897,-166.44900588,-76.16856550
-159.98425345,-49.11854196,126.86056625,157.00613636,-159.77066517,75.10728868
-106.58947700,-135.26933648,-171.37305936,166.03387100,-133.95370148,-147.09142574
89.81792988,67.34585032,140.49989857,178.28154920,2.58862394,6.24332894,25.41032740
1.79716356,-0.30546987,2.62441198

>  <Name>
1fyp_lig

>  <RI>
0

>  <Rbt.Current_Directory>
/home/itssahil/PROJECTS/Mol_Feturizer/New_Systems/rnas/1fyp

>  <Rbt.Executable>
rbdock ($Id: //depot/dev/client3/rdock/2013.1/src/exe/rbdock.cxx#4 $)

>  <Rbt.Library>
libRbt.so (2013.1, Build901 2013/11/27)

>  <Rbt.Parameter_File>
/export/apps/rDock/src/rDock_2013.1_src/data/scripts/dock_solv.prm

>  <Rbt.Receptor>
prm/blind_docking_80.prm

>  <SCORE>
6.8946

>  <SCORE.INTER>
-2.82124

>  <SCORE.INTER.CONST>
1

>  <SCORE.INTER.POLAR>
-6.10533

>  <SCORE.INTER.ROT>
14

>  <SCORE.INTER.SOLV>
31.6643

>  <SCORE.INTER.VDW>
-5.01785

>  <SCORE.INTER.norm>
-0.0671723

>  <SCORE.INTRA>
8.77419

>  <SCORE.INTRA.DIHEDRAL>
2.58865

>  <SCORE.INTRA.DIHEDRAL.0>
48.7173

>  <SCORE.INTRA.POLAR>
1.35071

>  <SCORE.INTRA.POLAR.0>
-1.54691

>  <SCORE.INTRA.REPUL>
0.0035577

>  <SCORE.INTRA.REPUL.0>
0

>  <SCORE.INTRA.SOLV>
-3.07648

>  <SCORE.INTRA.SOLV.lig_0>
-64.052

>  <SCORE.INTRA.VDW>
4.40791

>  <SCORE.INTRA.VDW.0>
-7.0667

>  <SCORE.INTRA.norm>
0.208909

>  <SCORE.RESTR>
0.94165

>  <SCORE.RESTR.CAVITY>
0.94165

>  <SCORE.RESTR.norm>
0.0224202

>  <SCORE.SYSTEM>
0

>  <SCORE.SYSTEM.CONST>
0

>  <SCORE.SYSTEM.DIHEDRAL>
0

>  <SCORE.SYSTEM.SOLV>
0

>  <SCORE.SYSTEM.norm>
0

>  <SCORE.heavy>
42

>  <SCORE.norm>
0.164157

>  <RMSD>
9.488

$$$$
1fyp_lig
 OpenBabel11021811393D
libRbt.so/2013.1/901 2013/11/27
 42 45  0  0  0  0  0  0  0  0999 V2000
    0.5366    2.6532   28.6007 C   0  0  2  0  0  0  0  0  0  0  0  0
    1.1214    1.7952   29.6226 O   0  0  0  0  0  0  0  0  0  0  0  0
    2.7786    4.9953   31.9148 C   0  0  2  0  0  0  0  0  0  0  0  0
    3.5256    5.8463   32.8593 N   0  0  0  0  0  0  0  0  0  0  0  0
    4.9464    3.5432   28.3612 C   0  0  1  0  0  0  0  0  0  0  0  0
    7.1292    5.8614   26.7631 C   0  0  1  0  0  0  0  0  0  0  0  0
   -1.0165    2.4919   28.5380 C   0  0  2  0  0  0  0  0  0  0  0  0
   -1.6247    2.6320   29.8782 N   0  0  0  0  0  0  0  0  0  0  0  0
    2.0473    3.8838   32.6938 C   0  0  0  0  0  0  0  0  0  0  0  0
    5.5401    2.7189   27.2159 C   0  0  2  0  0  0  0  0  0  0  0  0
    6.7189    2.0521   27.6690 O   0  0  0  0  0  0  0  0  0  0  0  0
    8.3049    6.6050   26.0588 C   0  0  2  0  0  0  0  0  0  0  0  0
    9.6064    5.9168   26.2396 N   0  0  0  0  0  0  0  0  0  0  0  0
   -1.4080    1.1193   27.9064 C   0  0  1  0  0  0  0  0  0  0  0  0
   -2.8182    1.0529   27.7099 O   0  0  0  0  0  0  0  0  0  0  0  0
    1.2149    2.9623   31.7609 C   0  0  2  0  0  0  0  0  0  0  0  0
    0.6257    1.8921   32.5922 N   0  0  0  0  0  0  0  0  0  0  0  0
    5.8752    3.8042   26.1892 C   0  0  2  0  0  0  0  0  0  0  0  0
    7.1529    4.4395   26.4727 O   0  0  0  0  0  0  0  0  0  0  0  0
    8.3800    8.0919   26.5240 C   0  0  1  0  0  0  0  0  0  0  0  0
    7.3000    8.8083   25.9291 O   0  0  0  0  0  0  0  0  0  0  0  0
   -0.7093    0.8924   26.5424 C   0  0  2  0  0  0  0  0  0  0  0  0
   -1.0325   -0.4102   26.0654 O   0  0  0  0  0  0  0  0  0  0  0  0
    2.0601    2.3696   30.5767 C   0  0  2  0  0  0  0  0  0  0  0  0
    4.7226    4.7991   26.3848 C   0  0  2  0  0  0  0  0  0  0  0  0
    4.3629    4.7192   27.7777 O   0  0  0  0  0  0  0  0  0  0  0  0
    8.2978    8.2803   28.0692 C   0  0  2  0  0  0  0  0  0  0  0  0
    9.5354    7.8583   28.6446 O   0  0  0  0  0  0  0  0  0  0  0  0
    0.8301    1.0548   26.6903 C   0  0  2  0  0  0  0  0  0  0  0  0
    1.1187    2.3549   27.2872 O   0  0  0  0  0  0  0  0  0  0  0  0
    2.9411    3.4512   29.8526 C   0  0  2  0  0  0  0  0  0  0  0  0
    3.9126    2.7612   29.0241 O   0  0  0  0  0  0  0  0  0  0  0  0
    3.5000    4.4864   25.5039 C   0  0  0  0  0  0  0  0  0  0  0  0
    3.7608    4.8022   24.1474 O   0  0  0  0  0  0  0  0  0  0  0  0
    7.1166    7.4538   28.6659 C   0  0  1  0  0  0  0  0  0  0  0  0
    7.2101    6.0682   28.2143 O   0  0  0  0  0  0  0  0  0  0  0  0
    1.6194    0.9924   25.3636 C   0  0  0  0  0  0  0  0  0  0  0  0
    2.9530    1.4411   25.5362 O   0  0  0  0  0  0  0  0  0  0  0  0
    3.7114    4.3741   30.8473 C   0  0  1  0  0  0  0  0  0  0  0  0
    4.3404    5.4207   30.1094 O   0  0  0  0  0  0  0  0  0  0  0  0
    7.0913    7.4799   30.2157 C   0  0  0  0  0  0  0  0  0  0  0  0
    6.9184    6.1371   30.7988 N   0  0  0  0  0  0  0  0  0  0  0  0
  1  2  1  1  0  0  0
  1  7  1  0  0  0  0
  1 30  1  0  0  0  0
  3  4  1  1  0  0  0
  3  9  1  0  0  0  0
  3 39  1  0  0  0  0
  5 10  1  0  0  0  0
  5 26  1  0  0  0  0
  5 32  1  6  0  0  0
  6 12  1  0  0  0  0
  6 36  1  0  0  0  0
  6 19  1  1  0  0  0
  7  8  1  1  0  0  0
  7 14  1  0  0  0  0
  9 16  1  0  0  0  0
 10 11  1  1  0  0  0
 10 18  1  0  0  0  0
 12 13  1  1  0  0  0
 12 20  1  0  0  0  0
 14 15  1  6  0  0  0
 14 22  1  0  0  0  0
 16 17  1  1  0  0  0
 16 24  1  0  0  0  0
 18 19  1  1  0  0  0
 18 25  1  0  0  0  0
 20 21  1  6  0  0  0
 20 27  1  0  0  0  0
 22 23  1  1  0  0  0
 22 29  1  0  0  0  0
 24  2  1  6  0  0  0
 24 31  1  0  0  0  0
 25 26  1  0  0  0  0
 25 33  1  6  0  0  0
 27 28  1  1  0  0  0
 27 35  1  0  0  0  0
 29 30  1  0  0  0  0
 29 37  1  6  0  0  0
 31 32  1  6  0  0  0
 31 39  1  0  0  0  0
 33 34  1  0  0  0  0
 35 36  1  0  0  0  0
 35 41  1  1  0  0  0
 37 38  1  0  0  0  0
 39 40  1  6  0  0  0
 41 42  1  0  0  0  0
M  END
>  <CHROM.1>
-130.62975854,86.35198985,-179.15795345,54.72522669,-161.12032715,-79.56428207
-38.61014390,-72.99790135,-118.00681102,-138.03698882,-56.29306393,66.36725089
-72.71546768,-83.60337919,166.85326872,-173.30520378,-161.39792178,-58.03767792
-132.42663693,81.04804072,-57.92292167,57.70102028,3.82169743,4.03891089
28.26331579,3.07433591,-0.57555682,-1.86247696

>  <Name>
1fyp_lig

>  <RI>
0

>  <Rbt.Current_Directory>
/home/itssahil/PROJECTS/Mol_Feturizer/New_Systems/rnas/1fyp

>  <Rbt.Executable>
rbdock ($Id: //depot/dev/client3/rdock/2013.1/src/exe/rbdock.cxx#4 $)

>  <Rbt.Library>
libRbt.so (2013.1, Build901 2013/11/27)

>  <Rbt.Parameter_File>
/export/apps/rDock/src/rDock_2013.1_src/data/scripts/dock_solv.prm

>  <Rbt.Receptor>
prm/blind_docking_40.prm

>  <SCORE>
-28.5885

>  <SCORE.INTER>
-34.1528

>  <SCORE.INTER.CONST>
1

>  <SCORE.INTER.POLAR>
-4.51945

>  <SCORE.INTER.ROT>
14

>  <SCORE.INTER.SOLV>
18.3998

>  <SCORE.INTER.VDW>
-26.7703

>  <SCORE.INTER.norm>
-0.813161

>  <SCORE.INTRA>
4.73974

>  <SCORE.INTRA.DIHEDRAL>
-8.93191

>  <SCORE.INTRA.DIHEDRAL.0>
48.7173

>  <SCORE.INTRA.POLAR>
0.481867

>  <SCORE.INTRA.POLAR.0>
-1.54691

>  <SCORE.INTRA.REPUL>
0.0395919

>  <SCORE.INTRA.REPUL.0>
0

>  <SCORE.INTRA.SOLV>
1.1846

>  <SCORE.INTRA.SOLV.lig_0>
-64.052

>  <SCORE.INTRA.VDW>
6.77709

>  <SCORE.INTRA.VDW.0>
-7.0667

>  <SCORE.INTRA.norm>
0.112851

>  <SCORE.RESTR>
0.824474

>  <SCORE.RESTR.CAVITY>
0.824474

>  <SCORE.RESTR.norm>
0.0196303

>  <SCORE.SYSTEM>
0

>  <SCORE.SYSTEM.CONST>
0

>  <SCORE.SYSTEM.DIHEDRAL>
0

>  <SCORE.SYSTEM.SOLV>
0

>  <SCORE.SYSTEM.norm>
0

>  <SCORE.heavy>
42

>  <SCORE.norm>
-0.68068

>  <RMSD>
9.520

$$$$
1fyp_lig
 OpenBabel11021811393D
libRbt.so/2013.1/901 2013/11/27
 42 45  0  0  0  0  0  0  0  0999 V2000
    3.9352    3.7031   26.4616 C   0  0  2  0  0  0  0  0  0  0  0  0
    2.9385    4.6334   25.9483 O   0  0  0  0  0  0  0  0  0  0  0  0
    2.6440    8.5334   24.2325 C   0  0  2  0  0  0  0  0  0  0  0  0
    2.7252    9.9715   23.9169 N   0  0  0  0  0  0  0  0  0  0  0  0
    6.2243    6.3524   25.5366 C   0  0  1  0  0  0  0  0  0  0  0  0
    9.6401    7.9370   27.7202 C   0  0  1  0  0  0  0  0  0  0  0  0
    3.5603    2.2225   26.1308 C   0  0  2  0  0  0  0  0  0  0  0  0
    3.2478    2.0563   24.6954 N   0  0  0  0  0  0  0  0  0  0  0  0
    2.0779    8.3516   25.6550 C   0  0  0  0  0  0  0  0  0  0  0  0
    7.6260    5.7819   25.3051 C   0  0  2  0  0  0  0  0  0  0  0  0
    7.8183    4.6367   26.1364 O   0  0  0  0  0  0  0  0  0  0  0  0
   11.0964    7.6255   27.2585 C   0  0  2  0  0  0  0  0  0  0  0  0
   11.4565    6.1966   27.4285 N   0  0  0  0  0  0  0  0  0  0  0  0
    2.3593    1.7443   27.0053 C   0  0  1  0  0  0  0  0  0  0  0  0
    2.1318    0.3510   26.8085 O   0  0  0  0  0  0  0  0  0  0  0  0
    1.9388    6.8547   26.0454 C   0  0  2  0  0  0  0  0  0  0  0  0
    1.4686    6.7950   27.4450 N   0  0  0  0  0  0  0  0  0  0  0  0
    8.5158    6.9464   25.7483 C   0  0  2  0  0  0  0  0  0  0  0  0
    8.6985    6.9672   27.1914 O   0  0  0  0  0  0  0  0  0  0  0  0
   12.1189    8.5577   27.9786 C   0  0  1  0  0  0  0  0  0  0  0  0
   12.0056    9.8675   27.4262 O   0  0  0  0  0  0  0  0  0  0  0  0
    2.6092    1.9944   28.5137 C   0  0  2  0  0  0  0  0  0  0  0  0
    1.4446    1.6246   29.2456 O   0  0  0  0  0  0  0  0  0  0  0  0
    3.2730    6.0478   25.8532 C   0  0  2  0  0  0  0  0  0  0  0  0
    7.7029    8.1652   25.2896 C   0  0  2  0  0  0  0  0  0  0  0  0
    6.3187    7.7784   25.3905 O   0  0  0  0  0  0  0  0  0  0  0  0
   11.9118    8.6589   29.5203 C   0  0  2  0  0  0  0  0  0  0  0  0
   12.3450    7.4360   30.1180 O   0  0  0  0  0  0  0  0  0  0  0  0
    2.9607    3.4886   28.7626 C   0  0  2  0  0  0  0  0  0  0  0  0
    4.0860    3.8633   27.9123 O   0  0  0  0  0  0  0  0  0  0  0  0
    3.9629    6.3271   24.4690 C   0  0  2  0  0  0  0  0  0  0  0  0
    5.3199    5.8160   24.5296 O   0  0  0  0  0  0  0  0  0  0  0  0
    8.0274    8.5989   23.8490 C   0  0  0  0  0  0  0  0  0  0  0  0
    7.0431    9.4912   23.3564 O   0  0  0  0  0  0  0  0  0  0  0  0
   10.4126    8.9241   29.8616 C   0  0  1  0  0  0  0  0  0  0  0  0
    9.5741    7.9372   29.1868 O   0  0  0  0  0  0  0  0  0  0  0  0
    3.3713    3.8255   30.2135 C   0  0  0  0  0  0  0  0  0  0  0  0
    2.2662    3.7320   31.0963 O   0  0  0  0  0  0  0  0  0  0  0  0
    4.0255    7.8456   24.1156 C   0  0  1  0  0  0  0  0  0  0  0  0
    4.5071    7.9868   22.7800 O   0  0  0  0  0  0  0  0  0  0  0  0
   10.1279    8.8729   31.3846 C   0  0  0  0  0  0  0  0  0  0  0  0
    8.7142    9.1438   31.7026 N   0  0  0  0  0  0  0  0  0  0  0  0
  1  2  1  1  0  0  0
  1  7  1  0  0  0  0
  1 30  1  0  0  0  0
  3  4  1  1  0  0  0
  3  9  1  0  0  0  0
  3 39  1  0  0  0  0
  5 10  1  0  0  0  0
  5 26  1  0  0  0  0
  5 32  1  6  0  0  0
  6 12  1  0  0  0  0
  6 36  1  0  0  0  0
  6 19  1  6  0  0  0
  7  8  1  6  0  0  0
  7 14  1  0  0  0  0
  9 16  1  0  0  0  0
 10 11  1  1  0  0  0
 10 18  1  0  0  0  0
 12 13  1  1  0  0  0
 12 20  1  0  0  0  0
 14 15  1  1  0  0  0
 14 22  1  0  0  0  0
 16 17  1  1  0  0  0
 16 24  1  0  0  0  0
 18 19  1  1  0  0  0
 18 25  1  0  0  0  0
 20 21  1  6  0  0  0
 20 27  1  0  0  0  0
 22 23  1  1  0  0  0
 22 29  1  0  0  0  0
 24  2  1  6  0  0  0
 24 31  1  0  0  0  0
 25 26  1  0  0  0  0
 25 33  1  6  0  0  0
 27 28  1  1  0  0  0
 27 35  1  0  0  0  0
 29 30  1  0  0  0  0
 29 37  1  1  0  0  0
 31 32  1  1  0  0  0
 31 39  1  0  0  0  0
 33 34  1  0  0  0  0
 35 36  1  0  0  0  0
 35 41  1  1  0  0  0
 37 38  1  0  0  0  0
 39 40  1  6  0  0  0
 41 42  1  0  0  0  0
M  END
>  <CHROM.1>
-164.41114695,-149.88630863,70.50352727,78.07204304,-73.31174202,64.37477700
45.22902895,67.84307826,173.47947046,-65.51678519,-64.70075046,61.61730551
165.44242368,173.56163562,-69.77151239,-59.72727672,-173.70379844,-175.85596974
179.14975132,-70.53788085,98.83436180,178.40405975,6.05182334,6.25900470
26.90011037,-2.94603102,-0.50078424,-0.88785444

>  <Name>
1fyp_lig

>  <RI>
0

>  <Rbt.Current_Directory>
/home/itssahil/PROJECTS/Mol_Feturizer/New_Systems/rnas/1fyp

>  <Rbt.Executable>
rbdock ($Id: //depot/dev/client3/rdock/2013.1/src/exe/rbdock.cxx#4 $)

>  <Rbt.Library>
libRbt.so (2013.1, Build901 2013/11/27)

>  <Rbt.Parameter_File>
/export/apps/rDock/src/rDock_2013.1_src/data/scripts/dock_solv.prm

>  <Rbt.Receptor>
prm/pocket_docking_4.prm

>  <SCORE>
-57.7821

>  <SCORE.INTER>
-43.8451

>  <SCORE.INTER.CONST>
1

>  <SCORE.INTER.POLAR>
-5.39623

>  <SCORE.INTER.ROT>
14

>  <SCORE.INTER.SOLV>
16.1186

>  <SCORE.INTER.VDW>
-29.5488

>  <SCORE.INTER.norm>
-1.04393

>  <SCORE.INTRA>
-14.1316

>  <SCORE.INTRA.DIHEDRAL>
-33.1537

>  <SCORE.INTRA.DIHEDRAL.0>
48.7173

>  <SCORE.INTRA.POLAR>
0.270486

>  <SCORE.INTRA.POLAR.0>
-1.54691

>  <SCORE.INTRA.REPUL>
0

>  <SCORE.INTRA.REPUL.0>
0

>  <SCORE.INTRA.SOLV>
-1.81679

>  <SCORE.INTRA.SOLV.lig_0>
-64.052

>  <SCORE.INTRA.VDW>
2.43398

>  <SCORE.INTRA.VDW.0>
-7.0667

>  <SCORE.INTRA.norm>
-0.336467

>  <SCORE.RESTR>
0.194583

>  <SCORE.RESTR.CAVITY>
0.194583

>  <SCORE.RESTR.norm>
0.00463293

>  <SCORE.SYSTEM>
0

>  <SCORE.SYSTEM.CONST>
0

>  <SCORE.SYSTEM.DIHEDRAL>
0

>  <SCORE.SYSTEM.SOLV>
0

>  <SCORE.SYSTEM.norm>
0

>  <SCORE.heavy>
42

>  <SCORE.norm>
-1.37576

>  <RMSD>
9.521

$$$$
1fyp_lig
 OpenBabel11021811393D
libRbt.so/2013.1/901 2013/11/27
 42 45  0  0  0  0  0  0  0  0999 V2000
    1.0047    0.2143   26.2378 C   0  0  2  0  0  0  0  0  0  0  0  0
    0.7052    1.5694   26.6808 O   0  0  0  0  0  0  0  0  0  0  0  0
    1.8587    3.5601   30.2791 C   0  0  2  0  0  0  0  0  0  0  0  0
    2.5729    4.2198   31.3878 N   0  0  0  0  0  0  0  0  0  0  0  0
    2.7613    4.9562   26.3306 C   0  0  1  0  0  0  0  0  0  0  0  0
    5.8066    6.2837   26.1604 C   0  0  1  0  0  0  0  0  0  0  0  0
    0.7228    0.0358   24.7111 C   0  0  2  0  0  0  0  0  0  0  0  0
    1.3750    1.0990   23.9174 N   0  0  0  0  0  0  0  0  0  0  0  0
    2.4906    2.1796   30.0113 C   0  0  0  0  0  0  0  0  0  0  0  0
    3.1445    4.5722   24.8990 C   0  0  2  0  0  0  0  0  0  0  0  0
    3.8563    3.3343   24.9114 O   0  0  0  0  0  0  0  0  0  0  0  0
    7.3496    6.2357   26.3795 C   0  0  2  0  0  0  0  0  0  0  0  0
    7.9034    4.8661   26.2461 N   0  0  0  0  0  0  0  0  0  0  0  0
   -0.8120    0.0130   24.4279 C   0  0  1  0  0  0  0  0  0  0  0  0
   -1.0549   -0.3083   23.0607 O   0  0  0  0  0  0  0  0  0  0  0  0
    1.7680    1.4140   28.8693 C   0  0  2  0  0  0  0  0  0  0  0  0
    2.4978    0.1494   28.6414 N   0  0  0  0  0  0  0  0  0  0  0  0
    4.0567    5.7341   24.4962 C   0  0  2  0  0  0  0  0  0  0  0  0
    5.4173    5.5431   24.9744 O   0  0  0  0  0  0  0  0  0  0  0  0
    7.7363    6.8730   27.7497 C   0  0  1  0  0  0  0  0  0  0  0  0
    7.5883    8.2878   27.6496 O   0  0  0  0  0  0  0  0  0  0  0  0
   -1.5463   -1.0230   25.3155 C   0  0  2  0  0  0  0  0  0  0  0  0
   -2.9475   -0.9292   25.0773 O   0  0  0  0  0  0  0  0  0  0  0  0
    1.6526    2.2562   27.5481 C   0  0  2  0  0  0  0  0  0  0  0  0
    3.3965    6.9233   25.2078 C   0  0  2  0  0  0  0  0  0  0  0  0
    2.8133    6.3896   26.4123 O   0  0  0  0  0  0  0  0  0  0  0  0
    6.8734    6.3760   28.9489 C   0  0  2  0  0  0  0  0  0  0  0  0
    7.2637    5.0390   29.2660 O   0  0  0  0  0  0  0  0  0  0  0  0
   -1.2282   -0.7704   26.8166 C   0  0  2  0  0  0  0  0  0  0  0  0
    0.2191   -0.7601   27.0035 O   0  0  0  0  0  0  0  0  0  0  0  0
    1.1556    3.7256   27.8009 C   0  0  2  0  0  0  0  0  0  0  0  0
    1.4050    4.4996   26.5988 O   0  0  0  0  0  0  0  0  0  0  0  0
    2.3147    7.6109   24.3560 C   0  0  0  0  0  0  0  0  0  0  0  0
    2.1881    8.9777   24.7075 O   0  0  0  0  0  0  0  0  0  0  0  0
    5.3543    6.4245   28.5961 C   0  0  1  0  0  0  0  0  0  0  0  0
    5.1215    5.7278   27.3339 O   0  0  0  0  0  0  0  0  0  0  0  0
   -1.7918   -1.8326   27.7868 C   0  0  0  0  0  0  0  0  0  0  0  0
   -3.0881   -2.2517   27.3949 O   0  0  0  0  0  0  0  0  0  0  0  0
    1.8871    4.4191   28.9920 C   0  0  1  0  0  0  0  0  0  0  0  0
    1.2559    5.6721   29.2515 O   0  0  0  0  0  0  0  0  0  0  0  0
    4.4644    5.7900   29.6955 C   0  0  0  0  0  0  0  0  0  0  0  0
    4.8442    4.3972   29.9932 N   0  0  0  0  0  0  0  0  0  0  0  0
  1  2  1  1  0  0  0
  1  7  1  0  0  0  0
  1 30  1  0  0  0  0
  3  4  1  1  0  0  0
  3  9  1  0  0  0  0
  3 39  1  0  0  0  0
  5 10  1  0  0  0  0
  5 26  1  0  0  0  0
  5 32  1  6  0  0  0
  6 12  1  0  0  0  0
  6 36  1  0  0  0  0
  6 19  1  6  0  0  0
  7  8  1  6  0  0  0
  7 14  1  0  0  0  0
  9 16  1  0  0  0  0
 10 11  1  1  0  0  0
 10 18  1  0  0  0  0
 12 13  1  1  0  0  0
 12 20  1  0  0  0  0
 14 15  1  6  0  0  0
 14 22  1  0  0  0  0
 16 17  1  6  0  0  0
 16 24  1  0  0  0  0
 18 19  1  1  0  0  0
 18 25  1  0  0  0  0
 20 21  1  6  0  0  0
 20 27  1  0  0  0  0
 22 23  1  1  0  0  0
 22 29  1  0  0  0  0
 24  2  1  6  0  0  0
 24 31  1  0  0  0  0
 25 26  1  0  0  0  0
 25 33  1  6  0  0  0
 27 28  1  6  0  0  0
 27 35  1  0  0  0  0
 29 30  1  0  0  0  0
 29 37  1  1  0  0  0
 31 32  1  6  0  0  0
 31 39  1  0  0  0  0
 33 34  1  0  0  0  0
 35 36  1  0  0  0  0
 35 41  1  1  0  0  0
 37 38  1  0  0  0  0
 39 40  1  1  0  0  0
 41 42  1  0  0  0  0
M  END
>  <CHROM.1>
-134.98833302,-61.23806779,-162.45391959,69.58870068,50.59496372,60.58395225
-166.78937578,-62.26974135,-101.43102625,-167.52303059,-61.32901408,71.62337166
-152.28931317,161.96566661,-39.28866106,-77.51311944,129.45921670,67.84307547
-56.28095543,65.03778602,59.99328313,175.67681475,2.61756577,3.50257321,26.94755926
-3.00298120,-0.80546320,-1.20693693

>  <Name>
1fyp_lig

>  <RI>
0

>  <Rbt.Current_Directory>
/home/itssahil/PROJECTS/Mol_Feturizer/New_Systems/rnas/1fyp

>  <Rbt.Executable>
rbdock ($Id: //depot/dev/client3/rdock/2013.1/src/exe/rbdock.cxx#4 $)

>  <Rbt.Library>
libRbt.so (2013.1, Build901 2013/11/27)

>  <Rbt.Parameter_File>
/export/apps/rDock/src/rDock_2013.1_src/data/scripts/dock_solv.prm

>  <Rbt.Receptor>
prm/blind_docking_60.prm

>  <SCORE>
-24.0711

>  <SCORE.INTER>
-29.7134

>  <SCORE.INTER.CONST>
1

>  <SCORE.INTER.POLAR>
-4.5443

>  <SCORE.INTER.ROT>
14

>  <SCORE.INTER.SOLV>
19.7418

>  <SCORE.INTER.VDW>
-24.1752

>  <SCORE.INTER.norm>
-0.707463

>  <SCORE.INTRA>
5.22429

>  <SCORE.INTRA.DIHEDRAL>
-19.5684

>  <SCORE.INTRA.DIHEDRAL.0>
48.7173

>  <SCORE.INTRA.POLAR>
0.787256

>  <SCORE.INTRA.POLAR.0>
-1.54691

>  <SCORE.INTRA.REPUL>
0.00405436

>  <SCORE.INTRA.REPUL.0>
0

>  <SCORE.INTRA.SOLV>
1.98055

>  <SCORE.INTRA.SOLV.lig_0>
-64.052

>  <SCORE.INTRA.VDW>
11.3213

>  <SCORE.INTRA.VDW.0>
-7.0667

>  <SCORE.INTRA.norm>
0.124388

>  <SCORE.RESTR>
0.418038

>  <SCORE.RESTR.CAVITY>
0.418038

>  <SCORE.RESTR.norm>
0.0099533

>  <SCORE.SYSTEM>
0

>  <SCORE.SYSTEM.CONST>
0

>  <SCORE.SYSTEM.DIHEDRAL>
0

>  <SCORE.SYSTEM.SOLV>
0

>  <SCORE.SYSTEM.norm>
0

>  <SCORE.heavy>
42

>  <SCORE.norm>
-0.573122

>  <RMSD>
9.534

$$$$
1fyp_lig
 OpenBabel11021811393D
libRbt.so/2013.1/901 2013/11/27
 42 45  0  0  0  0  0  0  0  0999 V2000
    3.1275    4.4616   26.5750 C   0  0  2  0  0  0  0  0  0  0  0  0
    2.8699    5.0012   25.2465 O   0  0  0  0  0  0  0  0  0  0  0  0
    5.1462    7.9649   23.1787 C   0  0  2  0  0  0  0  0  0  0  0  0
    5.7149    9.2055   22.6200 N   0  0  0  0  0  0  0  0  0  0  0  0
    6.1762    6.3382   27.3811 C   0  0  1  0  0  0  0  0  0  0  0  0
    9.2799    7.5909   29.4631 C   0  0  1  0  0  0  0  0  0  0  0  0
    3.0450    2.9011   26.5847 C   0  0  2  0  0  0  0  0  0  0  0  0
    3.8757    2.3134   25.5122 N   0  0  0  0  0  0  0  0  0  0  0  0
    3.6328    7.9183   22.8884 C   0  0  0  0  0  0  0  0  0  0  0  0
    6.3628    7.2364   28.6068 C   0  0  2  0  0  0  0  0  0  0  0  0
    7.1229    8.3892   28.2423 O   0  0  0  0  0  0  0  0  0  0  0  0
   10.8250    7.3816   29.4663 C   0  0  2  0  0  0  0  0  0  0  0  0
   11.2445    6.2343   30.3079 N   0  0  0  0  0  0  0  0  0  0  0  0
    1.5660    2.4215   26.4484 C   0  0  1  0  0  0  0  0  0  0  0  0
    1.4897    1.0083   26.6182 O   0  0  0  0  0  0  0  0  0  0  0  0
    2.9707    6.6206   23.4270 C   0  0  2  0  0  0  0  0  0  0  0  0
    1.5186    6.7145   23.1700 N   0  0  0  0  0  0  0  0  0  0  0  0
    7.1540    6.3232   29.5473 C   0  0  2  0  0  0  0  0  0  0  0  0
    8.5770    6.3399   29.2451 O   0  0  0  0  0  0  0  0  0  0  0  0
   11.5623    8.6911   29.8842 C   0  0  1  0  0  0  0  0  0  0  0  0
   11.4845    9.6196   28.8046 O   0  0  0  0  0  0  0  0  0  0  0  0
    0.6433    3.0940   27.4957 C   0  0  2  0  0  0  0  0  0  0  0  0
   -0.7014    2.6881   27.2595 O   0  0  0  0  0  0  0  0  0  0  0  0
    3.2691    6.3700   24.9489 C   0  0  2  0  0  0  0  0  0  0  0  0
    6.5528    4.9449   29.2386 C   0  0  2  0  0  0  0  0  0  0  0  0
    6.1761    4.9797   27.8484 O   0  0  0  0  0  0  0  0  0  0  0  0
   10.9757    9.3732   31.1573 C   0  0  2  0  0  0  0  0  0  0  0  0
   11.3445    8.5976   32.2988 O   0  0  0  0  0  0  0  0  0  0  0  0
    0.7705    4.6416   27.4132 C   0  0  2  0  0  0  0  0  0  0  0  0
    2.1754    5.0138   27.5454 O   0  0  0  0  0  0  0  0  0  0  0  0
    4.7858    6.5605   25.3143 C   0  0  2  0  0  0  0  0  0  0  0  0
    4.8953    6.6419   26.7592 O   0  0  0  0  0  0  0  0  0  0  0  0
    5.3289    4.6119   30.1102 C   0  0  0  0  0  0  0  0  0  0  0  0
    4.7115    3.4124   29.6769 O   0  0  0  0  0  0  0  0  0  0  0  0
    9.4224    9.4843   31.0603 C   0  0  1  0  0  0  0  0  0  0  0  0
    8.8561    8.1768   30.7407 O   0  0  0  0  0  0  0  0  0  0  0  0
    0.0033    5.4149   28.5089 C   0  0  0  0  0  0  0  0  0  0  0  0
   -1.1731    4.7259   28.8975 O   0  0  0  0  0  0  0  0  0  0  0  0
    5.4014    7.8566   24.7014 C   0  0  1  0  0  0  0  0  0  0  0  0
    6.8079    7.8548   24.9413 O   0  0  0  0  0  0  0  0  0  0  0  0
    8.7775   10.0085   32.3690 C   0  0  0  0  0  0  0  0  0  0  0  0
    7.3064   10.0589   32.2909 N   0  0  0  0  0  0  0  0  0  0  0  0
  1  2  1  6  0  0  0
  1  7  1  0  0  0  0
  1 30  1  0  0  0  0
  3  4  1  1  0  0  0
  3  9  1  0  0  0  0
  3 39  1  0  0  0  0
  5 10  1  0  0  0  0
  5 26  1  0  0  0  0
  5 32  1  1  0  0  0
  6 12  1  0  0  0  0
  6 36  1  0  0  0  0
  6 19  1  1  0  0  0
  7  8  1  6  0  0  0
  7 14  1  0  0  0  0
  9 16  1  0  0  0  0
 10 11  1  6  0  0  0
 10 18  1  0  0  0  0
 12 13  1  1  0  0  0
 12 20  1  0  0  0  0
 14 15  1  1  0  0  0
 14 22  1  0  0  0  0
 16 17  1  1  0  0  0
 16 24  1  0  0  0  0
 18 19  1  6  0  0  0
 18 25  1  0  0  0  0
 20 21  1  6  0  0  0
 20 27  1  0  0  0  0
 22 23  1  6  0  0  0
 22 29  1  0  0  0  0
 24  2  1  6  0  0  0
 24 31  1  0  0  0  0
 25 26  1  0  0  0  0
 25 33  1  1  0  0  0
 27 28  1  1  0  0  0
 27 35  1  0  0  0  0
 29 30  1  0  0  0  0
 29 37  1  1  0  0  0
 31 32  1  1  0  0  0
 31 39  1  0  0  0  0
 33 34  1  0  0  0  0
 35 36  1  0  0  0  0
 35 41  1  1  0  0  0
 37 38  1  0  0  0  0
 39 40  1  6  0  0  0
 41 42  1  0  0  0  0
M  END
>  <CHROM.1>
-162.63394709,175.51387928,-177.48400367,169.39571112,174.43201635,89.24329812
-167.07724053,62.26663482,65.80556749,165.06115463,-171.95984883,68.78755881
172.65819721,-48.82349792,-31.80781466,158.12409240,145.38043706,76.72684261
-177.63719894,-73.01830977,69.82651424,-70.64883476,5.48868133,6.29399696
27.72642725,2.92780585,-0.59028352,-1.15483811

>  <Name>
1fyp_lig

>  <RI>
0

>  <Rbt.Current_Directory>
/home/itssahil/PROJECTS/Mol_Feturizer/New_Systems/rnas/1fyp

>  <Rbt.Executable>
rbdock ($Id: //depot/dev/client3/rdock/2013.1/src/exe/rbdock.cxx#4 $)

>  <Rbt.Library>
libRbt.so (2013.1, Build901 2013/11/27)

>  <Rbt.Parameter_File>
/export/apps/rDock/src/rDock_2013.1_src/data/scripts/dock_solv.prm

>  <Rbt.Receptor>
prm/pocket_docking_8.prm

>  <SCORE>
-42.0283

>  <SCORE.INTER>
-32.9805

>  <SCORE.INTER.CONST>
1

>  <SCORE.INTER.POLAR>
-4.31105

>  <SCORE.INTER.ROT>
14

>  <SCORE.INTER.SOLV>
16.0115

>  <SCORE.INTER.VDW>
-25.8873

>  <SCORE.INTER.norm>
-0.78525

>  <SCORE.INTRA>
-9.04781

>  <SCORE.INTRA.DIHEDRAL>
-30.0338

>  <SCORE.INTRA.DIHEDRAL.0>
48.7173

>  <SCORE.INTRA.POLAR>
1.00952

>  <SCORE.INTRA.POLAR.0>
-1.54691

>  <SCORE.INTRA.REPUL>
0.0207726

>  <SCORE.INTRA.REPUL.0>
0

>  <SCORE.INTRA.SOLV>
-1.206

>  <SCORE.INTRA.SOLV.lig_0>
-64.052

>  <SCORE.INTRA.VDW>
3.03584

>  <SCORE.INTRA.VDW.0>
-7.0667

>  <SCORE.INTRA.norm>
-0.215424

>  <SCORE.RESTR>
0

>  <SCORE.RESTR.CAVITY>
0

>  <SCORE.RESTR.norm>
0

>  <SCORE.SYSTEM>
0

>  <SCORE.SYSTEM.CONST>
0

>  <SCORE.SYSTEM.DIHEDRAL>
0

>  <SCORE.SYSTEM.SOLV>
0

>  <SCORE.SYSTEM.norm>
0

>  <SCORE.heavy>
42

>  <SCORE.norm>
-1.00067

>  <RMSD>
9.558

$$$$
1fyp_lig
 OpenBabel11021811393D
libRbt.so/2013.1/901 2013/11/27
 42 45  0  0  0  0  0  0  0  0999 V2000
    3.6924    3.6157   26.3914 C   0  0  2  0  0  0  0  0  0  0  0  0
    3.9586    3.1840   27.7571 O   0  0  0  0  0  0  0  0  0  0  0  0
    0.1254    2.4235   29.4802 C   0  0  2  0  0  0  0  0  0  0  0  0
   -1.0816    1.8374   30.0919 N   0  0  0  0  0  0  0  0  0  0  0  0
    4.1668    3.8820   31.5823 C   0  0  1  0  0  0  0  0  0  0  0  0
    6.5288    6.6587   34.0119 C   0  0  1  0  0  0  0  0  0  0  0  0
    5.0029    4.0624   25.6667 C   0  0  2  0  0  0  0  0  0  0  0  0
    6.0606    3.0370   25.7908 N   0  0  0  0  0  0  0  0  0  0  0  0
    0.4841    1.6406   28.2014 C   0  0  0  0  0  0  0  0  0  0  0  0
    5.3269    3.3990   32.4567 C   0  0  2  0  0  0  0  0  0  0  0  0
    4.8254    2.9828   33.7275 O   0  0  0  0  0  0  0  0  0  0  0  0
    5.8370    7.5644   35.0759 C   0  0  2  0  0  0  0  0  0  0  0  0
    4.4378    7.9016   34.7166 N   0  0  0  0  0  0  0  0  0  0  0  0
    5.5073    5.4307   26.2229 C   0  0  1  0  0  0  0  0  0  0  0  0
    6.6073    5.9011   25.4481 O   0  0  0  0  0  0  0  0  0  0  0  0
    1.7347    2.2224   27.4874 C   0  0  2  0  0  0  0  0  0  0  0  0
    2.0369    1.3562   26.3289 N   0  0  0  0  0  0  0  0  0  0  0  0
    6.1746    4.6678   32.5820 C   0  0  2  0  0  0  0  0  0  0  0  0
    5.6763    5.5489   33.6269 O   0  0  0  0  0  0  0  0  0  0  0  0
    6.6793    8.8497   35.3438 C   0  0  1  0  0  0  0  0  0  0  0  0
    7.8310    8.4871   36.1024 O   0  0  0  0  0  0  0  0  0  0  0  0
    4.3934    6.5074   26.2014 C   0  0  2  0  0  0  0  0  0  0  0  0
    4.8871    7.6993   26.8049 O   0  0  0  0  0  0  0  0  0  0  0  0
    2.9749    2.3569   28.4424 C   0  0  2  0  0  0  0  0  0  0  0  0
    5.9944    5.3129   31.2007 C   0  0  2  0  0  0  0  0  0  0  0  0
    4.6700    4.9504   30.7644 O   0  0  0  0  0  0  0  0  0  0  0  0
    7.1563    9.5789   34.0513 C   0  0  2  0  0  0  0  0  0  0  0  0
    6.0330   10.2314   33.4571 O   0  0  0  0  0  0  0  0  0  0  0  0
    3.1322    5.9950   26.9530 C   0  0  2  0  0  0  0  0  0  0  0  0
    2.7218    4.7161   26.3822 O   0  0  0  0  0  0  0  0  0  0  0  0
    2.6146    3.0141   29.8238 C   0  0  2  0  0  0  0  0  0  0  0  0
    3.7210    2.7852   30.7349 O   0  0  0  0  0  0  0  0  0  0  0  0
    7.0380    4.8395   30.1733 C   0  0  0  0  0  0  0  0  0  0  0  0
    6.8094    3.4902   29.8062 O   0  0  0  0  0  0  0  0  0  0  0  0
    7.7861    8.5667   33.0446 C   0  0  1  0  0  0  0  0  0  0  0  0
    6.8645    7.4554   32.8253 O   0  0  0  0  0  0  0  0  0  0  0  0
    1.9045    6.9296   26.8721 C   0  0  0  0  0  0  0  0  0  0  0  0
    0.7177    6.2548   27.2535 O   0  0  0  0  0  0  0  0  0  0  0  0
    1.3215    2.4186   30.4624 C   0  0  1  0  0  0  0  0  0  0  0  0
    0.9831    3.1872   31.6159 O   0  0  0  0  0  0  0  0  0  0  0  0
    8.1291    9.2161   31.6794 C   0  0  0  0  0  0  0  0  0  0  0  0
    8.7611    8.2655   30.7466 N   0  0  0  0  0  0  0  0  0  0  0  0
  1  2  1  1  0  0  0
  1  7  1  0  0  0  0
  1 30  1  0  0  0  0
  3  4  1  1  0  0  0
  3  9  1  0  0  0  0
  3 39  1  0  0  0  0
  5 10  1  0  0  0  0
  5 26  1  0  0  0  0
  5 32  1  6  0  0  0
  6 12  1  0  0  0  0
  6 36  1  0  0  0  0
  6 19  1  6  0  0  0
  7  8  1  1  0  0  0
  7 14  1  0  0  0  0
  9 16  1  0  0  0  0
 10 11  1  1  0  0  0
 10 18  1  0  0  0  0
 12 13  1  6  0  0  0
 12 20  1  0  0  0  0
 14 15  1  6  0  0  0
 14 22  1  0  0  0  0
 16 17  1  6  0  0  0
 16 24  1  0  0  0  0
 18 19  1  1  0  0  0
 18 25  1  0  0  0  0
 20 21  1  6  0  0  0
 20 27  1  0  0  0  0
 22 23  1  1  0  0  0
 22 29  1  0  0  0  0
 24  2  1  6  0  0  0
 24 31  1  0  0  0  0
 25 26  1  0  0  0  0
 25 33  1  6  0  0  0
 27 28  1  6  0  0  0
 27 35  1  0  0  0  0
 29 30  1  0  0  0  0
 29 37  1  6  0  0  0
 31 32  1  1  0  0  0
 31 39  1  0  0  0  0
 33 34  1  0  0  0  0
 35 36  1  0  0  0  0
 35 41  1  6  0  0  0
 37 38  1  0  0  0  0
 39 40  1  1  0  0  0
 41 42  1  0  0  0  0
M  END
>  <CHROM.1>
-160.99177568,-4.38993131,41.91851250,-15.60720063,-73.35196174,-44.19910646
48.65065829,-52.96379820,168.91623976,176.63187514,-57.20036980,-77.33966306
70.44312214,64.92146971,164.14984431,136.73464375,179.51171454,-175.94220622
178.26905755,-58.10078359,-58.52318631,56.35789814,4.53126212,5.20999698
30.17775016,-2.32441049,0.77626583,1.52430273

>  <Name>
1fyp_lig

>  <RI>
0

>  <Rbt.Current_Directory>
/home/itssahil/PROJECTS/Mol_Feturizer/New_Systems/rnas/1fyp

>  <Rbt.Executable>
rbdock ($Id: //depot/dev/client3/rdock/2013.1/src/exe/rbdock.cxx#4 $)

>  <Rbt.Library>
libRbt.so (2013.1, Build901 2013/11/27)

>  <Rbt.Parameter_File>
/export/apps/rDock/src/rDock_2013.1_src/data/scripts/dock_solv.prm

>  <Rbt.Receptor>
prm/pocket_docking_6.prm

>  <SCORE>
-40.177

>  <SCORE.INTER>
-34.9809

>  <SCORE.INTER.CONST>
1

>  <SCORE.INTER.POLAR>
-5.68028

>  <SCORE.INTER.ROT>
14

>  <SCORE.INTER.SOLV>
12.6767

>  <SCORE.INTER.VDW>
-21.5452

>  <SCORE.INTER.norm>
-0.832878

>  <SCORE.INTRA>
-5.32074

>  <SCORE.INTRA.DIHEDRAL>
-25.6863

>  <SCORE.INTRA.DIHEDRAL.0>
48.7173

>  <SCORE.INTRA.POLAR>
1.09389

>  <SCORE.INTRA.POLAR.0>
-1.54691

>  <SCORE.INTRA.REPUL>
0.0272745

>  <SCORE.INTRA.REPUL.0>
0

>  <SCORE.INTRA.SOLV>
-2.07967

>  <SCORE.INTRA.SOLV.lig_0>
-64.052

>  <SCORE.INTRA.VDW>
4.70666

>  <SCORE.INTRA.VDW.0>
-7.0667

>  <SCORE.INTRA.norm>
-0.126684

>  <SCORE.RESTR>
0.124627

>  <SCORE.RESTR.CAVITY>
0.124627

>  <SCORE.RESTR.norm>
0.00296732

>  <SCORE.SYSTEM>
0

>  <SCORE.SYSTEM.CONST>
0

>  <SCORE.SYSTEM.DIHEDRAL>
0

>  <SCORE.SYSTEM.SOLV>
0

>  <SCORE.SYSTEM.norm>
0

>  <SCORE.heavy>
42

>  <SCORE.norm>
-0.956595

>  <RMSD>
9.587

$$$$
1fyp_lig
 OpenBabel11021811393D
libRbt.so/2013.1/901 2013/11/27
 42 45  0  0  0  0  0  0  0  0999 V2000
   -0.7228    2.5436   28.3583 C   0  0  2  0  0  0  0  0  0  0  0  0
    0.5336    1.8061   28.3562 O   0  0  0  0  0  0  0  0  0  0  0  0
    4.5833    2.9643   29.0630 C   0  0  2  0  0  0  0  0  0  0  0  0
    5.9584    3.4914   28.9881 N   0  0  0  0  0  0  0  0  0  0  0  0
    1.4052    5.6150   27.8901 C   0  0  1  0  0  0  0  0  0  0  0  0
    2.9758    8.0066   24.7350 C   0  0  1  0  0  0  0  0  0  0  0  0
   -1.7272    1.9601   29.4036 C   0  0  2  0  0  0  0  0  0  0  0  0
   -1.0962    1.8193   30.7331 N   0  0  0  0  0  0  0  0  0  0  0  0
    4.3213    2.0414   27.8562 C   0  0  0  0  0  0  0  0  0  0  0  0
    2.6604    6.4365   28.1956 C   0  0  2  0  0  0  0  0  0  0  0  0
    2.2851    7.6734   28.8029 O   0  0  0  0  0  0  0  0  0  0  0  0
    4.3918    7.4312   24.4267 C   0  0  2  0  0  0  0  0  0  0  0  0
    5.3958    7.8034   25.4532 N   0  0  0  0  0  0  0  0  0  0  0  0
   -2.2930    0.5866   28.9245 C   0  0  1  0  0  0  0  0  0  0  0  0
   -3.3220    0.1442   29.8061 O   0  0  0  0  0  0  0  0  0  0  0  0
    2.8952    1.4266   27.8850 C   0  0  2  0  0  0  0  0  0  0  0  0
    2.7217    0.6306   26.6521 N   0  0  0  0  0  0  0  0  0  0  0  0
    3.2390    6.6577   26.7953 C   0  0  2  0  0  0  0  0  0  0  0  0
    2.6005    7.7757   26.1179 O   0  0  0  0  0  0  0  0  0  0  0  0
    4.8609    7.8456   22.9979 C   0  0  1  0  0  0  0  0  0  0  0  0
    4.1211    7.0904   22.0409 O   0  0  0  0  0  0  0  0  0  0  0  0
   -2.8750    0.6714   27.4912 C   0  0  2  0  0  0  0  0  0  0  0  0
   -3.2875   -0.6282   27.0792 O   0  0  0  0  0  0  0  0  0  0  0  0
    1.7669    2.5099   28.0322 C   0  0  2  0  0  0  0  0  0  0  0  0
    2.8980    5.3356   26.0938 C   0  0  2  0  0  0  0  0  0  0  0  0
    1.6628    4.8828   26.6812 O   0  0  0  0  0  0  0  0  0  0  0  0
    4.6686    9.3593   22.6790 C   0  0  2  0  0  0  0  0  0  0  0  0
    5.6487   10.1042   23.4036 O   0  0  0  0  0  0  0  0  0  0  0  0
   -1.8137    1.2455   26.5103 C   0  0  2  0  0  0  0  0  0  0  0  0
   -1.3306    2.5236   27.0230 O   0  0  0  0  0  0  0  0  0  0  0  0
    2.0745    3.5646   29.1561 C   0  0  2  0  0  0  0  0  0  0  0  0
    1.1675    4.6846   28.9845 O   0  0  0  0  0  0  0  0  0  0  0  0
    3.9891    4.2636   26.2643 C   0  0  0  0  0  0  0  0  0  0  0  0
    4.5091    3.8677   25.0071 O   0  0  0  0  0  0  0  0  0  0  0  0
    3.2342    9.8304   23.0726 C   0  0  1  0  0  0  0  0  0  0  0  0
    2.9538    9.4473   24.4536 O   0  0  0  0  0  0  0  0  0  0  0  0
   -2.3300    1.5102   25.0783 C   0  0  0  0  0  0  0  0  0  0  0  0
   -2.6714    0.3008   24.4223 O   0  0  0  0  0  0  0  0  0  0  0  0
    3.5374    4.1045   29.1003 C   0  0  1  0  0  0  0  0  0  0  0  0
    3.7712    4.9167   30.2498 O   0  0  0  0  0  0  0  0  0  0  0  0
    3.0462   11.3621   22.9247 C   0  0  0  0  0  0  0  0  0  0  0  0
    3.5582   11.8708   21.6394 N   0  0  0  0  0  0  0  0  0  0  0  0
  1  2  1  6  0  0  0
  1  7  1  0  0  0  0
  1 30  1  0  0  0  0
  3  4  1  6  0  0  0
  3  9  1  0  0  0  0
  3 39  1  0  0  0  0
  5 10  1  0  0  0  0
  5 26  1  0  0  0  0
  5 32  1  1  0  0  0
  6 12  1  0  0  0  0
  6 36  1  0  0  0  0
  6 19  1  1  0  0  0
  7  8  1  1  0  0  0
  7 14  1  0  0  0  0
  9 16  1  0  0  0  0
 10 11  1  6  0  0  0
 10 18  1  0  0  0  0
 12 13  1  1  0  0  0
 12 20  1  0  0  0  0
 14 15  1  1  0  0  0
 14 22  1  0  0  0  0
 16 17  1  6  0  0  0
 16 24  1  0  0  0  0
 18 19  1  6  0  0  0
 18 25  1  0  0  0  0
 20 21  1  6  0  0  0
 20 27  1  0  0  0  0
 22 23  1  6  0  0  0
 22 29  1  0  0  0  0
 24  2  1  1  0  0  0
 24 31  1  0  0  0  0
 25 26  1  0  0  0  0
 25 33  1  1  0  0  0
 27 28  1  1  0  0  0
 27 35  1  0  0  0  0
 29 30  1  0  0  0  0
 29 37  1  6  0  0  0
 31 32  1  6  0  0  0
 31 39  1  0  0  0  0
 33 34  1  0  0  0  0
 35 36  1  0  0  0  0
 35 41  1  1  0  0  0
 37 38  1  0  0  0  0
 39 40  1  1  0  0  0
 41 42  1  0  0  0  0
M  END
>  <CHROM.1>
-148.78788911,-171.09562602,-61.03404434,-71.29981091,73.51970074,-28.03749694
58.69442683,-62.40404301,-174.39482711,-24.61290112,-176.56213822,-57.78585502
-119.62886222,-55.91399798,-66.29427972,-74.26945081,-70.36231734,-174.67470395
46.90778703,-60.08487895,64.44081539,56.73119885,1.90389263,4.69712249,26.62624387
2.19982300,0.51486163,2.30345888

>  <Name>
1fyp_lig

>  <RI>
0

>  <Rbt.Current_Directory>
/home/itssahil/PROJECTS/Mol_Feturizer/New_Systems/rnas/1fyp

>  <Rbt.Executable>
rbdock ($Id: //depot/dev/client3/rdock/2013.1/src/exe/rbdock.cxx#4 $)

>  <Rbt.Library>
libRbt.so (2013.1, Build901 2013/11/27)

>  <Rbt.Parameter_File>
/export/apps/rDock/src/rDock_2013.1_src/data/scripts/dock_solv.prm

>  <Rbt.Receptor>
prm/blind_docking_60.prm

>  <SCORE>
-45.9178

>  <SCORE.INTER>
-49.0045

>  <SCORE.INTER.CONST>
1

>  <SCORE.INTER.POLAR>
-6.47513

>  <SCORE.INTER.ROT>
14

>  <SCORE.INTER.SOLV>
17.0484

>  <SCORE.INTER.VDW>
-29.702

>  <SCORE.INTER.norm>
-1.16677

>  <SCORE.INTRA>
3.08162

>  <SCORE.INTRA.DIHEDRAL>
-28.8853

>  <SCORE.INTRA.DIHEDRAL.0>
48.7173

>  <SCORE.INTRA.POLAR>
1.32237

>  <SCORE.INTRA.POLAR.0>
-1.54691

>  <SCORE.INTRA.REPUL>
0

>  <SCORE.INTRA.REPUL.0>
0

>  <SCORE.INTRA.SOLV>
0.602211

>  <SCORE.INTRA.SOLV.lig_0>
-64.052

>  <SCORE.INTRA.VDW>
12.7271

>  <SCORE.INTRA.VDW.0>
-7.0667

>  <SCORE.INTRA.norm>
0.073372

>  <SCORE.RESTR>
0.00503717

>  <SCORE.RESTR.CAVITY>
0.00503717

>  <SCORE.RESTR.norm>
0.000119933

>  <SCORE.SYSTEM>
0

>  <SCORE.SYSTEM.CONST>
0

>  <SCORE.SYSTEM.DIHEDRAL>
0

>  <SCORE.SYSTEM.SOLV>
0

>  <SCORE.SYSTEM.norm>
0

>  <SCORE.heavy>
42

>  <SCORE.norm>
-1.09328

>  <RMSD>
9.591

$$$$
1fyp_lig
 OpenBabel11021811393D
libRbt.so/2013.1/901 2013/11/27
 42 45  0  0  0  0  0  0  0  0999 V2000
   -0.7384    2.7435   30.1122 C   0  0  2  0  0  0  0  0  0  0  0  0
    0.0690    1.8705   29.2705 O   0  0  0  0  0  0  0  0  0  0  0  0
    0.3218    0.4834   25.2390 C   0  0  2  0  0  0  0  0  0  0  0  0
    0.2869    0.3179   23.7742 N   0  0  0  0  0  0  0  0  0  0  0  0
    2.3853    3.9333   26.5713 C   0  0  1  0  0  0  0  0  0  0  0  0
    3.3911    7.9135   24.8206 C   0  0  1  0  0  0  0  0  0  0  0  0
   -0.0380    3.0278   31.4799 C   0  0  2  0  0  0  0  0  0  0  0  0
    1.3556    3.4812   31.2847 N   0  0  0  0  0  0  0  0  0  0  0  0
   -1.0666    0.9309   25.7380 C   0  0  0  0  0  0  0  0  0  0  0  0
    2.9427    5.1649   27.2898 C   0  0  2  0  0  0  0  0  0  0  0  0
    1.8627    5.9758   27.7542 O   0  0  0  0  0  0  0  0  0  0  0  0
    2.5842    8.4274   23.5894 C   0  0  2  0  0  0  0  0  0  0  0  0
    2.3265    7.3621   22.5899 N   0  0  0  0  0  0  0  0  0  0  0  0
   -0.0733    1.7647   32.3960 C   0  0  1  0  0  0  0  0  0  0  0  0
    0.4243    2.0839   33.6930 O   0  0  0  0  0  0  0  0  0  0  0  0
   -1.1105    1.0990   27.2814 C   0  0  2  0  0  0  0  0  0  0  0  0
   -2.4513    1.6045   27.6425 N   0  0  0  0  0  0  0  0  0  0  0  0
    3.7166    5.8599   26.1662 C   0  0  2  0  0  0  0  0  0  0  0  0
    2.8436    6.6697   25.3302 O   0  0  0  0  0  0  0  0  0  0  0  0
    3.2878    9.6579   22.9382 C   0  0  1  0  0  0  0  0  0  0  0  0
    3.1040   10.7878   23.7886 O   0  0  0  0  0  0  0  0  0  0  0  0
   -1.5084    1.2002   32.5441 C   0  0  2  0  0  0  0  0  0  0  0  0
   -1.4595    0.0008   33.3109 O   0  0  0  0  0  0  0  0  0  0  0  0
    0.0234    2.0410   27.8247 C   0  0  2  0  0  0  0  0  0  0  0  0
    4.2710    4.6686   25.3726 C   0  0  2  0  0  0  0  0  0  0  0  0
    3.2970    3.6155   25.5076 O   0  0  0  0  0  0  0  0  0  0  0  0
    4.8171    9.4667   22.7049 C   0  0  2  0  0  0  0  0  0  0  0  0
    5.0006    8.5663   21.6112 O   0  0  0  0  0  0  0  0  0  0  0  0
   -2.1299    0.9301   31.1445 C   0  0  2  0  0  0  0  0  0  0  0  0
   -2.0597    2.1500   30.3465 O   0  0  0  0  0  0  0  0  0  0  0  0
    1.4352    1.7120   27.2175 C   0  0  2  0  0  0  0  0  0  0  0  0
    2.3225    2.8225   27.5104 O   0  0  0  0  0  0  0  0  0  0  0  0
    5.6419    4.1899   25.8825 C   0  0  0  0  0  0  0  0  0  0  0  0
    6.6674    5.0856   25.4906 O   0  0  0  0  0  0  0  0  0  0  0  0
    5.5072    8.9052   23.9867 C   0  0  1  0  0  0  0  0  0  0  0  0
    4.7963    7.7147   24.4448 O   0  0  0  0  0  0  0  0  0  0  0  0
   -3.6138    0.5003   31.1656 C   0  0  0  0  0  0  0  0  0  0  0  0
   -3.7729   -0.7718   31.7706 O   0  0  0  0  0  0  0  0  0  0  0  0
    1.3997    1.5065   25.6712 C   0  0  1  0  0  0  0  0  0  0  0  0
    2.6800    1.0480   25.2394 O   0  0  0  0  0  0  0  0  0  0  0  0
    6.9974    8.5465   23.7552 C   0  0  0  0  0  0  0  0  0  0  0  0
    7.8521    9.7414   23.6342 N   0  0  0  0  0  0  0  0  0  0  0  0
  1  2  1  6  0  0  0
  1  7  1  0  0  0  0
  1 30  1  0  0  0  0
  3  4  1  6  0  0  0
  3  9  1  0  0  0  0
  3 39  1  0  0  0  0
  5 10  1  0  0  0  0
  5 26  1  0  0  0  0
  5 32  1  1  0  0  0
  6 12  1  0  0  0  0
  6 36  1  0  0  0  0
  6 19  1  6  0  0  0
  7  8  1  6  0  0  0
  7 14  1  0  0  0  0
  9 16  1  0  0  0  0
 10 11  1  6  0  0  0
 10 18  1  0  0  0  0
 12 13  1  6  0  0  0
 12 20  1  0  0  0  0
 14 15  1  1  0  0  0
 14 22  1  0  0  0  0
 16 17  1  6  0  0  0
 16 24  1  0  0  0  0
 18 19  1  6  0  0  0
 18 25  1  0  0  0  0
 20 21  1  1  0  0  0
 20 27  1  0  0  0  0
 22 23  1  1  0  0  0
 22 29  1  0  0  0  0
 24  2  1  1  0  0  0
 24 31  1  0  0  0  0
 25 26  1  0  0  0  0
 25 33  1  1  0  0  0
 27 28  1  6  0  0  0
 27 35  1  0  0  0  0
 29 30  1  0  0  0  0
 29 37  1  1  0  0  0
 31 32  1  6  0  0  0
 31 39  1  0  0  0  0
 33 34  1  0  0  0  0
 35 36  1  0  0  0  0
 35 41  1  6  0  0  0
 37 38  1  0  0  0  0
 39 40  1  1  0  0  0
 41 42  1  0  0  0  0
M  END
>  <CHROM.1>
-147.19224038,-91.05373762,23.60108980,-173.95574339,-179.64896226,39.83995282
-172.88825910,179.63219454,143.93661666,160.49465743,179.84781764,-36.12278347
-74.76326607,176.52326371,-66.59222407,-88.55247174,159.38360439,-60.16225228
72.93650567,46.11467349,169.46359133,173.90684546,1.77090689,4.16532253,27.03338012
-2.70570486,-0.95360997,-1.83059534

>  <Name>
1fyp_lig

>  <RI>
0

>  <Rbt.Current_Directory>
/home/itssahil/PROJECTS/Mol_Feturizer/New_Systems/rnas/1fyp

>  <Rbt.Executable>
rbdock ($Id: //depot/dev/client3/rdock/2013.1/src/exe/rbdock.cxx#4 $)

>  <Rbt.Library>
libRbt.so (2013.1, Build901 2013/11/27)

>  <Rbt.Parameter_File>
/export/apps/rDock/src/rDock_2013.1_src/data/scripts/dock_solv.prm

>  <Rbt.Receptor>
prm/pocket_docking_8.prm

>  <SCORE>
-51.6884

>  <SCORE.INTER>
-41.7507

>  <SCORE.INTER.CONST>
1

>  <SCORE.INTER.POLAR>
-4.82309

>  <SCORE.INTER.ROT>
14

>  <SCORE.INTER.SOLV>
18.7054

>  <SCORE.INTER.VDW>
-30.9253

>  <SCORE.INTER.norm>
-0.994065

>  <SCORE.INTRA>
-9.93766

>  <SCORE.INTRA.DIHEDRAL>
-20.5548

>  <SCORE.INTRA.DIHEDRAL.0>
48.7173

>  <SCORE.INTRA.POLAR>
-0.938765

>  <SCORE.INTRA.POLAR.0>
-1.54691

>  <SCORE.INTRA.REPUL>
0

>  <SCORE.INTRA.REPUL.0>
0

>  <SCORE.INTRA.SOLV>
-1.74525

>  <SCORE.INTRA.SOLV.lig_0>
-64.052

>  <SCORE.INTRA.VDW>
4.40419

>  <SCORE.INTRA.VDW.0>
-7.0667

>  <SCORE.INTRA.norm>
-0.236611

>  <SCORE.RESTR>
0

>  <SCORE.RESTR.CAVITY>
0

>  <SCORE.RESTR.norm>
0

>  <SCORE.SYSTEM>
0

>  <SCORE.SYSTEM.CONST>
0

>  <SCORE.SYSTEM.DIHEDRAL>
0

>  <SCORE.SYSTEM.SOLV>
0

>  <SCORE.SYSTEM.norm>
0

>  <SCORE.heavy>
42

>  <SCORE.norm>
-1.23068

>  <RMSD>
9.611

$$$$
1fyp_lig
 OpenBabel11021811393D
libRbt.so/2013.1/901 2013/11/27
 42 45  0  0  0  0  0  0  0  0999 V2000
    4.2284    3.9801   29.0635 C   0  0  2  0  0  0  0  0  0  0  0  0
    3.1255    4.5449   28.2975 O   0  0  0  0  0  0  0  0  0  0  0  0
    2.6467    7.6172   25.3697 C   0  0  2  0  0  0  0  0  0  0  0  0
    2.5655    8.8849   24.6208 N   0  0  0  0  0  0  0  0  0  0  0  0
    6.1631    6.9601   27.7721 C   0  0  1  0  0  0  0  0  0  0  0  0
    7.8858    8.4358   31.0648 C   0  0  1  0  0  0  0  0  0  0  0  0
    4.2034    2.4178   29.0363 C   0  0  2  0  0  0  0  0  0  0  0  0
    4.0921    1.9073   27.6533 N   0  0  0  0  0  0  0  0  0  0  0  0
    1.7600    7.7070   26.6277 C   0  0  0  0  0  0  0  0  0  0  0  0
    7.1776    6.4407   28.7942 C   0  0  2  0  0  0  0  0  0  0  0  0
    6.5541    6.3365   30.0748 O   0  0  0  0  0  0  0  0  0  0  0  0
    7.4707    9.7149   31.8539 C   0  0  2  0  0  0  0  0  0  0  0  0
    8.1604   10.9350   31.3681 N   0  0  0  0  0  0  0  0  0  0  0  0
    3.0364    1.8650   29.9131 C   0  0  1  0  0  0  0  0  0  0  0  0
    3.1221    0.4453   30.0072 O   0  0  0  0  0  0  0  0  0  0  0  0
    1.7762    6.3915   27.4533 C   0  0  2  0  0  0  0  0  0  0  0  0
    0.9659    6.6116   28.6692 N   0  0  0  0  0  0  0  0  0  0  0  0
    8.2340    7.5490   28.7787 C   0  0  2  0  0  0  0  0  0  0  0  0
    7.8574    8.6656   29.6320 O   0  0  0  0  0  0  0  0  0  0  0  0
    7.6827    9.5156   33.3864 C   0  0  1  0  0  0  0  0  0  0  0  0
    6.6702    8.6377   33.8738 O   0  0  0  0  0  0  0  0  0  0  0  0
    3.0615    2.4560   31.3449 C   0  0  2  0  0  0  0  0  0  0  0  0
    1.9236    1.9869   32.0617 O   0  0  0  0  0  0  0  0  0  0  0  0
    3.2295    5.9137   27.8109 C   0  0  2  0  0  0  0  0  0  0  0  0
    8.2338    7.9731   27.3034 C   0  0  2  0  0  0  0  0  0  0  0  0
    6.8862    7.7737   26.8344 O   0  0  0  0  0  0  0  0  0  0  0  0
    9.0713    8.9163   33.7641 C   0  0  2  0  0  0  0  0  0  0  0  0
   10.0659    9.9256   33.5837 O   0  0  0  0  0  0  0  0  0  0  0  0
    3.0701    4.0100   31.2879 C   0  0  2  0  0  0  0  0  0  0  0  0
    4.1819    4.4518   30.4522 O   0  0  0  0  0  0  0  0  0  0  0  0
    4.2070    5.9555   26.5809 C   0  0  2  0  0  0  0  0  0  0  0  0
    5.5645    5.8286   27.0786 O   0  0  0  0  0  0  0  0  0  0  0  0
    9.2189    7.1623   26.4428 C   0  0  0  0  0  0  0  0  0  0  0  0
    9.3911    7.7628   25.1710 O   0  0  0  0  0  0  0  0  0  0  0  0
    9.3977    7.6738   32.8787 C   0  0  1  0  0  0  0  0  0  0  0  0
    9.2342    8.0193   31.4693 O   0  0  0  0  0  0  0  0  0  0  0  0
    3.2401    4.7084   32.6555 C   0  0  0  0  0  0  0  0  0  0  0  0
    2.9516    6.0934   32.5658 O   0  0  0  0  0  0  0  0  0  0  0  0
    4.1047    7.2827   25.7669 C   0  0  1  0  0  0  0  0  0  0  0  0
    4.8950    7.1589   24.5854 O   0  0  0  0  0  0  0  0  0  0  0  0
   10.8352    7.1393   33.1048 C   0  0  0  0  0  0  0  0  0  0  0  0
   11.8656    8.0602   32.5919 N   0  0  0  0  0  0  0  0  0  0  0  0
  1  2  1  6  0  0  0
  1  7  1  0  0  0  0
  1 30  1  0  0  0  0
  3  4  1  1  0  0  0
  3  9  1  0  0  0  0
  3 39  1  0  0  0  0
  5 10  1  0  0  0  0
  5 26  1  0  0  0  0
  5 32  1  6  0  0  0
  6 12  1  0  0  0  0
  6 36  1  0  0  0  0
  6 19  1  6  0  0  0
  7  8  1  6  0  0  0
  7 14  1  0  0  0  0
  9 16  1  0  0  0  0
 10 11  1  1  0  0  0
 10 18  1  0  0  0  0
 12 13  1  6  0  0  0
 12 20  1  0  0  0  0
 14 15  1  1  0  0  0
 14 22  1  0  0  0  0
 16 17  1  1  0  0  0
 16 24  1  0  0  0  0
 18 19  1  1  0  0  0
 18 25  1  0  0  0  0
 20 21  1  6  0  0  0
 20 27  1  0  0  0  0
 22 23  1  1  0  0  0
 22 29  1  0  0  0  0
 24  2  1  6  0  0  0
 24 31  1  0  0  0  0
 25 26  1  0  0  0  0
 25 33  1  6  0  0  0
 27 28  1  6  0  0  0
 27 35  1  0  0  0  0
 29 30  1  0  0  0  0
 29 37  1  1  0  0  0
 31 32  1  1  0  0  0
 31 39  1  0  0  0  0
 33 34  1  0  0  0  0
 35 36  1  0  0  0  0
 35 41  1  6  0  0  0
 37 38  1  0  0  0  0
 39 40  1  6  0  0  0
 41 42  1  0  0  0  0
M  END
>  <CHROM.1>
-158.54431993,-162.04312875,-178.11350653,-64.90037726,59.05501123,-150.13736171
62.43129995,46.29046556,70.31478801,179.60256311,54.95672788,-63.00665171
-167.75362858,-59.90037361,-167.33876324,-72.86710138,150.48995050,116.25754266
-69.31277659,-68.68705087,178.08331068,-29.47786883,5.72771657,6.47332814
29.49642123,2.92624983,-0.69471315,-1.20766211

>  <Name>
1fyp_lig

>  <RI>
0

>  <Rbt.Current_Directory>
/home/itssahil/PROJECTS/Mol_Feturizer/New_Systems/rnas/1fyp

>  <Rbt.Executable>
rbdock ($Id: //depot/dev/client3/rdock/2013.1/src/exe/rbdock.cxx#4 $)

>  <Rbt.Library>
libRbt.so (2013.1, Build901 2013/11/27)

>  <Rbt.Parameter_File>
/export/apps/rDock/src/rDock_2013.1_src/data/scripts/dock_solv.prm

>  <Rbt.Receptor>
prm/pocket_docking_5.prm

>  <SCORE>
-43.9675

>  <SCORE.INTER>
-33.4112

>  <SCORE.INTER.CONST>
1

>  <SCORE.INTER.POLAR>
-4.91629

>  <SCORE.INTER.ROT>
14

>  <SCORE.INTER.SOLV>
16.5282

>  <SCORE.INTER.VDW>
-24.3293

>  <SCORE.INTER.norm>
-0.795506

>  <SCORE.INTRA>
-10.6

>  <SCORE.INTRA.DIHEDRAL>
-27.8021

>  <SCORE.INTRA.DIHEDRAL.0>
48.7173

>  <SCORE.INTRA.POLAR>
0.265493

>  <SCORE.INTRA.POLAR.0>
-1.54691

>  <SCORE.INTRA.REPUL>
0

>  <SCORE.INTRA.REPUL.0>
0

>  <SCORE.INTRA.SOLV>
-1.98781

>  <SCORE.INTRA.SOLV.lig_0>
-64.052

>  <SCORE.INTRA.VDW>
3.3923

>  <SCORE.INTRA.VDW.0>
-7.0667

>  <SCORE.INTRA.norm>
-0.25238

>  <SCORE.RESTR>
0.0437103

>  <SCORE.RESTR.CAVITY>
0.0437103

>  <SCORE.RESTR.norm>
0.00104072

>  <SCORE.SYSTEM>
0

>  <SCORE.SYSTEM.CONST>
0

>  <SCORE.SYSTEM.DIHEDRAL>
0

>  <SCORE.SYSTEM.SOLV>
0

>  <SCORE.SYSTEM.norm>
0

>  <SCORE.heavy>
42

>  <SCORE.norm>
-1.04685

>  <RMSD>
9.613

$$$$
1fyp_lig
 OpenBabel11021811393D
libRbt.so/2013.1/901 2013/11/27
 42 45  0  0  0  0  0  0  0  0999 V2000
   -0.9456    2.6103   29.8857 C   0  0  2  0  0  0  0  0  0  0  0  0
   -0.0011    1.8476   29.0804 O   0  0  0  0  0  0  0  0  0  0  0  0
    0.5044    0.5869   25.0312 C   0  0  2  0  0  0  0  0  0  0  0  0
    0.5570    0.4658   23.5625 N   0  0  0  0  0  0  0  0  0  0  0  0
    2.3670    4.0586   26.6326 C   0  0  1  0  0  0  0  0  0  0  0  0
    3.2834    8.0760   24.9852 C   0  0  1  0  0  0  0  0  0  0  0  0
   -0.4196    2.8168   31.3426 C   0  0  2  0  0  0  0  0  0  0  0  0
    0.9591    3.3506   31.3443 N   0  0  0  0  0  0  0  0  0  0  0  0
   -0.9165    1.0032   25.4609 C   0  0  0  0  0  0  0  0  0  0  0  0
    2.8290    5.2613   27.4594 C   0  0  2  0  0  0  0  0  0  0  0  0
    1.6897    5.9740   27.9428 O   0  0  0  0  0  0  0  0  0  0  0  0
    2.4264    8.5512   23.7724 C   0  0  2  0  0  0  0  0  0  0  0  0
    2.0491    7.4376   22.8680 N   0  0  0  0  0  0  0  0  0  0  0  0
   -0.4850    1.4837   32.1518 C   0  0  1  0  0  0  0  0  0  0  0  0
   -0.1542    1.7209   33.5178 O   0  0  0  0  0  0  0  0  0  0  0  0
   -1.0525    1.1238   27.0034 C   0  0  2  0  0  0  0  0  0  0  0  0
   -2.4186    1.6027   27.3001 N   0  0  0  0  0  0  0  0  0  0  0  0
    3.5970    6.0808   26.4187 C   0  0  2  0  0  0  0  0  0  0  0  0
    2.7060    6.9019   25.6135 O   0  0  0  0  0  0  0  0  0  0  0  0
    3.1495    9.6936   22.9947 C   0  0  1  0  0  0  0  0  0  0  0  0
    3.0805   10.8864   23.7731 O   0  0  0  0  0  0  0  0  0  0  0  0
   -1.8933    0.8410   32.0904 C   0  0  2  0  0  0  0  0  0  0  0  0
   -1.8623   -0.4125   32.7662 O   0  0  0  0  0  0  0  0  0  0  0  0
    0.0354    2.0615   27.6401 C   0  0  2  0  0  0  0  0  0  0  0  0
    4.2444    4.9852   25.5603 C   0  0  2  0  0  0  0  0  0  0  0  0
    3.3291    3.8727   25.5821 O   0  0  0  0  0  0  0  0  0  0  0  0
    4.6485    9.4010   22.6823 C   0  0  2  0  0  0  0  0  0  0  0  0
    4.7134    8.4205   21.6455 O   0  0  0  0  0  0  0  0  0  0  0  0
   -2.3384    0.6550   30.6121 C   0  0  2  0  0  0  0  0  0  0  0  0
   -2.2490    1.9371   29.9208 O   0  0  0  0  0  0  0  0  0  0  0  0
    1.4843    1.7672   27.1072 C   0  0  2  0  0  0  0  0  0  0  0  0
    2.3385    2.8783   27.4846 O   0  0  0  0  0  0  0  0  0  0  0  0
    5.6237    4.5458   26.0829 C   0  0  0  0  0  0  0  0  0  0  0  0
    6.5373    5.6288   26.0695 O   0  0  0  0  0  0  0  0  0  0  0  0
    5.3899    8.8884   23.9559 C   0  0  1  0  0  0  0  0  0  0  0  0
    4.6490    7.7733   24.5392 O   0  0  0  0  0  0  0  0  0  0  0  0
   -3.7886    0.1543   30.4293 C   0  0  0  0  0  0  0  0  0  0  0  0
   -3.9497   -1.1562   30.9452 O   0  0  0  0  0  0  0  0  0  0  0  0
    1.5418    1.6086   25.5560 C   0  0  1  0  0  0  0  0  0  0  0  0
    2.8509    1.1780   25.1866 O   0  0  0  0  0  0  0  0  0  0  0  0
    6.8412    8.4313   23.6597 C   0  0  0  0  0  0  0  0  0  0  0  0
    7.5381    9.3373   22.7288 N   0  0  0  0  0  0  0  0  0  0  0  0
  1  2  1  6  0  0  0
  1  7  1  0  0  0  0
  1 30  1  0  0  0  0
  3  4  1  6  0  0  0
  3  9  1  0  0  0  0
  3 39  1  0  0  0  0
  5 10  1  0  0  0  0
  5 26  1  0  0  0  0
  5 32  1  1  0  0  0
  6 12  1  0  0  0  0
  6 36  1  0  0  0  0
  6 19  1  6  0  0  0
  7  8  1  6  0  0  0
  7 14  1  0  0  0  0
  9 16  1  0  0  0  0
 10 11  1  6  0  0  0
 10 18  1  0  0  0  0
 12 13  1  6  0  0  0
 12 20  1  0  0  0  0
 14 15  1  1  0  0  0
 14 22  1  0  0  0  0
 16 17  1  6  0  0  0
 16 24  1  0  0  0  0
 18 19  1  6  0  0  0
 18 25  1  0  0  0  0
 20 21  1  1  0  0  0
 20 27  1  0  0  0  0
 22 23  1  6  0  0  0
 22 29  1  0  0  0  0
 24  2  1  1  0  0  0
 24 31  1  0  0  0  0
 25 26  1  0  0  0  0
 25 33  1  1  0  0  0
 27 28  1  6  0  0  0
 27 35  1  0  0  0  0
 29 30  1  0  0  0  0
 29 37  1  1  0  0  0
 31 32  1  6  0  0  0
 31 39  1  0  0  0  0
 33 34  1  0  0  0  0
 35 36  1  0  0  0  0
 35 41  1  6  0  0  0
 37 38  1  0  0  0  0
 39 40  1  1  0  0  0
 41 42  1  0  0  0  0
M  END
>  <CHROM.1>
-151.70225365,-86.14236589,9.84525444,175.87476122,64.95483079,38.91344467
60.63560533,-178.85750929,156.39617321,158.80077432,178.19357616,63.18071152
-61.66786343,-37.88609571,-65.14968549,-84.17453383,156.89846991,62.70226091
41.34321942,50.92578276,-64.59327616,158.71725153,1.63812023,4.15199642,26.93055297
-2.76405722,-0.96247561,-1.85922615

>  <Name>
1fyp_lig

>  <RI>
0

>  <Rbt.Current_Directory>
/home/itssahil/PROJECTS/Mol_Feturizer/New_Systems/rnas/1fyp

>  <Rbt.Executable>
rbdock ($Id: //depot/dev/client3/rdock/2013.1/src/exe/rbdock.cxx#4 $)

>  <Rbt.Library>
libRbt.so (2013.1, Build901 2013/11/27)

>  <Rbt.Parameter_File>
/export/apps/rDock/src/rDock_2013.1_src/data/scripts/dock_solv.prm

>  <Rbt.Receptor>
prm/blind_docking_60.prm

>  <SCORE>
-46.5199

>  <SCORE.INTER>
-36.6325

>  <SCORE.INTER.CONST>
1

>  <SCORE.INTER.POLAR>
-4.39725

>  <SCORE.INTER.ROT>
14

>  <SCORE.INTER.SOLV>
19.6963

>  <SCORE.INTER.VDW>
-29.2629

>  <SCORE.INTER.norm>
-0.872202

>  <SCORE.INTRA>
-11.5771

>  <SCORE.INTRA.DIHEDRAL>
-24.9703

>  <SCORE.INTRA.DIHEDRAL.0>
48.7173

>  <SCORE.INTRA.POLAR>
-1.0483

>  <SCORE.INTRA.POLAR.0>
-1.54691

>  <SCORE.INTRA.REPUL>
0

>  <SCORE.INTRA.REPUL.0>
0

>  <SCORE.INTRA.SOLV>
-1.07547

>  <SCORE.INTRA.SOLV.lig_0>
-64.052

>  <SCORE.INTRA.VDW>
5.00999

>  <SCORE.INTRA.VDW.0>
-7.0667

>  <SCORE.INTRA.norm>
-0.275646

>  <SCORE.RESTR>
1.68967

>  <SCORE.RESTR.CAVITY>
1.68967

>  <SCORE.RESTR.norm>
0.0402303

>  <SCORE.SYSTEM>
0

>  <SCORE.SYSTEM.CONST>
0

>  <SCORE.SYSTEM.DIHEDRAL>
0

>  <SCORE.SYSTEM.SOLV>
0

>  <SCORE.SYSTEM.norm>
0

>  <SCORE.heavy>
42

>  <SCORE.norm>
-1.10762

>  <RMSD>
9.647

$$$$
1fyp_lig
 OpenBabel11021811393D
libRbt.so/2013.1/901 2013/11/27
 42 45  0  0  0  0  0  0  0  0999 V2000
    2.4706    5.1227   25.4249 C   0  0  2  0  0  0  0  0  0  0  0  0
    3.6044    5.6791   24.6988 O   0  0  0  0  0  0  0  0  0  0  0  0
    4.5642    9.0209   22.2184 C   0  0  2  0  0  0  0  0  0  0  0  0
    4.6808   10.3416   21.5730 N   0  0  0  0  0  0  0  0  0  0  0  0
    6.8050    7.2073   26.0882 C   0  0  1  0  0  0  0  0  0  0  0  0
   10.8806    6.8162   27.8615 C   0  0  1  0  0  0  0  0  0  0  0  0
    2.1087    5.9905   26.6732 C   0  0  2  0  0  0  0  0  0  0  0  0
    1.9655    7.4168   26.3115 N   0  0  0  0  0  0  0  0  0  0  0  0
    3.0769    8.6260   22.3136 C   0  0  0  0  0  0  0  0  0  0  0  0
    7.7196    8.3286   26.5882 C   0  0  2  0  0  0  0  0  0  0  0  0
    8.5472    8.7828   25.5167 O   0  0  0  0  0  0  0  0  0  0  0  0
   11.4147    8.2436   28.1904 C   0  0  2  0  0  0  0  0  0  0  0  0
   11.4326    9.1344   27.0044 N   0  0  0  0  0  0  0  0  0  0  0  0
    3.1787    5.8217   27.7969 C   0  0  1  0  0  0  0  0  0  0  0  0
    2.7560    6.4901   28.9828 O   0  0  0  0  0  0  0  0  0  0  0  0
    2.8802    7.2280   22.9611 C   0  0  2  0  0  0  0  0  0  0  0  0
    1.4273    6.9848   23.0774 N   0  0  0  0  0  0  0  0  0  0  0  0
    8.5426    7.6077   27.6594 C   0  0  2  0  0  0  0  0  0  0  0  0
    9.6585    6.8754   27.0807 O   0  0  0  0  0  0  0  0  0  0  0  0
   12.8190    8.1696   28.8655 C   0  0  1  0  0  0  0  0  0  0  0  0
   12.6554    7.7001   30.2020 O   0  0  0  0  0  0  0  0  0  0  0  0
    3.4294    4.3306   28.1346 C   0  0  2  0  0  0  0  0  0  0  0  0
    4.4774    4.2411   29.0950 O   0  0  0  0  0  0  0  0  0  0  0  0
    3.5977    7.0938   24.3523 C   0  0  2  0  0  0  0  0  0  0  0  0
    7.5134    6.6387   28.2580 C   0  0  2  0  0  0  0  0  0  0  0  0
    6.6230    6.2914   27.1798 O   0  0  0  0  0  0  0  0  0  0  0  0
   13.8261    7.2284   28.1377 C   0  0  2  0  0  0  0  0  0  0  0  0
   14.2501    7.8634   26.9303 O   0  0  0  0  0  0  0  0  0  0  0  0
    3.7975    3.5396   26.8474 C   0  0  2  0  0  0  0  0  0  0  0  0
    2.7571    3.7463   25.8451 O   0  0  0  0  0  0  0  0  0  0  0  0
    5.0744    7.6315   24.3332 C   0  0  2  0  0  0  0  0  0  0  0  0
    5.5200    7.7759   25.7070 O   0  0  0  0  0  0  0  0  0  0  0  0
    6.7178    7.2494   29.4253 C   0  0  0  0  0  0  0  0  0  0  0  0
    5.6555    6.3960   29.8137 O   0  0  0  0  0  0  0  0  0  0  0  0
   13.1660    5.8510   27.8190 C   0  0  1  0  0  0  0  0  0  0  0  0
   11.9007    6.0632   27.1215 O   0  0  0  0  0  0  0  0  0  0  0  0
    3.9287    2.0122   27.0399 C   0  0  0  0  0  0  0  0  0  0  0  0
    2.6962    1.4355   27.4371 O   0  0  0  0  0  0  0  0  0  0  0  0
    5.2091    9.0154   23.6254 C   0  0  1  0  0  0  0  0  0  0  0  0
    6.5940    9.3376   23.5066 O   0  0  0  0  0  0  0  0  0  0  0  0
   14.0734    4.9389   26.9542 C   0  0  0  0  0  0  0  0  0  0  0  0
   15.1252    4.2766   27.7467 N   0  0  0  0  0  0  0  0  0  0  0  0
  1  2  1  1  0  0  0
  1  7  1  0  0  0  0
  1 30  1  0  0  0  0
  3  4  1  1  0  0  0
  3  9  1  0  0  0  0
  3 39  1  0  0  0  0
  5 10  1  0  0  0  0
  5 26  1  0  0  0  0
  5 32  1  1  0  0  0
  6 12  1  0  0  0  0
  6 36  1  0  0  0  0
  6 19  1  6  0  0  0
  7  8  1  6  0  0  0
  7 14  1  0  0  0  0
  9 16  1  0  0  0  0
 10 11  1  6  0  0  0
 10 18  1  0  0  0  0
 12 13  1  6  0  0  0
 12 20  1  0  0  0  0
 14 15  1  1  0  0  0
 14 22  1  0  0  0  0
 16 17  1  1  0  0  0
 16 24  1  0  0  0  0
 18 19  1  6  0  0  0
 18 25  1  0  0  0  0
 20 21  1  1  0  0  0
 20 27  1  0  0  0  0
 22 23  1  1  0  0  0
 22 29  1  0  0  0  0
 24  2  1  6  0  0  0
 24 31  1  0  0  0  0
 25 26  1  0  0  0  0
 25 33  1  1  0  0  0
 27 28  1  6  0  0  0
 27 35  1  0  0  0  0
 29 30  1  0  0  0  0
 29 37  1  1  0  0  0
 31 32  1  1  0  0  0
 31 39  1  0  0  0  0
 33 34  1  0  0  0  0
 35 36  1  0  0  0  0
 35 41  1  6  0  0  0
 37 38  1  0  0  0  0
 39 40  1  6  0  0  0
 41 42  1  0  0  0  0
M  END
>  <CHROM.1>
-49.48171425,-88.27356397,164.90732937,112.90844691,157.79235210,-35.63716817
-158.33799943,58.94035525,145.22979223,-57.44356957,-65.44501157,60.79943636
171.45136521,170.29242243,63.04206235,130.65367244,119.52501856,161.37546435
79.01420592,66.27592221,71.60878442,72.10800845,6.89473842,6.67606564,26.51036966
3.01343981,-0.23814861,-0.80612380

>  <Name>
1fyp_lig

>  <RI>
0

>  <Rbt.Current_Directory>
/home/itssahil/PROJECTS/Mol_Feturizer/New_Systems/rnas/1fyp

>  <Rbt.Executable>
rbdock ($Id: //depot/dev/client3/rdock/2013.1/src/exe/rbdock.cxx#4 $)

>  <Rbt.Library>
libRbt.so (2013.1, Build901 2013/11/27)

>  <Rbt.Parameter_File>
/export/apps/rDock/src/rDock_2013.1_src/data/scripts/dock_solv.prm

>  <Rbt.Receptor>
prm/pocket_docking_4.prm

>  <SCORE>
-40.9309

>  <SCORE.INTER>
-40.361

>  <SCORE.INTER.CONST>
1

>  <SCORE.INTER.POLAR>
-5.43861

>  <SCORE.INTER.ROT>
14

>  <SCORE.INTER.SOLV>
15.9816

>  <SCORE.INTER.VDW>
-27.0392

>  <SCORE.INTER.norm>
-0.960977

>  <SCORE.INTRA>
-2.11822

>  <SCORE.INTRA.DIHEDRAL>
-13.8191

>  <SCORE.INTRA.DIHEDRAL.0>
48.7173

>  <SCORE.INTRA.POLAR>
0.548368

>  <SCORE.INTRA.POLAR.0>
-1.54691

>  <SCORE.INTRA.REPUL>
0

>  <SCORE.INTRA.REPUL.0>
0

>  <SCORE.INTRA.SOLV>
2.43754

>  <SCORE.INTRA.SOLV.lig_0>
-64.052

>  <SCORE.INTRA.VDW>
1.70813

>  <SCORE.INTRA.VDW.0>
-7.0667

>  <SCORE.INTRA.norm>
-0.0504338

>  <SCORE.RESTR>
1.54838

>  <SCORE.RESTR.CAVITY>
1.54838

>  <SCORE.RESTR.norm>
0.0368661

>  <SCORE.SYSTEM>
0

>  <SCORE.SYSTEM.CONST>
0

>  <SCORE.SYSTEM.DIHEDRAL>
0

>  <SCORE.SYSTEM.SOLV>
0

>  <SCORE.SYSTEM.norm>
0

>  <SCORE.heavy>
42

>  <SCORE.norm>
-0.974545

>  <RMSD>
9.655

$$$$
1fyp_lig
 OpenBabel11021811393D
libRbt.so/2013.1/901 2013/11/27
 42 45  0  0  0  0  0  0  0  0999 V2000
    2.5557    3.8967   26.9070 C   0  0  2  0  0  0  0  0  0  0  0  0
    2.5313    5.0526   27.7934 O   0  0  0  0  0  0  0  0  0  0  0  0
    4.7803    7.4855   25.0982 C   0  0  2  0  0  0  0  0  0  0  0  0
    5.4182    8.5834   24.3486 N   0  0  0  0  0  0  0  0  0  0  0  0
    6.4957    6.1745   29.0461 C   0  0  1  0  0  0  0  0  0  0  0  0
    9.7876    7.7759   30.2050 C   0  0  1  0  0  0  0  0  0  0  0  0
    2.2089    2.5799   27.6739 C   0  0  2  0  0  0  0  0  0  0  0  0
    0.9629    2.7271   28.4560 N   0  0  0  0  0  0  0  0  0  0  0  0
    3.2545    7.7043   25.1294 C   0  0  0  0  0  0  0  0  0  0  0  0
    6.8746    7.1086   30.1983 C   0  0  2  0  0  0  0  0  0  0  0  0
    7.4189    8.3194   29.6719 O   0  0  0  0  0  0  0  0  0  0  0  0
   11.0604    7.8138   29.3051 C   0  0  2  0  0  0  0  0  0  0  0  0
   12.0281    6.7401   29.6384 N   0  0  0  0  0  0  0  0  0  0  0  0
    3.3858    2.1526   28.6057 C   0  0  1  0  0  0  0  0  0  0  0  0
    3.1224    0.8727   29.1750 O   0  0  0  0  0  0  0  0  0  0  0  0
    2.5127    6.5664   25.8826 C   0  0  2  0  0  0  0  0  0  0  0  0
    1.0769    6.9134   25.9237 N   0  0  0  0  0  0  0  0  0  0  0  0
    7.9430    6.2895   30.9276 C   0  0  2  0  0  0  0  0  0  0  0  0
    9.2502    6.4313   30.3049 O   0  0  0  0  0  0  0  0  0  0  0  0
   11.7339    9.2198   29.3543 C   0  0  1  0  0  0  0  0  0  0  0  0
   10.9308   10.1337   28.6104 O   0  0  0  0  0  0  0  0  0  0  0  0
    4.7310    2.0839   27.8403 C   0  0  2  0  0  0  0  0  0  0  0  0
    5.7750    1.7816   28.7609 O   0  0  0  0  0  0  0  0  0  0  0  0
    3.0841    6.3159   27.3245 C   0  0  2  0  0  0  0  0  0  0  0  0
    7.4188    4.8563   30.7617 C   0  0  2  0  0  0  0  0  0  0  0  0
    6.7305    4.8307   29.4963 O   0  0  0  0  0  0  0  0  0  0  0  0
   11.9140    9.7892   30.7942 C   0  0  2  0  0  0  0  0  0  0  0  0
   12.9685    9.0719   31.4377 O   0  0  0  0  0  0  0  0  0  0  0  0
    5.0113    3.4324   27.1183 C   0  0  2  0  0  0  0  0  0  0  0  0
    3.8715    3.7670   26.2707 O   0  0  0  0  0  0  0  0  0  0  0  0
    4.6536    6.2402   27.3558 C   0  0  2  0  0  0  0  0  0  0  0  0
    5.0833    6.3478   28.7379 O   0  0  0  0  0  0  0  0  0  0  0  0
    6.4652    4.4285   31.8915 C   0  0  0  0  0  0  0  0  0  0  0  0
    5.3068    5.2442   31.9106 O   0  0  0  0  0  0  0  0  0  0  0  0
   10.5925    9.6539   31.6127 C   0  0  1  0  0  0  0  0  0  0  0  0
   10.1134    8.2760   31.5462 O   0  0  0  0  0  0  0  0  0  0  0  0
    6.2571    3.4322   26.2044 C   0  0  0  0  0  0  0  0  0  0  0  0
    6.3667    4.6476   25.4831 O   0  0  0  0  0  0  0  0  0  0  0  0
    5.3345    7.3826   26.5397 C   0  0  1  0  0  0  0  0  0  0  0  0
    6.7383    7.1338   26.4847 O   0  0  0  0  0  0  0  0  0  0  0  0
   10.7658   10.0578   33.0993 C   0  0  0  0  0  0  0  0  0  0  0  0
    9.4919   10.0368   33.8408 N   0  0  0  0  0  0  0  0  0  0  0  0
  1  2  1  1  0  0  0
  1  7  1  0  0  0  0
  1 30  1  0  0  0  0
  3  4  1  1  0  0  0
  3  9  1  0  0  0  0
  3 39  1  0  0  0  0
  5 10  1  0  0  0  0
  5 26  1  0  0  0  0
  5 32  1  1  0  0  0
  6 12  1  0  0  0  0
  6 36  1  0  0  0  0
  6 19  1  1  0  0  0
  7  8  1  1  0  0  0
  7 14  1  0  0  0  0
  9 16  1  0  0  0  0
 10 11  1  6  0  0  0
 10 18  1  0  0  0  0
 12 13  1  1  0  0  0
 12 20  1  0  0  0  0
 14 15  1  6  0  0  0
 14 22  1  0  0  0  0
 16 17  1  1  0  0  0
 16 24  1  0  0  0  0
 18 19  1  6  0  0  0
 18 25  1  0  0  0  0
 20 21  1  6  0  0  0
 20 27  1  0  0  0  0
 22 23  1  1  0  0  0
 22 29  1  0  0  0  0
 24  2  1  6  0  0  0
 24 31  1  0  0  0  0
 25 26  1  0  0  0  0
 25 33  1  1  0  0  0
 27 28  1  1  0  0  0
 27 35  1  0  0  0  0
 29 30  1  0  0  0  0
 29 37  1  6  0  0  0
 31 32  1  1  0  0  0
 31 39  1  0  0  0  0
 33 34  1  0  0  0  0
 35 36  1  0  0  0  0
 35 41  1  1  0  0  0
 37 38  1  0  0  0  0
 39 40  1  6  0  0  0
 41 42  1  0  0  0  0
M  END
>  <CHROM.1>
167.85176701,46.99320495,-172.36324600,-44.77308367,68.78287002,-25.54367892
-177.92440678,167.21838106,58.08192634,-170.03507197,175.70915017,177.73790141
62.31255309,-44.34224067,174.12631214,174.13375091,144.90511290,168.59899390
175.19463594,-55.59212399,66.96723832,67.28913193,6.53763822,6.17063711,28.74554267
3.07062469,0.67112867,2.36961918

>  <Name>
1fyp_lig

>  <RI>
0

>  <Rbt.Current_Directory>
/home/itssahil/PROJECTS/Mol_Feturizer/New_Systems/rnas/1fyp

>  <Rbt.Executable>
rbdock ($Id: //depot/dev/client3/rdock/2013.1/src/exe/rbdock.cxx#4 $)

>  <Rbt.Library>
libRbt.so (2013.1, Build901 2013/11/27)

>  <Rbt.Parameter_File>
/export/apps/rDock/src/rDock_2013.1_src/data/scripts/dock_solv.prm

>  <Rbt.Receptor>
prm/pocket_docking_5.prm

>  <SCORE>
-27.1896

>  <SCORE.INTER>
-17.568

>  <SCORE.INTER.CONST>
1

>  <SCORE.INTER.POLAR>
-1.88469

>  <SCORE.INTER.ROT>
14

>  <SCORE.INTER.SOLV>
10.9393

>  <SCORE.INTER.VDW>
-22.0095

>  <SCORE.INTER.norm>
-0.418287

>  <SCORE.INTRA>
-9.66508

>  <SCORE.INTRA.DIHEDRAL>
-36.3967

>  <SCORE.INTRA.DIHEDRAL.0>
48.7173

>  <SCORE.INTRA.POLAR>
0.913256

>  <SCORE.INTRA.POLAR.0>
-1.54691

>  <SCORE.INTRA.REPUL>
0.0981263

>  <SCORE.INTRA.REPUL.0>
0

>  <SCORE.INTRA.SOLV>
1.59519

>  <SCORE.INTRA.SOLV.lig_0>
-64.052

>  <SCORE.INTRA.VDW>
4.13998

>  <SCORE.INTRA.VDW.0>
-7.0667

>  <SCORE.INTRA.norm>
-0.230121

>  <SCORE.RESTR>
0.0434877

>  <SCORE.RESTR.CAVITY>
0.0434877

>  <SCORE.RESTR.norm>
0.00103542

>  <SCORE.SYSTEM>
0

>  <SCORE.SYSTEM.CONST>
0

>  <SCORE.SYSTEM.DIHEDRAL>
0

>  <SCORE.SYSTEM.SOLV>
0

>  <SCORE.SYSTEM.norm>
0

>  <SCORE.heavy>
42

>  <SCORE.norm>
-0.647372

>  <RMSD>
9.657

$$$$
1fyp_lig
 OpenBabel11021811393D
libRbt.so/2013.1/901 2013/11/27
 42 45  0  0  0  0  0  0  0  0999 V2000
   -2.1006    1.5729   29.4678 C   0  0  2  0  0  0  0  0  0  0  0  0
   -1.3085    0.6568   28.6582 O   0  0  0  0  0  0  0  0  0  0  0  0
   -0.5601   -0.1643   24.5342 C   0  0  2  0  0  0  0  0  0  0  0  0
   -0.3066   -0.1047   23.0828 N   0  0  0  0  0  0  0  0  0  0  0  0
    2.0283    2.2253   26.9016 C   0  0  1  0  0  0  0  0  0  0  0  0
    4.0439    5.8983   25.9190 C   0  0  1  0  0  0  0  0  0  0  0  0
   -1.2214    2.2985   30.5368 C   0  0  2  0  0  0  0  0  0  0  0  0
   -0.0209    2.9041   29.9223 N   0  0  0  0  0  0  0  0  0  0  0  0
   -1.8316    0.6420   24.8663 C   0  0  0  0  0  0  0  0  0  0  0  0
    1.8266    3.4382   27.8137 C   0  0  2  0  0  0  0  0  0  0  0  0
    0.6395    4.1326   27.4288 O   0  0  0  0  0  0  0  0  0  0  0  0
    4.3303    7.0074   26.9768 C   0  0  2  0  0  0  0  0  0  0  0  0
    3.1025    7.7236   27.4006 N   0  0  0  0  0  0  0  0  0  0  0  0
   -0.8089    1.3162   31.6773 C   0  0  1  0  0  0  0  0  0  0  0  0
   -0.1452    2.0251   32.7207 O   0  0  0  0  0  0  0  0  0  0  0  0
   -2.1755    0.6000   26.3804 C   0  0  2  0  0  0  0  0  0  0  0  0
   -3.3543    1.4637   26.5997 N   0  0  0  0  0  0  0  0  0  0  0  0
    3.0780    4.2678   27.5136 C   0  0  2  0  0  0  0  0  0  0  0  0
    2.9176    5.0712   26.3113 O   0  0  0  0  0  0  0  0  0  0  0  0
    5.4167    8.0005   26.4603 C   0  0  1  0  0  0  0  0  0  0  0  0
    6.6839    7.3477   26.5010 O   0  0  0  0  0  0  0  0  0  0  0  0
   -2.0351    0.5860   32.2805 C   0  0  2  0  0  0  0  0  0  0  0  0
   -1.5848   -0.3594   33.2460 O   0  0  0  0  0  0  0  0  0  0  0  0
   -0.9706    1.0311   27.2917 C   0  0  2  0  0  0  0  0  0  0  0  0
    4.1407    3.1811   27.2986 C   0  0  2  0  0  0  0  0  0  0  0  0
    3.4446    2.0531   26.7338 O   0  0  0  0  0  0  0  0  0  0  0  0
    5.1756    8.5075   25.0061 C   0  0  2  0  0  0  0  0  0  0  0  0
    4.0897    9.4355   25.0228 O   0  0  0  0  0  0  0  0  0  0  0  0
   -2.8480   -0.1214   31.1593 C   0  0  2  0  0  0  0  0  0  0  0  0
   -3.1947    0.8548   30.1314 O   0  0  0  0  0  0  0  0  0  0  0  0
    0.3820    0.3428   26.8833 C   0  0  2  0  0  0  0  0  0  0  0  0
    1.4648    1.0471   27.5451 O   0  0  0  0  0  0  0  0  0  0  0  0
    4.8514    2.7669   28.5994 C   0  0  0  0  0  0  0  0  0  0  0  0
    5.8733    1.8210   28.3375 O   0  0  0  0  0  0  0  0  0  0  0  0
    4.8524    7.3170   24.0508 C   0  0  1  0  0  0  0  0  0  0  0  0
    3.7703    6.5152   24.6152 O   0  0  0  0  0  0  0  0  0  0  0  0
   -4.1741   -0.7624   31.6257 C   0  0  0  0  0  0  0  0  0  0  0  0
   -5.1012   -0.8624   30.5579 O   0  0  0  0  0  0  0  0  0  0  0  0
    0.6420    0.3765   25.3452 C   0  0  1  0  0  0  0  0  0  0  0  0
    1.7945   -0.4137   25.0569 O   0  0  0  0  0  0  0  0  0  0  0  0
    4.4472    7.7840   22.6292 C   0  0  0  0  0  0  0  0  0  0  0  0
    3.4109    6.9250   22.0282 N   0  0  0  0  0  0  0  0  0  0  0  0
  1  2  1  1  0  0  0
  1  7  1  0  0  0  0
  1 30  1  0  0  0  0
  3  4  1  6  0  0  0
  3  9  1  0  0  0  0
  3 39  1  0  0  0  0
  5 10  1  0  0  0  0
  5 26  1  0  0  0  0
  5 32  1  1  0  0  0
  6 12  1  0  0  0  0
  6 36  1  0  0  0  0
  6 19  1  1  0  0  0
  7  8  1  6  0  0  0
  7 14  1  0  0  0  0
  9 16  1  0  0  0  0
 10 11  1  6  0  0  0
 10 18  1  0  0  0  0
 12 13  1  6  0  0  0
 12 20  1  0  0  0  0
 14 15  1  1  0  0  0
 14 22  1  0  0  0  0
 16 17  1  6  0  0  0
 16 24  1  0  0  0  0
 18 19  1  6  0  0  0
 18 25  1  0  0  0  0
 20 21  1  6  0  0  0
 20 27  1  0  0  0  0
 22 23  1  1  0  0  0
 22 29  1  0  0  0  0
 24  2  1  1  0  0  0
 24 31  1  0  0  0  0
 25 26  1  0  0  0  0
 25 33  1  1  0  0  0
 27 28  1  1  0  0  0
 27 35  1  0  0  0  0
 29 30  1  0  0  0  0
 29 37  1  1  0  0  0
 31 32  1  1  0  0  0
 31 39  1  0  0  0  0
 33 34  1  0  0  0  0
 35 36  1  0  0  0  0
 35 41  1  6  0  0  0
 37 38  1  0  0  0  0
 39 40  1  1  0  0  0
 41 42  1  0  0  0  0
M  END
>  <CHROM.1>
-105.24840057,-85.48267660,-6.39897237,148.80592687,-62.60422771,165.73691363
-64.81665913,-54.47719278,-179.69397639,-64.84394078,-171.91047481,-177.58164921
-176.60023280,173.50511505,154.69727575,-86.16655169,118.92799553,-177.27123221
-144.31431602,153.64425294,69.94815934,-163.97082870,1.16242296,3.01595265
27.46228383,-2.75265096,-0.80474987,-1.67853390

>  <Name>
1fyp_lig

>  <RI>
0

>  <Rbt.Current_Directory>
/home/itssahil/PROJECTS/Mol_Feturizer/New_Systems/rnas/1fyp

>  <Rbt.Executable>
rbdock ($Id: //depot/dev/client3/rdock/2013.1/src/exe/rbdock.cxx#4 $)

>  <Rbt.Library>
libRbt.so (2013.1, Build901 2013/11/27)

>  <Rbt.Parameter_File>
/export/apps/rDock/src/rDock_2013.1_src/data/scripts/dock_solv.prm

>  <Rbt.Receptor>
prm/blind_docking_80.prm

>  <SCORE>
-35.4779

>  <SCORE.INTER>
-36.6062

>  <SCORE.INTER.CONST>
1

>  <SCORE.INTER.POLAR>
-6.38644

>  <SCORE.INTER.ROT>
14

>  <SCORE.INTER.SOLV>
20.4512

>  <SCORE.INTER.VDW>
-22.8664

>  <SCORE.INTER.norm>
-0.871577

>  <SCORE.INTRA>
-0.29333

>  <SCORE.INTRA.DIHEDRAL>
-14.9093

>  <SCORE.INTRA.DIHEDRAL.0>
48.7173

>  <SCORE.INTRA.POLAR>
1.10099

>  <SCORE.INTRA.POLAR.0>
-1.54691

>  <SCORE.INTRA.REPUL>
0

>  <SCORE.INTRA.REPUL.0>
0

>  <SCORE.INTRA.SOLV>
-1.79712

>  <SCORE.INTRA.SOLV.lig_0>
-64.052

>  <SCORE.INTRA.VDW>
4.31651

>  <SCORE.INTRA.VDW.0>
-7.0667

>  <SCORE.INTRA.norm>
-0.00698405

>  <SCORE.RESTR>
1.42165

>  <SCORE.RESTR.CAVITY>
1.42165

>  <SCORE.RESTR.norm>
0.0338489

>  <SCORE.SYSTEM>
0

>  <SCORE.SYSTEM.CONST>
0

>  <SCORE.SYSTEM.DIHEDRAL>
0

>  <SCORE.SYSTEM.SOLV>
0

>  <SCORE.SYSTEM.norm>
0

>  <SCORE.heavy>
42

>  <SCORE.norm>
-0.844712

>  <RMSD>
9.659

$$$$
1fyp_lig
 OpenBabel11021811393D
libRbt.so/2013.1/901 2013/11/27
 42 45  0  0  0  0  0  0  0  0999 V2000
   -1.5913    2.1064   29.9080 C   0  0  2  0  0  0  0  0  0  0  0  0
   -0.7665    1.2719   29.0444 O   0  0  0  0  0  0  0  0  0  0  0  0
   -0.1616    0.4210   24.9031 C   0  0  2  0  0  0  0  0  0  0  0  0
   -0.0292    0.4607   23.4349 N   0  0  0  0  0  0  0  0  0  0  0  0
    1.8698    3.4890   27.1240 C   0  0  1  0  0  0  0  0  0  0  0  0
    3.2859    7.5144   25.9412 C   0  0  1  0  0  0  0  0  0  0  0  0
   -0.7963    2.5938   31.1620 C   0  0  2  0  0  0  0  0  0  0  0  0
    0.4958    3.1997   30.7756 N   0  0  0  0  0  0  0  0  0  0  0  0
   -1.5435    0.9713   25.3084 C   0  0  0  0  0  0  0  0  0  0  0  0
    2.8790    4.3173   27.9233 C   0  0  2  0  0  0  0  0  0  0  0  0
    2.1900    5.0878   28.9088 O   0  0  0  0  0  0  0  0  0  0  0  0
    2.4612    8.0249   24.7204 C   0  0  2  0  0  0  0  0  0  0  0  0
    2.0321    6.9263   23.8209 N   0  0  0  0  0  0  0  0  0  0  0  0
   -0.5657    1.4203   32.1649 C   0  0  1  0  0  0  0  0  0  0  0  0
    0.0175    1.9106   33.3696 O   0  0  0  0  0  0  0  0  0  0  0  0
   -1.7633    0.9338   26.8455 C   0  0  2  0  0  0  0  0  0  0  0  0
   -3.0744    1.5535   27.1293 N   0  0  0  0  0  0  0  0  0  0  0  0
    3.4797    5.2135   26.8368 C   0  0  2  0  0  0  0  0  0  0  0  0
    2.6453    6.3758   26.5736 O   0  0  0  0  0  0  0  0  0  0  0  0
    3.2465    9.1234   23.9396 C   0  0  1  0  0  0  0  0  0  0  0  0
    3.2346   10.3234   24.7100 O   0  0  0  0  0  0  0  0  0  0  0  0
   -1.8886    0.6953   32.5175 C   0  0  2  0  0  0  0  0  0  0  0  0
   -1.5993   -0.4174   33.3583 O   0  0  0  0  0  0  0  0  0  0  0  0
   -0.6096    1.6405   27.6441 C   0  0  2  0  0  0  0  0  0  0  0  0
    3.4991    4.2765   25.6211 C   0  0  2  0  0  0  0  0  0  0  0  0
    2.3666    3.3999   25.7789 O   0  0  0  0  0  0  0  0  0  0  0  0
    4.7300    8.7521   23.6379 C   0  0  2  0  0  0  0  0  0  0  0  0
    4.7501    7.7627   22.6078 O   0  0  0  0  0  0  0  0  0  0  0  0
   -2.6111    0.2291   31.2218 C   0  0  2  0  0  0  0  0  0  0  0  0
   -2.7892    1.3744   30.3350 O   0  0  0  0  0  0  0  0  0  0  0  0
    0.8222    1.2182   27.1524 C   0  0  2  0  0  0  0  0  0  0  0  0
    1.7834    2.1560   27.7031 O   0  0  0  0  0  0  0  0  0  0  0  0
    4.7949    3.4528   25.5151 C   0  0  0  0  0  0  0  0  0  0  0  0
    4.7000    2.4935   24.4767 O   0  0  0  0  0  0  0  0  0  0  0  0
    5.4370    8.2105   24.9191 C   0  0  1  0  0  0  0  0  0  0  0  0
    4.6365    7.1389   25.5051 O   0  0  0  0  0  0  0  0  0  0  0  0
   -4.0135   -0.3800   31.4444 C   0  0  0  0  0  0  0  0  0  0  0  0
   -3.9279   -1.6751   32.0143 O   0  0  0  0  0  0  0  0  0  0  0  0
    0.9600    1.2297   25.5983 C   0  0  1  0  0  0  0  0  0  0  0  0
    2.2256    0.6734   25.2454 O   0  0  0  0  0  0  0  0  0  0  0  0
    6.8646    7.6774   24.6342 C   0  0  0  0  0  0  0  0  0  0  0  0
    7.7896    8.7436   24.2095 N   0  0  0  0  0  0  0  0  0  0  0  0
  1  2  1  1  0  0  0
  1  7  1  0  0  0  0
  1 30  1  0  0  0  0
  3  4  1  6  0  0  0
  3  9  1  0  0  0  0
  3 39  1  0  0  0  0
  5 10  1  0  0  0  0
  5 26  1  0  0  0  0
  5 32  1  1  0  0  0
  6 12  1  0  0  0  0
  6 36  1  0  0  0  0
  6 19  1  6  0  0  0
  7  8  1  6  0  0  0
  7 14  1  0  0  0  0
  9 16  1  0  0  0  0
 10 11  1  1  0  0  0
 10 18  1  0  0  0  0
 12 13  1  6  0  0  0
 12 20  1  0  0  0  0
 14 15  1  1  0  0  0
 14 22  1  0  0  0  0
 16 17  1  6  0  0  0
 16 24  1  0  0  0  0
 18 19  1  6  0  0  0
 18 25  1  0  0  0  0
 20 21  1  1  0  0  0
 20 27  1  0  0  0  0
 22 23  1  1  0  0  0
 22 29  1  0  0  0  0
 24  2  1  1  0  0  0
 24 31  1  0  0  0  0
 25 26  1  0  0  0  0
 25 33  1  1  0  0  0
 27 28  1  6  0  0  0
 27 35  1  0  0  0  0
 29 30  1  0  0  0  0
 29 37  1  1  0  0  0
 31 32  1  1  0  0  0
 31 39  1  0  0  0  0
 33 34  1  0  0  0  0
 35 36  1  0  0  0  0
 35 41  1  6  0  0  0
 37 38  1  0  0  0  0
 39 40  1  1  0  0  0
 41 42  1  0  0  0  0
M  END
>  <CHROM.1>
-124.42651766,-89.96253539,25.02601975,124.92793267,60.30653996,-64.03589780
-61.49788833,-37.69641208,159.08886446,130.71979843,78.93445116,-43.31039501
173.00174820,-92.92402917,-73.39742395,-74.92973089,176.34709607,170.84974756
65.71082520,-151.82165415,153.75257145,-57.62746143,1.33749551,3.60555491
27.28684687,-2.86334590,-0.93274780,-1.95590150

>  <Name>
1fyp_lig

>  <RI>
0

>  <Rbt.Current_Directory>
/home/itssahil/PROJECTS/Mol_Feturizer/New_Systems/rnas/1fyp

>  <Rbt.Executable>
rbdock ($Id: //depot/dev/client3/rdock/2013.1/src/exe/rbdock.cxx#4 $)

>  <Rbt.Library>
libRbt.so (2013.1, Build901 2013/11/27)

>  <Rbt.Parameter_File>
/export/apps/rDock/src/rDock_2013.1_src/data/scripts/dock_solv.prm

>  <Rbt.Receptor>
prm/pocket_docking_7.prm

>  <SCORE>
-49.8463

>  <SCORE.INTER>
-48.6394

>  <SCORE.INTER.CONST>
1

>  <SCORE.INTER.POLAR>
-6.73972

>  <SCORE.INTER.ROT>
14

>  <SCORE.INTER.SOLV>
19.4279

>  <SCORE.INTER.VDW>
-29.3699

>  <SCORE.INTER.norm>
-1.15808

>  <SCORE.INTRA>
-1.20686

>  <SCORE.INTRA.DIHEDRAL>
-8.61558

>  <SCORE.INTRA.DIHEDRAL.0>
48.7173

>  <SCORE.INTRA.POLAR>
-0.490657

>  <SCORE.INTRA.POLAR.0>
-1.54691

>  <SCORE.INTRA.REPUL>
0

>  <SCORE.INTRA.REPUL.0>
0

>  <SCORE.INTRA.SOLV>
-0.419658

>  <SCORE.INTRA.SOLV.lig_0>
-64.052

>  <SCORE.INTRA.VDW>
4.97899

>  <SCORE.INTRA.VDW.0>
-7.0667

>  <SCORE.INTRA.norm>
-0.0287349

>  <SCORE.RESTR>
0

>  <SCORE.RESTR.CAVITY>
0

>  <SCORE.RESTR.norm>
0

>  <SCORE.SYSTEM>
0

>  <SCORE.SYSTEM.CONST>
0

>  <SCORE.SYSTEM.DIHEDRAL>
0

>  <SCORE.SYSTEM.SOLV>
0

>  <SCORE.SYSTEM.norm>
0

>  <SCORE.heavy>
42

>  <SCORE.norm>
-1.18682

>  <RMSD>
9.671

$$$$
1fyp_lig
 OpenBabel11021811393D
libRbt.so/2013.1/901 2013/11/27
 42 45  0  0  0  0  0  0  0  0999 V2000
    1.6318    4.0656   28.1620 C   0  0  2  0  0  0  0  0  0  0  0  0
    2.7555    4.9817   28.3046 O   0  0  0  0  0  0  0  0  0  0  0  0
    2.0689    6.8361   24.5190 C   0  0  2  0  0  0  0  0  0  0  0  0
    2.0081    7.7364   23.3527 N   0  0  0  0  0  0  0  0  0  0  0  0
    5.7417    6.0939   27.0937 C   0  0  1  0  0  0  0  0  0  0  0  0
    9.0974    7.9529   29.3770 C   0  0  1  0  0  0  0  0  0  0  0  0
    1.5060    3.1173   29.3976 C   0  0  2  0  0  0  0  0  0  0  0  0
    1.5179    3.8812   30.6633 N   0  0  0  0  0  0  0  0  0  0  0  0
    1.5386    7.5739   25.7646 C   0  0  0  0  0  0  0  0  0  0  0  0
    7.0464    5.4480   27.5672 C   0  0  2  0  0  0  0  0  0  0  0  0
    6.8652    4.9126   28.8787 O   0  0  0  0  0  0  0  0  0  0  0  0
    8.8058    8.8180   30.6410 C   0  0  2  0  0  0  0  0  0  0  0  0
    7.7031    9.7871   30.4283 N   0  0  0  0  0  0  0  0  0  0  0  0
    2.6454    2.0506   29.3983 C   0  0  1  0  0  0  0  0  0  0  0  0
    2.4275    1.0990   30.4369 O   0  0  0  0  0  0  0  0  0  0  0  0
    1.5482    6.6730   27.0298 C   0  0  2  0  0  0  0  0  0  0  0  0
    1.1014    7.4957   28.1731 N   0  0  0  0  0  0  0  0  0  0  0  0
    8.0014    6.6447   27.5822 C   0  0  2  0  0  0  0  0  0  0  0  0
    7.8735    7.4221   28.8052 O   0  0  0  0  0  0  0  0  0  0  0  0
   10.1010    9.5322   31.1364 C   0  0  1  0  0  0  0  0  0  0  0  0
   10.9497    8.5613   31.7451 O   0  0  0  0  0  0  0  0  0  0  0  0
    2.7287    1.2956   28.0480 C   0  0  2  0  0  0  0  0  0  0  0  0
    3.8415    0.4071   28.0798 O   0  0  0  0  0  0  0  0  0  0  0  0
    2.9516    6.0224   27.3046 C   0  0  2  0  0  0  0  0  0  0  0  0
    7.5178    7.4574   26.3730 C   0  0  2  0  0  0  0  0  0  0  0  0
    6.0994    7.2223   26.2797 O   0  0  0  0  0  0  0  0  0  0  0  0
   10.9061   10.2449   30.0077 C   0  0  2  0  0  0  0  0  0  0  0  0
   10.1985   11.4236   29.6199 O   0  0  0  0  0  0  0  0  0  0  0  0
    2.8671    2.3043   26.8726 C   0  0  2  0  0  0  0  0  0  0  0  0
    1.7733    3.2682   26.9383 O   0  0  0  0  0  0  0  0  0  0  0  0
    3.5961    5.3920   26.0173 C   0  0  2  0  0  0  0  0  0  0  0  0
    4.9966    5.1311   26.2952 O   0  0  0  0  0  0  0  0  0  0  0  0
    8.2088    7.0523   25.0588 C   0  0  0  0  0  0  0  0  0  0  0  0
    8.1479    8.1039   24.1111 O   0  0  0  0  0  0  0  0  0  0  0  0
   11.0935    9.3004   28.7800 C   0  0  1  0  0  0  0  0  0  0  0  0
    9.7983    8.7625   28.3728 O   0  0  0  0  0  0  0  0  0  0  0  0
    2.8142    1.6708   25.4644 C   0  0  0  0  0  0  0  0  0  0  0  0
    3.3593    2.5412   24.4874 O   0  0  0  0  0  0  0  0  0  0  0  0
    3.5087    6.3280   24.7720 C   0  0  1  0  0  0  0  0  0  0  0  0
    3.9598    5.6094   23.6249 O   0  0  0  0  0  0  0  0  0  0  0  0
   11.7472   10.0153   27.5698 C   0  0  0  0  0  0  0  0  0  0  0  0
   12.3936    9.0716   26.6400 N   0  0  0  0  0  0  0  0  0  0  0  0
  1  2  1  1  0  0  0
  1  7  1  0  0  0  0
  1 30  1  0  0  0  0
  3  4  1  6  0  0  0
  3  9  1  0  0  0  0
  3 39  1  0  0  0  0
  5 10  1  0  0  0  0
  5 26  1  0  0  0  0
  5 32  1  6  0  0  0
  6 12  1  0  0  0  0
  6 36  1  0  0  0  0
  6 19  1  6  0  0  0
  7  8  1  1  0  0  0
  7 14  1  0  0  0  0
  9 16  1  0  0  0  0
 10 11  1  1  0  0  0
 10 18  1  0  0  0  0
 12 13  1  6  0  0  0
 12 20  1  0  0  0  0
 14 15  1  1  0  0  0
 14 22  1  0  0  0  0
 16 17  1  1  0  0  0
 16 24  1  0  0  0  0
 18 19  1  1  0  0  0
 18 25  1  0  0  0  0
 20 21  1  6  0  0  0
 20 27  1  0  0  0  0
 22 23  1  1  0  0  0
 22 29  1  0  0  0  0
 24  2  1  1  0  0  0
 24 31  1  0  0  0  0
 25 26  1  0  0  0  0
 25 33  1  6  0  0  0
 27 28  1  6  0  0  0
 27 35  1  0  0  0  0
 29 30  1  0  0  0  0
 29 37  1  6  0  0  0
 31 32  1  1  0  0  0
 31 39  1  0  0  0  0
 33 34  1  0  0  0  0
 35 36  1  0  0  0  0
 35 41  1  6  0  0  0
 37 38  1  0  0  0  0
 39 40  1  6  0  0  0
 41 42  1  0  0  0  0
M  END
>  <CHROM.1>
-174.36158652,45.08753028,-98.01794659,170.14266612,64.41331932,-156.48453734
-52.60458265,163.92460727,141.46101556,177.28554428,-59.37901816,64.37323914
-157.41079092,-70.51509286,-161.30600137,-38.34982595,164.90864296,-59.63253325
157.74852597,55.48355771,54.88669645,-145.44234908,5.62000665,6.16867124
27.59555764,-3.02486779,-0.63955360,-1.08676016

>  <Name>
1fyp_lig

>  <RI>
0

>  <Rbt.Current_Directory>
/home/itssahil/PROJECTS/Mol_Feturizer/New_Systems/rnas/1fyp

>  <Rbt.Executable>
rbdock ($Id: //depot/dev/client3/rdock/2013.1/src/exe/rbdock.cxx#4 $)

>  <Rbt.Library>
libRbt.so (2013.1, Build901 2013/11/27)

>  <Rbt.Parameter_File>
/export/apps/rDock/src/rDock_2013.1_src/data/scripts/dock_solv.prm

>  <Rbt.Receptor>
prm/pocket_docking_4.prm

>  <SCORE>
-33.5091

>  <SCORE.INTER>
-27.6806

>  <SCORE.INTER.CONST>
1

>  <SCORE.INTER.POLAR>
-3.61466

>  <SCORE.INTER.ROT>
14

>  <SCORE.INTER.SOLV>
18.0922

>  <SCORE.INTER.VDW>
-25.369

>  <SCORE.INTER.norm>
-0.659062

>  <SCORE.INTRA>
-6.41137

>  <SCORE.INTRA.DIHEDRAL>
-28.3674

>  <SCORE.INTRA.DIHEDRAL.0>
48.7173

>  <SCORE.INTRA.POLAR>
1.48965

>  <SCORE.INTRA.POLAR.0>
-1.54691

>  <SCORE.INTRA.REPUL>
0.118779

>  <SCORE.INTRA.REPUL.0>
0

>  <SCORE.INTRA.SOLV>
-2.85477

>  <SCORE.INTRA.SOLV.lig_0>
-64.052

>  <SCORE.INTRA.VDW>
3.54098

>  <SCORE.INTRA.VDW.0>
-7.0667

>  <SCORE.INTRA.norm>
-0.152652

>  <SCORE.RESTR>
0.58286

>  <SCORE.RESTR.CAVITY>
0.58286

>  <SCORE.RESTR.norm>
0.0138776

>  <SCORE.SYSTEM>
0

>  <SCORE.SYSTEM.CONST>
0

>  <SCORE.SYSTEM.DIHEDRAL>
0

>  <SCORE.SYSTEM.SOLV>
0

>  <SCORE.SYSTEM.norm>
0

>  <SCORE.heavy>
42

>  <SCORE.norm>
-0.797836

>  <RMSD>
9.699

$$$$
1fyp_lig
 OpenBabel11021811393D
libRbt.so/2013.1/901 2013/11/27
 42 45  0  0  0  0  0  0  0  0999 V2000
    1.7085    3.8362   27.4022 C   0  0  2  0  0  0  0  0  0  0  0  0
    2.9523    4.2941   26.7976 O   0  0  0  0  0  0  0  0  0  0  0  0
    2.6616    7.9289   24.5739 C   0  0  2  0  0  0  0  0  0  0  0  0
    2.6677    9.3256   24.1012 N   0  0  0  0  0  0  0  0  0  0  0  0
    6.0365    6.3150   26.9091 C   0  0  1  0  0  0  0  0  0  0  0  0
    8.7603    7.8139   30.0257 C   0  0  1  0  0  0  0  0  0  0  0  0
    1.8775    3.5789   28.9343 C   0  0  2  0  0  0  0  0  0  0  0  0
    2.4959    4.7405   29.6081 N   0  0  0  0  0  0  0  0  0  0  0  0
    1.8133    7.8254   25.8571 C   0  0  0  0  0  0  0  0  0  0  0  0
    7.1609    5.4641   27.5054 C   0  0  2  0  0  0  0  0  0  0  0  0
    6.6492    4.6903   28.5911 O   0  0  0  0  0  0  0  0  0  0  0  0
    8.1049    8.7935   31.0466 C   0  0  2  0  0  0  0  0  0  0  0  0
    6.9872    9.5700   30.4567 N   0  0  0  0  0  0  0  0  0  0  0  0
    2.7208    2.2911   29.1923 C   0  0  1  0  0  0  0  0  0  0  0  0
    2.7324    1.9816   30.5836 O   0  0  0  0  0  0  0  0  0  0  0  0
    1.7402    6.3711   26.3977 C   0  0  2  0  0  0  0  0  0  0  0  0
    0.9778    6.3978   27.6633 N   0  0  0  0  0  0  0  0  0  0  0  0
    8.1375    6.5356   27.9980 C   0  0  2  0  0  0  0  0  0  0  0  0
    7.7572    7.0534   29.3033 O   0  0  0  0  0  0  0  0  0  0  0  0
    9.1759    9.7334   31.6810 C   0  0  1  0  0  0  0  0  0  0  0  0
    9.9583    8.9741   32.6002 O   0  0  0  0  0  0  0  0  0  0  0  0
    2.1594    1.0706   28.4207 C   0  0  2  0  0  0  0  0  0  0  0  0
    3.0226   -0.0443   28.6226 O   0  0  0  0  0  0  0  0  0  0  0  0
    3.1572    5.7218   26.5949 C   0  0  2  0  0  0  0  0  0  0  0  0
    7.9923    7.6219   26.9232 C   0  0  2  0  0  0  0  0  0  0  0  0
    6.6278    7.5473   26.4668 O   0  0  0  0  0  0  0  0  0  0  0  0
   10.1396   10.3898   30.6463 C   0  0  2  0  0  0  0  0  0  0  0  0
    9.4232   11.4014   29.9365 O   0  0  0  0  0  0  0  0  0  0  0  0
    2.0352    1.3995   26.9059 C   0  0  2  0  0  0  0  0  0  0  0  0
    1.2392    2.6119   26.7434 O   0  0  0  0  0  0  0  0  0  0  0  0
    4.1073    5.9410   25.3623 C   0  0  2  0  0  0  0  0  0  0  0  0
    5.4605    5.6125   25.7713 O   0  0  0  0  0  0  0  0  0  0  0  0
    8.9572    7.4318   25.7394 C   0  0  0  0  0  0  0  0  0  0  0  0
   10.2844    7.2370   26.1958 O   0  0  0  0  0  0  0  0  0  0  0  0
   10.6938    9.3233   29.6514 C   0  0  1  0  0  0  0  0  0  0  0  0
    9.5851    8.5683   29.0739 O   0  0  0  0  0  0  0  0  0  0  0  0
    1.3505    0.3041   26.0583 C   0  0  0  0  0  0  0  0  0  0  0  0
   -0.0182    0.1681   26.4011 O   0  0  0  0  0  0  0  0  0  0  0  0
    4.0958    7.4108   24.8387 C   0  0  1  0  0  0  0  0  0  0  0  0
    4.8468    7.4726   23.6272 O   0  0  0  0  0  0  0  0  0  0  0  0
   11.5290    9.9509   28.5060 C   0  0  0  0  0  0  0  0  0  0  0  0
   12.1870    8.9337   27.6662 N   0  0  0  0  0  0  0  0  0  0  0  0
  1  2  1  6  0  0  0
  1  7  1  0  0  0  0
  1 30  1  0  0  0  0
  3  4  1  1  0  0  0
  3  9  1  0  0  0  0
  3 39  1  0  0  0  0
  5 10  1  0  0  0  0
  5 26  1  0  0  0  0
  5 32  1  6  0  0  0
  6 12  1  0  0  0  0
  6 36  1  0  0  0  0
  6 19  1  6  0  0  0
  7  8  1  6  0  0  0
  7 14  1  0  0  0  0
  9 16  1  0  0  0  0
 10 11  1  1  0  0  0
 10 18  1  0  0  0  0
 12 13  1  6  0  0  0
 12 20  1  0  0  0  0
 14 15  1  1  0  0  0
 14 22  1  0  0  0  0
 16 17  1  1  0  0  0
 16 24  1  0  0  0  0
 18 19  1  1  0  0  0
 18 25  1  0  0  0  0
 20 21  1  1  0  0  0
 20 27  1  0  0  0  0
 22 23  1  6  0  0  0
 22 29  1  0  0  0  0
 24  2  1  6  0  0  0
 24 31  1  0  0  0  0
 25 26  1  0  0  0  0
 25 33  1  6  0  0  0
 27 28  1  6  0  0  0
 27 35  1  0  0  0  0
 29 30  1  0  0  0  0
 29 37  1  6  0  0  0
 31 32  1  1  0  0  0
 31 39  1  0  0  0  0
 33 34  1  0  0  0  0
 35 36  1  0  0  0  0
 35 41  1  6  0  0  0
 37 38  1  0  0  0  0
 39 40  1  6  0  0  0
 41 42  1  0  0  0  0
M  END
>  <CHROM.1>
-97.38861935,-28.78014740,158.97788213,16.34012284,178.68815221,-161.83061999
70.66116684,20.23058241,164.95628361,155.55172716,-172.17605831,81.87044674
-50.12640779,-74.26525472,66.93531531,-56.87438991,157.05317663,-161.66846536
172.93199326,62.80275574,-145.95401318,-176.80989267,5.53142500,6.16851818
27.80013603,-2.87537878,-0.65657624,-0.83457152

>  <Name>
1fyp_lig

>  <RI>
0

>  <Rbt.Current_Directory>
/home/itssahil/PROJECTS/Mol_Feturizer/New_Systems/rnas/1fyp

>  <Rbt.Executable>
rbdock ($Id: //depot/dev/client3/rdock/2013.1/src/exe/rbdock.cxx#4 $)

>  <Rbt.Library>
libRbt.so (2013.1, Build901 2013/11/27)

>  <Rbt.Parameter_File>
/export/apps/rDock/src/rDock_2013.1_src/data/scripts/dock_solv.prm

>  <Rbt.Receptor>
prm/pocket_docking_4.prm

>  <SCORE>
-46.5617

>  <SCORE.INTER>
-45.2752

>  <SCORE.INTER.CONST>
1

>  <SCORE.INTER.POLAR>
-6.63104

>  <SCORE.INTER.ROT>
14

>  <SCORE.INTER.SOLV>
15.2487

>  <SCORE.INTER.VDW>
-26.0962

>  <SCORE.INTER.norm>
-1.07798

>  <SCORE.INTRA>
-1.35108

>  <SCORE.INTRA.DIHEDRAL>
-17.7608

>  <SCORE.INTRA.DIHEDRAL.0>
48.7173

>  <SCORE.INTRA.POLAR>
-0.239371

>  <SCORE.INTRA.POLAR.0>
-1.54691

>  <SCORE.INTRA.REPUL>
0.210181

>  <SCORE.INTRA.REPUL.0>
0

>  <SCORE.INTRA.SOLV>
-0.139352

>  <SCORE.INTRA.SOLV.lig_0>
-64.052

>  <SCORE.INTRA.VDW>
7.36198

>  <SCORE.INTRA.VDW.0>
-7.0667

>  <SCORE.INTRA.norm>
-0.0321686

>  <SCORE.RESTR>
0.064634

>  <SCORE.RESTR.CAVITY>
0.064634

>  <SCORE.RESTR.norm>
0.0015389

>  <SCORE.SYSTEM>
0

>  <SCORE.SYSTEM.CONST>
0

>  <SCORE.SYSTEM.DIHEDRAL>
0

>  <SCORE.SYSTEM.SOLV>
0

>  <SCORE.SYSTEM.norm>
0

>  <SCORE.heavy>
42

>  <SCORE.norm>
-1.10861

>  <RMSD>
9.763

$$$$
1fyp_lig
 OpenBabel11021811393D
libRbt.so/2013.1/901 2013/11/27
 42 45  0  0  0  0  0  0  0  0999 V2000
   -1.2047    2.4004   28.3276 C   0  0  2  0  0  0  0  0  0  0  0  0
    0.0254    1.7710   27.8660 O   0  0  0  0  0  0  0  0  0  0  0  0
    3.1419    1.8756   24.9475 C   0  0  2  0  0  0  0  0  0  0  0  0
    4.0166    2.1486   23.7922 N   0  0  0  0  0  0  0  0  0  0  0  0
    2.7344    5.2323   27.4267 C   0  0  1  0  0  0  0  0  0  0  0  0
    3.4146    8.3964   24.7404 C   0  0  1  0  0  0  0  0  0  0  0  0
   -1.3826    2.2447   29.8723 C   0  0  2  0  0  0  0  0  0  0  0  0
   -0.1665    2.6694   30.5977 N   0  0  0  0  0  0  0  0  0  0  0  0
    1.7283    1.5173   24.4473 C   0  0  0  0  0  0  0  0  0  0  0  0
    1.8764    6.0530   26.4602 C   0  0  2  0  0  0  0  0  0  0  0  0
    2.1916    5.6892   25.1157 O   0  0  0  0  0  0  0  0  0  0  0  0
    4.5836    7.9632   23.8038 C   0  0  2  0  0  0  0  0  0  0  0  0
    5.9133    8.1083   24.4449 N   0  0  0  0  0  0  0  0  0  0  0  0
   -1.7491    0.7738   30.2443 C   0  0  1  0  0  0  0  0  0  0  0  0
   -2.0633    0.6813   31.6316 O   0  0  0  0  0  0  0  0  0  0  0  0
    0.7572    1.1898   25.6144 C   0  0  2  0  0  0  0  0  0  0  0  0
   -0.5789    0.9419   25.0339 N   0  0  0  0  0  0  0  0  0  0  0  0
    2.3323    7.4811   26.7713 C   0  0  2  0  0  0  0  0  0  0  0  0
    3.5580    7.8222   26.0657 O   0  0  0  0  0  0  0  0  0  0  0  0
    4.5214    8.7297   22.4467 C   0  0  1  0  0  0  0  0  0  0  0  0
    3.4399    8.2055   21.6791 O   0  0  0  0  0  0  0  0  0  0  0  0
   -2.9616    0.2583   29.4292 C   0  0  2  0  0  0  0  0  0  0  0  0
   -3.1857   -1.1123   29.7455 O   0  0  0  0  0  0  0  0  0  0  0  0
    0.7089    2.3211   26.7034 C   0  0  2  0  0  0  0  0  0  0  0  0
    2.5808    7.4172   28.2848 C   0  0  2  0  0  0  0  0  0  0  0  0
    3.0181    6.0717   28.5575 O   0  0  0  0  0  0  0  0  0  0  0  0
    4.3150   10.2678   22.5934 C   0  0  2  0  0  0  0  0  0  0  0  0
    5.5341   10.8471   23.0612 O   0  0  0  0  0  0  0  0  0  0  0  0
   -2.7023    0.4332   27.9060 C   0  0  2  0  0  0  0  0  0  0  0  0
   -2.3644    1.8269   27.6353 O   0  0  0  0  0  0  0  0  0  0  0  0
    2.1366    2.8223   27.1284 C   0  0  2  0  0  0  0  0  0  0  0  0
    1.9791    4.0656   27.8604 O   0  0  0  0  0  0  0  0  0  0  0  0
    1.3277    7.7449   29.1160 C   0  0  0  0  0  0  0  0  0  0  0  0
    0.3339    6.7495   28.9456 O   0  0  0  0  0  0  0  0  0  0  0  0
    3.1541   10.5785   23.5884 C   0  0  1  0  0  0  0  0  0  0  0  0
    3.3760    9.8606   24.8406 O   0  0  0  0  0  0  0  0  0  0  0  0
   -3.9040    0.0855   26.9992 C   0  0  0  0  0  0  0  0  0  0  0  0
   -4.1802   -1.3047   27.0210 O   0  0  0  0  0  0  0  0  0  0  0  0
    3.0767    3.0850   25.9111 C   0  0  1  0  0  0  0  0  0  0  0  0
    4.3883    3.3678   26.3966 O   0  0  0  0  0  0  0  0  0  0  0  0
    3.0153   12.0925   23.8914 C   0  0  0  0  0  0  0  0  0  0  0  0
    1.8048   12.6789   23.2882 N   0  0  0  0  0  0  0  0  0  0  0  0
  1  2  1  6  0  0  0
  1  7  1  0  0  0  0
  1 30  1  0  0  0  0
  3  4  1  6  0  0  0
  3  9  1  0  0  0  0
  3 39  1  0  0  0  0
  5 10  1  0  0  0  0
  5 26  1  0  0  0  0
  5 32  1  1  0  0  0
  6 12  1  0  0  0  0
  6 36  1  0  0  0  0
  6 19  1  1  0  0  0
  7  8  1  1  0  0  0
  7 14  1  0  0  0  0
  9 16  1  0  0  0  0
 10 11  1  6  0  0  0
 10 18  1  0  0  0  0
 12 13  1  1  0  0  0
 12 20  1  0  0  0  0
 14 15  1  1  0  0  0
 14 22  1  0  0  0  0
 16 17  1  6  0  0  0
 16 24  1  0  0  0  0
 18 19  1  6  0  0  0
 18 25  1  0  0  0  0
 20 21  1  6  0  0  0
 20 27  1  0  0  0  0
 22 23  1  6  0  0  0
 22 29  1  0  0  0  0
 24  2  1  1  0  0  0
 24 31  1  0  0  0  0
 25 26  1  0  0  0  0
 25 33  1  1  0  0  0
 27 28  1  1  0  0  0
 27 35  1  0  0  0  0
 29 30  1  0  0  0  0
 29 37  1  6  0  0  0
 31 32  1  6  0  0  0
 31 39  1  0  0  0  0
 33 34  1  0  0  0  0
 35 36  1  0  0  0  0
 35 41  1  1  0  0  0
 37 38  1  0  0  0  0
 39 40  1  1  0  0  0
 41 42  1  0  0  0  0
M  END
>  <CHROM.1>
-149.69382354,-119.64987197,-147.52208034,-40.14587982,166.97680035,-155.91276160
-54.56710175,-55.39429474,89.04556377,-146.54738797,57.87884515,59.06655555
66.51567613,69.49284015,-68.46475885,-126.59044231,93.09481541,-61.69867315
109.30440262,-176.62599754,-57.75835475,-117.98101208,1.38484799,4.80717452
26.43706464,2.56227688,-0.93539133,-2.72650477

>  <Name>
1fyp_lig

>  <RI>
0

>  <Rbt.Current_Directory>
/home/itssahil/PROJECTS/Mol_Feturizer/New_Systems/rnas/1fyp

>  <Rbt.Executable>
rbdock ($Id: //depot/dev/client3/rdock/2013.1/src/exe/rbdock.cxx#4 $)

>  <Rbt.Library>
libRbt.so (2013.1, Build901 2013/11/27)

>  <Rbt.Parameter_File>
/export/apps/rDock/src/rDock_2013.1_src/data/scripts/dock_solv.prm

>  <Rbt.Receptor>
prm/blind_docking_80.prm

>  <SCORE>
-15.2297

>  <SCORE.INTER>
-21.4348

>  <SCORE.INTER.CONST>
1

>  <SCORE.INTER.POLAR>
-5.97241

>  <SCORE.INTER.ROT>
14

>  <SCORE.INTER.SOLV>
25.1128

>  <SCORE.INTER.VDW>
-15.6861

>  <SCORE.INTER.norm>
-0.510352

>  <SCORE.INTRA>
6.06018

>  <SCORE.INTRA.DIHEDRAL>
-7.11184

>  <SCORE.INTRA.DIHEDRAL.0>
48.7173

>  <SCORE.INTRA.POLAR>
1.46204

>  <SCORE.INTRA.POLAR.0>
-1.54691

>  <SCORE.INTRA.REPUL>
0.0242293

>  <SCORE.INTRA.REPUL.0>
0

>  <SCORE.INTRA.SOLV>
-0.950728

>  <SCORE.INTRA.SOLV.lig_0>
-64.052

>  <SCORE.INTRA.VDW>
4.99938

>  <SCORE.INTRA.VDW.0>
-7.0667

>  <SCORE.INTRA.norm>
0.14429

>  <SCORE.RESTR>
0.144936

>  <SCORE.RESTR.CAVITY>
0.144936

>  <SCORE.RESTR.norm>
0.00345085

>  <SCORE.SYSTEM>
0

>  <SCORE.SYSTEM.CONST>
0

>  <SCORE.SYSTEM.DIHEDRAL>
0

>  <SCORE.SYSTEM.SOLV>
0

>  <SCORE.SYSTEM.norm>
0

>  <SCORE.heavy>
42

>  <SCORE.norm>
-0.362611

>  <RMSD>
9.785

$$$$
1fyp_lig
 OpenBabel11021811393D
libRbt.so/2013.1/901 2013/11/27
 42 45  0  0  0  0  0  0  0  0999 V2000
    0.7730    0.2892   25.9413 C   0  0  2  0  0  0  0  0  0  0  0  0
    1.4196    1.5935   25.9965 O   0  0  0  0  0  0  0  0  0  0  0  0
    0.6479    2.2653   30.1431 C   0  0  2  0  0  0  0  0  0  0  0  0
    0.6874    2.6548   31.5647 N   0  0  0  0  0  0  0  0  0  0  0  0
    1.8429    4.8651   26.5705 C   0  0  1  0  0  0  0  0  0  0  0  0
    4.2267    7.8903   24.9437 C   0  0  1  0  0  0  0  0  0  0  0  0
    0.0787    0.0524   24.5615 C   0  0  2  0  0  0  0  0  0  0  0  0
    1.0041    0.3262   23.4415 N   0  0  0  0  0  0  0  0  0  0  0  0
    1.9314    1.4881   29.7884 C   0  0  0  0  0  0  0  0  0  0  0  0
    1.7258    6.3822   26.4015 C   0  0  2  0  0  0  0  0  0  0  0  0
    1.5303    6.6949   25.0219 O   0  0  0  0  0  0  0  0  0  0  0  0
    3.3348    7.7031   23.6785 C   0  0  2  0  0  0  0  0  0  0  0  0
    3.4760    6.3559   23.0740 N   0  0  0  0  0  0  0  0  0  0  0  0
   -1.2066    0.9277   24.4282 C   0  0  1  0  0  0  0  0  0  0  0  0
   -1.9131    0.5857   23.2384 O   0  0  0  0  0  0  0  0  0  0  0  0
    1.9454    1.0212   28.3072 C   0  0  2  0  0  0  0  0  0  0  0  0
    3.2439    0.3631   28.0535 N   0  0  0  0  0  0  0  0  0  0  0  0
    3.0960    6.8589   26.8910 C   0  0  2  0  0  0  0  0  0  0  0  0
    4.1056    6.7615   25.8480 O   0  0  0  0  0  0  0  0  0  0  0  0
    3.6121    8.8263   22.6322 C   0  0  1  0  0  0  0  0  0  0  0  0
    3.0379   10.0415   23.1086 O   0  0  0  0  0  0  0  0  0  0  0  0
   -2.1581    0.7421   25.6367 C   0  0  2  0  0  0  0  0  0  0  0  0
   -3.2612    1.6328   25.5012 O   0  0  0  0  0  0  0  0  0  0  0  0
    1.6897    2.1953   27.2951 C   0  0  2  0  0  0  0  0  0  0  0  0
    3.3948    5.8691   28.0256 C   0  0  2  0  0  0  0  0  0  0  0  0
    2.7673    4.6293   27.6447 O   0  0  0  0  0  0  0  0  0  0  0  0
    5.1251    9.0778   22.3543 C   0  0  2  0  0  0  0  0  0  0  0  0
    5.6309    7.9913   21.5769 O   0  0  0  0  0  0  0  0  0  0  0  0
   -1.3994    1.0089   26.9677 C   0  0  2  0  0  0  0  0  0  0  0  0
   -0.2131    0.1605   27.0203 O   0  0  0  0  0  0  0  0  0  0  0  0
    0.4773    3.1060   27.7085 C   0  0  2  0  0  0  0  0  0  0  0  0
    0.5376    4.3232   26.9203 O   0  0  0  0  0  0  0  0  0  0  0  0
    2.8582    6.3362   29.3903 C   0  0  0  0  0  0  0  0  0  0  0  0
    3.0583    5.3413   30.3791 O   0  0  0  0  0  0  0  0  0  0  0  0
    5.9209    9.2004   23.6908 C   0  0  1  0  0  0  0  0  0  0  0  0
    5.6297    8.0502   24.5422 O   0  0  0  0  0  0  0  0  0  0  0  0
   -2.2118    0.7129   28.2481 C   0  0  0  0  0  0  0  0  0  0  0  0
   -3.5982    0.6191   27.9680 O   0  0  0  0  0  0  0  0  0  0  0  0
    0.4973    3.4975   29.2187 C   0  0  1  0  0  0  0  0  0  0  0  0
   -0.7192    4.1731   29.5341 O   0  0  0  0  0  0  0  0  0  0  0  0
    7.4525    9.2902   23.4687 C   0  0  0  0  0  0  0  0  0  0  0  0
    7.7990    9.7359   22.1070 N   0  0  0  0  0  0  0  0  0  0  0  0
  1  2  1  6  0  0  0
  1  7  1  0  0  0  0
  1 30  1  0  0  0  0
  3  4  1  1  0  0  0
  3  9  1  0  0  0  0
  3 39  1  0  0  0  0
  5 10  1  0  0  0  0
  5 26  1  0  0  0  0
  5 32  1  1  0  0  0
  6 12  1  0  0  0  0
  6 36  1  0  0  0  0
  6 19  1  1  0  0  0
  7  8  1  6  0  0  0
  7 14  1  0  0  0  0
  9 16  1  0  0  0  0
 10 11  1  6  0  0  0
 10 18  1  0  0  0  0
 12 13  1  6  0  0  0
 12 20  1  0  0  0  0
 14 15  1  6  0  0  0
 14 22  1  0  0  0  0
 16 17  1  6  0  0  0
 16 24  1  0  0  0  0
 18 19  1  6  0  0  0
 18 25  1  0  0  0  0
 20 21  1  1  0  0  0
 20 27  1  0  0  0  0
 22 23  1  6  0  0  0
 22 29  1  0  0  0  0
 24  2  1  6  0  0  0
 24 31  1  0  0  0  0
 25 26  1  0  0  0  0
 25 33  1  1  0  0  0
 27 28  1  6  0  0  0
 27 35  1  0  0  0  0
 29 30  1  0  0  0  0
 29 37  1  1  0  0  0
 31 32  1  6  0  0  0
 31 39  1  0  0  0  0
 33 34  1  0  0  0  0
 35 36  1  0  0  0  0
 35 41  1  6  0  0  0
 37 38  1  0  0  0  0
 39 40  1  1  0  0  0
 41 42  1  0  0  0  0
M  END
>  <CHROM.1>
158.03913879,30.92474207,16.31257650,45.50489750,159.80405268,-174.58346175
-60.58927348,-177.63092976,86.52350062,-91.92455096,-60.21657923,-177.65858984
175.06052420,173.73759037,-16.64373283,-34.35495404,-151.83947741,-41.61911124
21.17654565,-150.03000836,-162.49420232,171.99305447,1.83885732,4.33269044
26.14108736,2.69168259,0.87986683,1.65727647

>  <Name>
1fyp_lig

>  <RI>
0

>  <Rbt.Current_Directory>
/home/itssahil/PROJECTS/Mol_Feturizer/New_Systems/rnas/1fyp

>  <Rbt.Executable>
rbdock ($Id: //depot/dev/client3/rdock/2013.1/src/exe/rbdock.cxx#4 $)

>  <Rbt.Library>
libRbt.so (2013.1, Build901 2013/11/27)

>  <Rbt.Parameter_File>
/export/apps/rDock/src/rDock_2013.1_src/data/scripts/dock_solv.prm

>  <Rbt.Receptor>
prm/blind_docking_40.prm

>  <SCORE>
-38.5878

>  <SCORE.INTER>
-43.6341

>  <SCORE.INTER.CONST>
1

>  <SCORE.INTER.POLAR>
-5.96603

>  <SCORE.INTER.ROT>
14

>  <SCORE.INTER.SOLV>
23.3748

>  <SCORE.INTER.VDW>
-29.9275

>  <SCORE.INTER.norm>
-1.03891

>  <SCORE.INTRA>
5.04628

>  <SCORE.INTRA.DIHEDRAL>
-10.4405

>  <SCORE.INTRA.DIHEDRAL.0>
48.7173

>  <SCORE.INTRA.POLAR>
0.00592942

>  <SCORE.INTRA.POLAR.0>
-1.54691

>  <SCORE.INTRA.REPUL>
0

>  <SCORE.INTRA.REPUL.0>
0

>  <SCORE.INTRA.SOLV>
1.06073

>  <SCORE.INTRA.SOLV.lig_0>
-64.052

>  <SCORE.INTRA.VDW>
9.71602

>  <SCORE.INTRA.VDW.0>
-7.0667

>  <SCORE.INTRA.norm>
0.120149

>  <SCORE.RESTR>
0

>  <SCORE.RESTR.CAVITY>
0

>  <SCORE.RESTR.norm>
0

>  <SCORE.SYSTEM>
0

>  <SCORE.SYSTEM.CONST>
0

>  <SCORE.SYSTEM.DIHEDRAL>
0

>  <SCORE.SYSTEM.SOLV>
0

>  <SCORE.SYSTEM.norm>
0

>  <SCORE.heavy>
42

>  <SCORE.norm>
-0.918757

>  <RMSD>
9.815

$$$$
1fyp_lig
 OpenBabel11021811393D
libRbt.so/2013.1/901 2013/11/27
 42 45  0  0  0  0  0  0  0  0999 V2000
    0.9556   -0.0433   26.4065 C   0  0  2  0  0  0  0  0  0  0  0  0
    1.8535    1.0994   26.3031 O   0  0  0  0  0  0  0  0  0  0  0  0
    0.9936    2.5837   30.2144 C   0  0  2  0  0  0  0  0  0  0  0  0
    1.0214    3.2096   31.5493 N   0  0  0  0  0  0  0  0  0  0  0  0
    2.6448    4.6206   26.6304 C   0  0  1  0  0  0  0  0  0  0  0  0
    6.1180    7.0148   25.9554 C   0  0  1  0  0  0  0  0  0  0  0  0
    0.0621   -0.1862   25.1324 C   0  0  2  0  0  0  0  0  0  0  0  0
    0.8773   -0.1562   23.8995 N   0  0  0  0  0  0  0  0  0  0  0  0
    2.1736    1.6000   30.0845 C   0  0  0  0  0  0  0  0  0  0  0  0
    2.9368    5.0539   25.1915 C   0  0  2  0  0  0  0  0  0  0  0  0
    3.6555    4.0196   24.5182 O   0  0  0  0  0  0  0  0  0  0  0  0
    7.4129    6.9317   25.0908 C   0  0  2  0  0  0  0  0  0  0  0  0
    7.9936    5.5671   25.0611 N   0  0  0  0  0  0  0  0  0  0  0  0
   -1.0270    0.9310   25.0888 C   0  0  1  0  0  0  0  0  0  0  0  0
   -1.9300    0.6955   24.0114 O   0  0  0  0  0  0  0  0  0  0  0  0
    2.1908    0.8813   28.7077 C   0  0  2  0  0  0  0  0  0  0  0  0
    3.3975    0.0298   28.6580 N   0  0  0  0  0  0  0  0  0  0  0  0
    3.8138    6.2901   25.4080 C   0  0  2  0  0  0  0  0  0  0  0  0
    5.2037    5.9312   25.6445 O   0  0  0  0  0  0  0  0  0  0  0  0
    8.4631    7.9850   25.5605 C   0  0  1  0  0  0  0  0  0  0  0  0
    8.0247    9.2777   25.1476 O   0  0  0  0  0  0  0  0  0  0  0  0
   -1.8388    0.9962   26.4067 C   0  0  2  0  0  0  0  0  0  0  0  0
   -2.7480    2.0905   26.3393 O   0  0  0  0  0  0  0  0  0  0  0  0
    2.1440    1.8815   27.4970 C   0  0  2  0  0  0  0  0  0  0  0  0
    3.1938    6.9076   26.6693 C   0  0  2  0  0  0  0  0  0  0  0  0
    2.6932    5.8022   27.4461 O   0  0  0  0  0  0  0  0  0  0  0  0
    8.6878    8.0157   27.1027 C   0  0  2  0  0  0  0  0  0  0  0  0
    9.4313    6.8546   27.4766 O   0  0  0  0  0  0  0  0  0  0  0  0
   -0.8827    1.1531   27.6231 C   0  0  2  0  0  0  0  0  0  0  0  0
    0.1055    0.0795   27.5962 O   0  0  0  0  0  0  0  0  0  0  0  0
    1.0499    2.9969   27.6670 C   0  0  2  0  0  0  0  0  0  0  0  0
    1.3116    4.0385   26.6908 O   0  0  0  0  0  0  0  0  0  0  0  0
    2.0549    7.8954   26.3598 C   0  0  0  0  0  0  0  0  0  0  0  0
    1.0138    7.2569   25.6415 O   0  0  0  0  0  0  0  0  0  0  0  0
    7.3245    8.0497   27.8606 C   0  0  1  0  0  0  0  0  0  0  0  0
    6.4691    6.9681   27.3802 O   0  0  0  0  0  0  0  0  0  0  0  0
   -1.5727    1.0844   29.0037 C   0  0  0  0  0  0  0  0  0  0  0  0
   -1.6888    2.3716   29.5859 O   0  0  0  0  0  0  0  0  0  0  0  0
    1.0547    3.6427   29.0874 C   0  0  1  0  0  0  0  0  0  0  0  0
   -0.0711    4.5119   29.2004 O   0  0  0  0  0  0  0  0  0  0  0  0
    7.4905    7.9188   29.3964 C   0  0  0  0  0  0  0  0  0  0  0  0
    8.1799    9.0792   29.9892 N   0  0  0  0  0  0  0  0  0  0  0  0
  1  2  1  6  0  0  0
  1  7  1  0  0  0  0
  1 30  1  0  0  0  0
  3  4  1  1  0  0  0
  3  9  1  0  0  0  0
  3 39  1  0  0  0  0
  5 10  1  0  0  0  0
  5 26  1  0  0  0  0
  5 32  1  6  0  0  0
  6 12  1  0  0  0  0
  6 36  1  0  0  0  0
  6 19  1  6  0  0  0
  7  8  1  6  0  0  0
  7 14  1  0  0  0  0
  9 16  1  0  0  0  0
 10 11  1  6  0  0  0
 10 18  1  0  0  0  0
 12 13  1  1  0  0  0
 12 20  1  0  0  0  0
 14 15  1  6  0  0  0
 14 22  1  0  0  0  0
 16 17  1  6  0  0  0
 16 24  1  0  0  0  0
 18 19  1  1  0  0  0
 18 25  1  0  0  0  0
 20 21  1  1  0  0  0
 20 27  1  0  0  0  0
 22 23  1  6  0  0  0
 22 29  1  0  0  0  0
 24  2  1  6  0  0  0
 24 31  1  0  0  0  0
 25 26  1  0  0  0  0
 25 33  1  6  0  0  0
 27 28  1  1  0  0  0
 27 35  1  0  0  0  0
 29 30  1  0  0  0  0
 29 37  1  1  0  0  0
 31 32  1  6  0  0  0
 31 39  1  0  0  0  0
 33 34  1  0  0  0  0
 35 36  1  0  0  0  0
 35 41  1  1  0  0  0
 37 38  1  0  0  0  0
 39 40  1  6  0  0  0
 41 42  1  0  0  0  0
M  END
>  <CHROM.1>
143.46601420,35.54345157,30.26047588,-101.81755298,-57.38331798,-26.20441468
62.58211443,76.76090605,-175.87863121,-131.61622734,-57.98222058,-173.46685919
59.16153122,71.07660813,-104.38013537,-52.50845917,149.29745607,-67.38908991
66.24336427,82.58638902,172.53380355,35.50840970,2.85457792,4.13049805,27.04473050
-3.08942899,0.68947686,1.43835662

>  <Name>
1fyp_lig

>  <RI>
0

>  <Rbt.Current_Directory>
/home/itssahil/PROJECTS/Mol_Feturizer/New_Systems/rnas/1fyp

>  <Rbt.Executable>
rbdock ($Id: //depot/dev/client3/rdock/2013.1/src/exe/rbdock.cxx#4 $)

>  <Rbt.Library>
libRbt.so (2013.1, Build901 2013/11/27)

>  <Rbt.Parameter_File>
/export/apps/rDock/src/rDock_2013.1_src/data/scripts/dock_solv.prm

>  <Rbt.Receptor>
prm/blind_docking_80.prm

>  <SCORE>
-42.7874

>  <SCORE.INTER>
-48.7672

>  <SCORE.INTER.CONST>
1

>  <SCORE.INTER.POLAR>
-7.2982

>  <SCORE.INTER.ROT>
14

>  <SCORE.INTER.SOLV>
21.9678

>  <SCORE.INTER.VDW>
-28.4401

>  <SCORE.INTER.norm>
-1.16112

>  <SCORE.INTRA>
5.9798

>  <SCORE.INTRA.DIHEDRAL>
-16.2299

>  <SCORE.INTRA.DIHEDRAL.0>
48.7173

>  <SCORE.INTRA.POLAR>
1.46121

>  <SCORE.INTRA.POLAR.0>
-1.54691

>  <SCORE.INTRA.REPUL>
0.00347996

>  <SCORE.INTRA.REPUL.0>
0

>  <SCORE.INTRA.SOLV>
0.935835

>  <SCORE.INTRA.SOLV.lig_0>
-64.052

>  <SCORE.INTRA.VDW>
8.64133

>  <SCORE.INTRA.VDW.0>
-7.0667

>  <SCORE.INTRA.norm>
0.142376

>  <SCORE.RESTR>
0

>  <SCORE.RESTR.CAVITY>
0

>  <SCORE.RESTR.norm>
0

>  <SCORE.SYSTEM>
0

>  <SCORE.SYSTEM.CONST>
0

>  <SCORE.SYSTEM.DIHEDRAL>
0

>  <SCORE.SYSTEM.SOLV>
0

>  <SCORE.SYSTEM.norm>
0

>  <SCORE.heavy>
42

>  <SCORE.norm>
-1.01875

>  <RMSD>
9.820

$$$$
1fyp_lig
 OpenBabel11021811393D
libRbt.so/2013.1/901 2013/11/27
 42 45  0  0  0  0  0  0  0  0999 V2000
    3.3921    4.1696   26.0718 C   0  0  2  0  0  0  0  0  0  0  0  0
    4.2032    3.2810   26.8934 O   0  0  0  0  0  0  0  0  0  0  0  0
    1.1081    2.4950   29.7294 C   0  0  2  0  0  0  0  0  0  0  0  0
    0.1987    1.9197   30.7377 N   0  0  0  0  0  0  0  0  0  0  0  0
    5.1282    4.4119   30.8332 C   0  0  1  0  0  0  0  0  0  0  0  0
    7.4665    7.0136   33.6065 C   0  0  1  0  0  0  0  0  0  0  0  0
    4.2663    4.9500   25.0379 C   0  0  2  0  0  0  0  0  0  0  0  0
    5.1387    4.0335   24.2733 N   0  0  0  0  0  0  0  0  0  0  0  0
    1.2144    1.5351   28.5276 C   0  0  0  0  0  0  0  0  0  0  0  0
    6.5823    4.2542   31.2853 C   0  0  2  0  0  0  0  0  0  0  0  0
    6.6289    3.4693   32.4774 O   0  0  0  0  0  0  0  0  0  0  0  0
    8.7803    6.2688   33.9943 C   0  0  2  0  0  0  0  0  0  0  0  0
    8.5262    4.9349   34.5913 N   0  0  0  0  0  0  0  0  0  0  0  0
    5.1217    6.0457   25.7476 C   0  0  1  0  0  0  0  0  0  0  0  0
    5.7901    6.8510   24.7799 O   0  0  0  0  0  0  0  0  0  0  0  0
    2.1387    2.0921   27.4105 C   0  0  2  0  0  0  0  0  0  0  0  0
    2.2345    1.0667   26.3508 N   0  0  0  0  0  0  0  0  0  0  0  0
    6.9848    5.7058   31.5592 C   0  0  2  0  0  0  0  0  0  0  0  0
    6.5599    6.1437   32.8799 O   0  0  0  0  0  0  0  0  0  0  0  0
    9.6632    7.1504   34.9304 C   0  0  1  0  0  0  0  0  0  0  0  0
   10.2432    8.1964   34.1538 O   0  0  0  0  0  0  0  0  0  0  0  0
    4.2526    6.9672   26.6397 C   0  0  2  0  0  0  0  0  0  0  0  0
    5.1002    7.8814   27.3287 O   0  0  0  0  0  0  0  0  0  0  0  0
    3.5590    2.5024   27.9422 C   0  0  2  0  0  0  0  0  0  0  0  0
    6.2181    6.4640   30.4666 C   0  0  2  0  0  0  0  0  0  0  0  0
    5.0090    5.7143   30.2388 O   0  0  0  0  0  0  0  0  0  0  0  0
    8.8847    7.7973   36.1159 C   0  0  2  0  0  0  0  0  0  0  0  0
    8.5855    6.7791   37.0721 O   0  0  0  0  0  0  0  0  0  0  0  0
    3.4267    6.1197   27.6486 C   0  0  2  0  0  0  0  0  0  0  0  0
    2.6577    5.1191   26.9157 O   0  0  0  0  0  0  0  0  0  0  0  0
    3.4954    3.3569   29.2598 C   0  0  2  0  0  0  0  0  0  0  0  0
    4.8253    3.3912   29.8401 O   0  0  0  0  0  0  0  0  0  0  0  0
    7.0123    6.5983   29.1552 C   0  0  0  0  0  0  0  0  0  0  0  0
    6.9181    5.4134   28.3841 O   0  0  0  0  0  0  0  0  0  0  0  0
    7.5688    8.4686   35.6138 C   0  0  1  0  0  0  0  0  0  0  0  0
    6.8036    7.5131   34.8175 O   0  0  0  0  0  0  0  0  0  0  0  0
    2.4139    6.9234   28.4944 C   0  0  0  0  0  0  0  0  0  0  0  0
    1.7121    7.8648   27.7002 O   0  0  0  0  0  0  0  0  0  0  0  0
    2.5123    2.7694   30.3194 C   0  0  1  0  0  0  0  0  0  0  0  0
    2.3938    3.6950   31.3987 O   0  0  0  0  0  0  0  0  0  0  0  0
    6.6805    8.9853   36.7745 C   0  0  0  0  0  0  0  0  0  0  0  0
    5.9779    7.8948   37.4745 N   0  0  0  0  0  0  0  0  0  0  0  0
  1  2  1  1  0  0  0
  1  7  1  0  0  0  0
  1 30  1  0  0  0  0
  3  4  1  1  0  0  0
  3  9  1  0  0  0  0
  3 39  1  0  0  0  0
  5 10  1  0  0  0  0
  5 26  1  0  0  0  0
  5 32  1  6  0  0  0
  6 12  1  0  0  0  0
  6 36  1  0  0  0  0
  6 19  1  1  0  0  0
  7  8  1  1  0  0  0
  7 14  1  0  0  0  0
  9 16  1  0  0  0  0
 10 11  1  1  0  0  0
 10 18  1  0  0  0  0
 12 13  1  1  0  0  0
 12 20  1  0  0  0  0
 14 15  1  6  0  0  0
 14 22  1  0  0  0  0
 16 17  1  6  0  0  0
 16 24  1  0  0  0  0
 18 19  1  1  0  0  0
 18 25  1  0  0  0  0
 20 21  1  6  0  0  0
 20 27  1  0  0  0  0
 22 23  1  1  0  0  0
 22 29  1  0  0  0  0
 24  2  1  6  0  0  0
 24 31  1  0  0  0  0
 25 26  1  0  0  0  0
 25 33  1  6  0  0  0
 27 28  1  1  0  0  0
 27 35  1  0  0  0  0
 29 30  1  0  0  0  0
 29 37  1  6  0  0  0
 31 32  1  1  0  0  0
 31 39  1  0  0  0  0
 33 34  1  0  0  0  0
 35 36  1  0  0  0  0
 35 41  1  1  0  0  0
 37 38  1  0  0  0  0
 39 40  1  1  0  0  0
 41 42  1  0  0  0  0
M  END
>  <CHROM.1>
178.14078224,35.62978801,-113.66813367,-164.89508404,51.34132221,-62.56692549
-51.95319272,153.23418611,142.17408110,-66.65644575,63.99310512,76.19132714
81.15855467,55.84013378,43.34377508,162.51502296,-179.52413465,-78.85803985
-75.29162679,101.03655861,59.18943087,53.18789750,5.18448828,5.34626804,30.37529419
-2.29367626,0.76330289,1.75237422

>  <Name>
1fyp_lig

>  <RI>
0

>  <Rbt.Current_Directory>
/home/itssahil/PROJECTS/Mol_Feturizer/New_Systems/rnas/1fyp

>  <Rbt.Executable>
rbdock ($Id: //depot/dev/client3/rdock/2013.1/src/exe/rbdock.cxx#4 $)

>  <Rbt.Library>
libRbt.so (2013.1, Build901 2013/11/27)

>  <Rbt.Parameter_File>
/export/apps/rDock/src/rDock_2013.1_src/data/scripts/dock_solv.prm

>  <Rbt.Receptor>
prm/pocket_docking_8.prm

>  <SCORE>
-45.1395

>  <SCORE.INTER>
-37.9847

>  <SCORE.INTER.CONST>
1

>  <SCORE.INTER.POLAR>
-7.0996

>  <SCORE.INTER.ROT>
14

>  <SCORE.INTER.SOLV>
10.6911

>  <SCORE.INTER.VDW>
-18.1548

>  <SCORE.INTER.norm>
-0.904397

>  <SCORE.INTRA>
-7.1548

>  <SCORE.INTRA.DIHEDRAL>
-22.824

>  <SCORE.INTRA.DIHEDRAL.0>
48.7173

>  <SCORE.INTRA.POLAR>
-0.0406171

>  <SCORE.INTRA.POLAR.0>
-1.54691

>  <SCORE.INTRA.REPUL>
0.252701

>  <SCORE.INTRA.REPUL.0>
0

>  <SCORE.INTRA.SOLV>
2.26484

>  <SCORE.INTRA.SOLV.lig_0>
-64.052

>  <SCORE.INTRA.VDW>
1.99937

>  <SCORE.INTRA.VDW.0>
-7.0667

>  <SCORE.INTRA.norm>
-0.170352

>  <SCORE.RESTR>
0

>  <SCORE.RESTR.CAVITY>
0

>  <SCORE.RESTR.norm>
0

>  <SCORE.SYSTEM>
0

>  <SCORE.SYSTEM.CONST>
0

>  <SCORE.SYSTEM.DIHEDRAL>
0

>  <SCORE.SYSTEM.SOLV>
0

>  <SCORE.SYSTEM.norm>
0

>  <SCORE.heavy>
42

>  <SCORE.norm>
-1.07475

>  <RMSD>
9.829

$$$$
1fyp_lig
 OpenBabel11021811393D
libRbt.so/2013.1/901 2013/11/27
 42 45  0  0  0  0  0  0  0  0999 V2000
    4.4339    4.3318   28.4229 C   0  0  2  0  0  0  0  0  0  0  0  0
    5.1760    4.6500   27.2103 O   0  0  0  0  0  0  0  0  0  0  0  0
    5.7194    7.8345   24.4166 C   0  0  2  0  0  0  0  0  0  0  0  0
    5.8567    9.1318   23.7293 N   0  0  0  0  0  0  0  0  0  0  0  0
    7.9591    7.2871   28.0525 C   0  0  1  0  0  0  0  0  0  0  0  0
    7.6951    9.0960   31.8692 C   0  0  1  0  0  0  0  0  0  0  0  0
    4.9149    2.9843   29.0513 C   0  0  2  0  0  0  0  0  0  0  0  0
    6.3849    2.9599   29.2075 N   0  0  0  0  0  0  0  0  0  0  0  0
    4.3837    7.8005   25.1859 C   0  0  0  0  0  0  0  0  0  0  0  0
    7.9471    6.7902   29.5005 C   0  0  2  0  0  0  0  0  0  0  0  0
    6.6294    6.9146   30.0369 O   0  0  0  0  0  0  0  0  0  0  0  0
    7.2453   10.5503   32.2066 C   0  0  2  0  0  0  0  0  0  0  0  0
    8.2757   11.5610   31.8646 N   0  0  0  0  0  0  0  0  0  0  0  0
    4.4413    1.7699   28.1928 C   0  0  1  0  0  0  0  0  0  0  0  0
    4.7483    0.5476   28.8587 O   0  0  0  0  0  0  0  0  0  0  0  0
    4.1593    6.4473   25.9145 C   0  0  2  0  0  0  0  0  0  0  0  0
    2.8998    6.5504   26.6804 N   0  0  0  0  0  0  0  0  0  0  0  0
    8.9163    7.7651   30.1747 C   0  0  2  0  0  0  0  0  0  0  0  0
    8.2621    9.0135   30.5357 O   0  0  0  0  0  0  0  0  0  0  0  0
    6.8117   10.6654   33.7005 C   0  0  1  0  0  0  0  0  0  0  0  0
    5.5497   10.0200   33.8574 O   0  0  0  0  0  0  0  0  0  0  0  0
    2.9163    1.8146   27.9233 C   0  0  2  0  0  0  0  0  0  0  0  0
    2.5646    0.7364   27.0615 O   0  0  0  0  0  0  0  0  0  0  0  0
    5.3632    6.0464   26.8408 C   0  0  2  0  0  0  0  0  0  0  0  0
    9.9562    8.0005   29.0704 C   0  0  2  0  0  0  0  0  0  0  0  0
    9.2411    7.8937   27.8241 O   0  0  0  0  0  0  0  0  0  0  0  0
    7.8157   10.0242   34.7058 C   0  0  2  0  0  0  0  0  0  0  0  0
    8.9669   10.8651   34.7967 O   0  0  0  0  0  0  0  0  0  0  0  0
    2.5200    3.1765   27.2860 C   0  0  2  0  0  0  0  0  0  0  0  0
    2.9960    4.2605   28.1394 O   0  0  0  0  0  0  0  0  0  0  0  0
    6.7586    6.2158   26.1379 C   0  0  2  0  0  0  0  0  0  0  0  0
    7.7888    6.1509   27.1582 O   0  0  0  0  0  0  0  0  0  0  0  0
   11.1130    6.9859   29.1052 C   0  0  0  0  0  0  0  0  0  0  0  0
   11.8634    7.1164   30.3000 O   0  0  0  0  0  0  0  0  0  0  0  0
    8.2289    8.5936   34.2397 C   0  0  1  0  0  0  0  0  0  0  0  0
    8.6854    8.6422   32.8534 O   0  0  0  0  0  0  0  0  0  0  0  0
    1.0005    3.3906   27.1056 C   0  0  0  0  0  0  0  0  0  0  0  0
    0.3394    3.4692   28.3571 O   0  0  0  0  0  0  0  0  0  0  0  0
    6.8993    7.5745   25.3838 C   0  0  1  0  0  0  0  0  0  0  0  0
    8.1184    7.5643   24.6427 O   0  0  0  0  0  0  0  0  0  0  0  0
    9.3473    7.9779   35.1190 C   0  0  0  0  0  0  0  0  0  0  0  0
    9.8291    6.6870   34.5951 N   0  0  0  0  0  0  0  0  0  0  0  0
  1  2  1  6  0  0  0
  1  7  1  0  0  0  0
  1 30  1  0  0  0  0
  3  4  1  1  0  0  0
  3  9  1  0  0  0  0
  3 39  1  0  0  0  0
  5 10  1  0  0  0  0
  5 26  1  0  0  0  0
  5 32  1  6  0  0  0
  6 12  1  0  0  0  0
  6 36  1  0  0  0  0
  6 19  1  6  0  0  0
  7  8  1  6  0  0  0
  7 14  1  0  0  0  0
  9 16  1  0  0  0  0
 10 11  1  1  0  0  0
 10 18  1  0  0  0  0
 12 13  1  1  0  0  0
 12 20  1  0  0  0  0
 14 15  1  1  0  0  0
 14 22  1  0  0  0  0
 16 17  1  1  0  0  0
 16 24  1  0  0  0  0
 18 19  1  6  0  0  0
 18 25  1  0  0  0  0
 20 21  1  6  0  0  0
 20 27  1  0  0  0  0
 22 23  1  6  0  0  0
 22 29  1  0  0  0  0
 24  2  1  6  0  0  0
 24 31  1  0  0  0  0
 25 26  1  0  0  0  0
 25 33  1  6  0  0  0
 27 28  1  6  0  0  0
 27 35  1  0  0  0  0
 29 30  1  0  0  0  0
 29 37  1  1  0  0  0
 31 32  1  1  0  0  0
 31 39  1  0  0  0  0
 33 34  1  0  0  0  0
 35 36  1  0  0  0  0
 35 41  1  1  0  0  0
 37 38  1  0  0  0  0
 39 40  1  6  0  0  0
 41 42  1  0  0  0  0
M  END
>  <CHROM.1>
-150.98142235,-90.85632663,-176.72595631,73.39747399,-44.77778025,168.42638365
-58.96313761,-171.95724283,91.77341861,170.39258454,-52.92839905,-32.10412978
-64.25156909,176.11315078,65.77976439,-73.55363157,128.57659177,-179.47096251
-174.19830135,58.95081854,-73.37658978,-57.01470335,6.45504872,6.60064482
29.24261834,2.53512333,-0.85619270,-1.49463847

>  <Name>
1fyp_lig

>  <RI>
0

>  <Rbt.Current_Directory>
/home/itssahil/PROJECTS/Mol_Feturizer/New_Systems/rnas/1fyp

>  <Rbt.Executable>
rbdock ($Id: //depot/dev/client3/rdock/2013.1/src/exe/rbdock.cxx#4 $)

>  <Rbt.Library>
libRbt.so (2013.1, Build901 2013/11/27)

>  <Rbt.Parameter_File>
/export/apps/rDock/src/rDock_2013.1_src/data/scripts/dock_solv.prm

>  <Rbt.Receptor>
prm/pocket_docking_7.prm

>  <SCORE>
-34.9394

>  <SCORE.INTER>
-27.6661

>  <SCORE.INTER.CONST>
1

>  <SCORE.INTER.POLAR>
-4.10148

>  <SCORE.INTER.ROT>
14

>  <SCORE.INTER.SOLV>
13.9936

>  <SCORE.INTER.VDW>
-22.3703

>  <SCORE.INTER.norm>
-0.658716

>  <SCORE.INTRA>
-7.27339

>  <SCORE.INTRA.DIHEDRAL>
-22.7228

>  <SCORE.INTRA.DIHEDRAL.0>
48.7173

>  <SCORE.INTRA.POLAR>
0.293231

>  <SCORE.INTRA.POLAR.0>
-1.54691

>  <SCORE.INTRA.REPUL>
0.0213667

>  <SCORE.INTRA.REPUL.0>
0

>  <SCORE.INTRA.SOLV>
-1.90725

>  <SCORE.INTRA.SOLV.lig_0>
-64.052

>  <SCORE.INTRA.VDW>
3.93782

>  <SCORE.INTRA.VDW.0>
-7.0667

>  <SCORE.INTRA.norm>
-0.173176

>  <SCORE.RESTR>
0

>  <SCORE.RESTR.CAVITY>
0

>  <SCORE.RESTR.norm>
0

>  <SCORE.SYSTEM>
0

>  <SCORE.SYSTEM.CONST>
0

>  <SCORE.SYSTEM.DIHEDRAL>
0

>  <SCORE.SYSTEM.SOLV>
0

>  <SCORE.SYSTEM.norm>
0

>  <SCORE.heavy>
42

>  <SCORE.norm>
-0.831892

>  <RMSD>
9.865

$$$$
1fyp_lig
 OpenBabel11021811393D
libRbt.so/2013.1/901 2013/11/27
 42 45  0  0  0  0  0  0  0  0999 V2000
    1.1974    0.2387   26.7151 C   0  0  2  0  0  0  0  0  0  0  0  0
    2.0745    1.3529   26.3809 O   0  0  0  0  0  0  0  0  0  0  0  0
    2.1975    3.3442   30.1572 C   0  0  2  0  0  0  0  0  0  0  0  0
    2.5801    4.0239   31.4086 N   0  0  0  0  0  0  0  0  0  0  0  0
    3.9429    4.8795   26.5668 C   0  0  1  0  0  0  0  0  0  0  0  0
    7.4069    6.9771   26.3968 C   0  0  1  0  0  0  0  0  0  0  0  0
    0.2314   -0.1031   25.5352 C   0  0  2  0  0  0  0  0  0  0  0  0
    0.9715   -0.2645   24.2657 N   0  0  0  0  0  0  0  0  0  0  0  0
    2.9546    2.0055   30.0485 C   0  0  0  0  0  0  0  0  0  0  0  0
    4.6532    4.6880   25.2242 C   0  0  2  0  0  0  0  0  0  0  0  0
    5.4439    3.4995   25.2679 O   0  0  0  0  0  0  0  0  0  0  0  0
    8.9483    6.9445   26.1641 C   0  0  2  0  0  0  0  0  0  0  0  0
    9.5613    5.6581   26.5761 N   0  0  0  0  0  0  0  0  0  0  0  0
   -0.8709    0.9915   25.3840 C   0  0  1  0  0  0  0  0  0  0  0  0
   -1.8337    0.5890   24.4131 O   0  0  0  0  0  0  0  0  0  0  0  0
    2.5782    1.2201   28.7624 C   0  0  2  0  0  0  0  0  0  0  0  0
    3.4135    0.0020   28.7167 N   0  0  0  0  0  0  0  0  0  0  0  0
    5.5332    5.9390   25.1536 C   0  0  2  0  0  0  0  0  0  0  0  0
    6.7710    5.7710   25.8993 O   0  0  0  0  0  0  0  0  0  0  0  0
    9.6417    8.1534   26.8647 C   0  0  1  0  0  0  0  0  0  0  0  0
    9.3485    9.3360   26.1238 O   0  0  0  0  0  0  0  0  0  0  0  0
   -1.6036    1.2601   26.7224 C   0  0  2  0  0  0  0  0  0  0  0  0
   -2.5275    2.3288   26.5404 O   0  0  0  0  0  0  0  0  0  0  0  0
    2.7402    2.0766   27.4554 C   0  0  2  0  0  0  0  0  0  0  0  0
    4.6420    6.9973   25.8185 C   0  0  2  0  0  0  0  0  0  0  0  0
    3.8600    6.2941   26.8033 O   0  0  0  0  0  0  0  0  0  0  0  0
    9.1912    8.3779   28.3401 C   0  0  2  0  0  0  0  0  0  0  0  0
    9.7695    7.3549   29.1522 O   0  0  0  0  0  0  0  0  0  0  0  0
   -0.5787    1.6069   27.8394 C   0  0  2  0  0  0  0  0  0  0  0  0
    0.4182    0.5441   27.9203 O   0  0  0  0  0  0  0  0  0  0  0  0
    2.1123    3.5117   27.5827 C   0  0  2  0  0  0  0  0  0  0  0  0
    2.6023    4.3183   26.4801 O   0  0  0  0  0  0  0  0  0  0  0  0
    3.7152    7.7172   24.8227 C   0  0  0  0  0  0  0  0  0  0  0  0
    2.8661    8.6319   25.4936 O   0  0  0  0  0  0  0  0  0  0  0  0
    7.6356    8.3428   28.4557 C   0  0  1  0  0  0  0  0  0  0  0  0
    7.1246    7.1264   27.8297 O   0  0  0  0  0  0  0  0  0  0  0  0
   -1.1847    1.7534   29.2530 C   0  0  0  0  0  0  0  0  0  0  0  0
   -1.8993    0.5887   29.6302 O   0  0  0  0  0  0  0  0  0  0  0  0
    2.4895    4.2248   28.9183 C   0  0  1  0  0  0  0  0  0  0  0  0
    1.7426    5.4363   29.0188 O   0  0  0  0  0  0  0  0  0  0  0  0
    7.1437    8.4005   29.9247 C   0  0  0  0  0  0  0  0  0  0  0  0
    7.5161    7.1975   30.6910 N   0  0  0  0  0  0  0  0  0  0  0  0
  1  2  1  6  0  0  0
  1  7  1  0  0  0  0
  1 30  1  0  0  0  0
  3  4  1  1  0  0  0
  3  9  1  0  0  0  0
  3 39  1  0  0  0  0
  5 10  1  0  0  0  0
  5 26  1  0  0  0  0
  5 32  1  6  0  0  0
  6 12  1  0  0  0  0
  6 36  1  0  0  0  0
  6 19  1  1  0  0  0
  7  8  1  6  0  0  0
  7 14  1  0  0  0  0
  9 16  1  0  0  0  0
 10 11  1  1  0  0  0
 10 18  1  0  0  0  0
 12 13  1  1  0  0  0
 12 20  1  0  0  0  0
 14 15  1  6  0  0  0
 14 22  1  0  0  0  0
 16 17  1  6  0  0  0
 16 24  1  0  0  0  0
 18 19  1  1  0  0  0
 18 25  1  0  0  0  0
 20 21  1  6  0  0  0
 20 27  1  0  0  0  0
 22 23  1  6  0  0  0
 22 29  1  0  0  0  0
 24  2  1  6  0  0  0
 24 31  1  0  0  0  0
 25 26  1  0  0  0  0
 25 33  1  6  0  0  0
 27 28  1  1  0  0  0
 27 35  1  0  0  0  0
 29 30  1  0  0  0  0
 29 37  1  1  0  0  0
 31 32  1  6  0  0  0
 31 39  1  0  0  0  0
 33 34  1  0  0  0  0
 35 36  1  0  0  0  0
 35 41  1  1  0  0  0
 37 38  1  0  0  0  0
 39 40  1  1  0  0  0
 41 42  1  0  0  0  0
M  END
>  <CHROM.1>
161.27231089,12.97408961,-165.90479813,-26.47027057,172.27022054,69.18579949
-68.57378173,94.92513855,-154.44149817,-136.47702583,59.50888859,-178.57313831
176.94184690,-40.40739829,55.67004863,-78.90943030,136.00697983,-52.18874485
-66.32847439,-59.09430893,-33.43419858,166.24575385,3.66323246,4.26776644
27.30499932,3.12661446,0.66686682,1.63496224

>  <Name>
1fyp_lig

>  <RI>
0

>  <Rbt.Current_Directory>
/home/itssahil/PROJECTS/Mol_Feturizer/New_Systems/rnas/1fyp

>  <Rbt.Executable>
rbdock ($Id: //depot/dev/client3/rdock/2013.1/src/exe/rbdock.cxx#4 $)

>  <Rbt.Library>
libRbt.so (2013.1, Build901 2013/11/27)

>  <Rbt.Parameter_File>
/export/apps/rDock/src/rDock_2013.1_src/data/scripts/dock_solv.prm

>  <Rbt.Receptor>
prm/pocket_docking_6.prm

>  <SCORE>
-38.8545

>  <SCORE.INTER>
-40.6907

>  <SCORE.INTER.CONST>
1

>  <SCORE.INTER.POLAR>
-6.33351

>  <SCORE.INTER.ROT>
14

>  <SCORE.INTER.SOLV>
18.3232

>  <SCORE.INTER.VDW>
-25.0565

>  <SCORE.INTER.norm>
-0.968827

>  <SCORE.INTRA>
1.83621

>  <SCORE.INTRA.DIHEDRAL>
-14.8622

>  <SCORE.INTRA.DIHEDRAL.0>
48.7173

>  <SCORE.INTRA.POLAR>
0.0865943

>  <SCORE.INTRA.POLAR.0>
-1.54691

>  <SCORE.INTRA.REPUL>
0

>  <SCORE.INTRA.REPUL.0>
0

>  <SCORE.INTRA.SOLV>
-1.76042

>  <SCORE.INTRA.SOLV.lig_0>
-64.052

>  <SCORE.INTRA.VDW>
9.85309

>  <SCORE.INTRA.VDW.0>
-7.0667

>  <SCORE.INTRA.norm>
0.0437193

>  <SCORE.RESTR>
0

>  <SCORE.RESTR.CAVITY>
0

>  <SCORE.RESTR.norm>
0

>  <SCORE.SYSTEM>
0

>  <SCORE.SYSTEM.CONST>
0

>  <SCORE.SYSTEM.DIHEDRAL>
0

>  <SCORE.SYSTEM.SOLV>
0

>  <SCORE.SYSTEM.norm>
0

>  <SCORE.heavy>
42

>  <SCORE.norm>
-0.925108

>  <RMSD>
9.886

$$$$
1fyp_lig
 OpenBabel11021811393D
libRbt.so/2013.1/901 2013/11/27
 42 45  0  0  0  0  0  0  0  0999 V2000
    1.6302    4.0530   29.2752 C   0  0  2  0  0  0  0  0  0  0  0  0
    2.7304    4.9938   29.4391 O   0  0  0  0  0  0  0  0  0  0  0  0
    2.2392    6.7109   25.5595 C   0  0  2  0  0  0  0  0  0  0  0  0
    2.2145    7.5788   24.3677 N   0  0  0  0  0  0  0  0  0  0  0  0
    5.8425    6.4344   28.0900 C   0  0  1  0  0  0  0  0  0  0  0  0
    9.0944    8.0427   29.9281 C   0  0  1  0  0  0  0  0  0  0  0  0
    1.6697    2.9310   30.3622 C   0  0  2  0  0  0  0  0  0  0  0  0
    1.7901    3.5037   31.7199 N   0  0  0  0  0  0  0  0  0  0  0  0
    1.5541    7.4349   26.7356 C   0  0  0  0  0  0  0  0  0  0  0  0
    7.3370    6.1079   28.1513 C   0  0  2  0  0  0  0  0  0  0  0  0
    7.6827    5.7017   29.4760 O   0  0  0  0  0  0  0  0  0  0  0  0
    9.1702    9.1437   31.0296 C   0  0  2  0  0  0  0  0  0  0  0  0
    9.1545   10.5163   30.4676 N   0  0  0  0  0  0  0  0  0  0  0  0
    2.8388    1.9335   30.0897 C   0  0  1  0  0  0  0  0  0  0  0  0
    2.7658    0.8322   30.9917 O   0  0  0  0  0  0  0  0  0  0  0  0
    1.5196    6.5648   28.0217 C   0  0  2  0  0  0  0  0  0  0  0  0
    0.9201    7.3773   29.1006 N   0  0  0  0  0  0  0  0  0  0  0  0
    7.9677    7.4585   27.8013 C   0  0  2  0  0  0  0  0  0  0  0  0
    8.0509    8.3322   28.9616 O   0  0  0  0  0  0  0  0  0  0  0  0
   10.4085    8.9225   31.9520 C   0  0  1  0  0  0  0  0  0  0  0  0
   10.1495    7.8045   32.7985 O   0  0  0  0  0  0  0  0  0  0  0  0
    2.8036    1.3866   28.6406 C   0  0  2  0  0  0  0  0  0  0  0  0
    3.9435    0.5594   28.4279 O   0  0  0  0  0  0  0  0  0  0  0  0
    2.9369    6.0241   28.4305 C   0  0  2  0  0  0  0  0  0  0  0  0
    6.9760    8.0200   26.7730 C   0  0  2  0  0  0  0  0  0  0  0  0
    5.6827    7.5095   27.1506 O   0  0  0  0  0  0  0  0  0  0  0  0
   11.7363    8.6532   31.1810 C   0  0  2  0  0  0  0  0  0  0  0  0
   12.1771    9.8786   30.5939 O   0  0  0  0  0  0  0  0  0  0  0  0
    2.7810    2.5603   27.6206 C   0  0  2  0  0  0  0  0  0  0  0  0
    1.6679    3.4488   27.9385 O   0  0  0  0  0  0  0  0  0  0  0  0
    3.7316    5.4144   27.2194 C   0  0  2  0  0  0  0  0  0  0  0  0
    5.1182    5.2621   27.6201 O   0  0  0  0  0  0  0  0  0  0  0  0
    7.3067    7.6062   25.3279 C   0  0  0  0  0  0  0  0  0  0  0  0
    8.4972    8.2326   24.8831 O   0  0  0  0  0  0  0  0  0  0  0  0
   11.5260    7.5715   30.0764 C   0  0  1  0  0  0  0  0  0  0  0  0
   10.3871    7.9398   29.2399 O   0  0  0  0  0  0  0  0  0  0  0  0
    2.6002    2.1350   26.1463 C   0  0  0  0  0  0  0  0  0  0  0  0
    3.8501    1.8920   25.5234 O   0  0  0  0  0  0  0  0  0  0  0  0
    3.6846    6.3144   25.9457 C   0  0  1  0  0  0  0  0  0  0  0  0
    4.2813    5.6058   24.8605 O   0  0  0  0  0  0  0  0  0  0  0  0
   12.7746    7.3847   29.1769 C   0  0  0  0  0  0  0  0  0  0  0  0
   13.1725    8.6320   28.4995 N   0  0  0  0  0  0  0  0  0  0  0  0
  1  2  1  1  0  0  0
  1  7  1  0  0  0  0
  1 30  1  0  0  0  0
  3  4  1  6  0  0  0
  3  9  1  0  0  0  0
  3 39  1  0  0  0  0
  5 10  1  0  0  0  0
  5 26  1  0  0  0  0
  5 32  1  6  0  0  0
  6 12  1  0  0  0  0
  6 36  1  0  0  0  0
  6 19  1  6  0  0  0
  7  8  1  1  0  0  0
  7 14  1  0  0  0  0
  9 16  1  0  0  0  0
 10 11  1  1  0  0  0
 10 18  1  0  0  0  0
 12 13  1  6  0  0  0
 12 20  1  0  0  0  0
 14 15  1  1  0  0  0
 14 22  1  0  0  0  0
 16 17  1  1  0  0  0
 16 24  1  0  0  0  0
 18 19  1  1  0  0  0
 18 25  1  0  0  0  0
 20 21  1  1  0  0  0
 20 27  1  0  0  0  0
 22 23  1  6  0  0  0
 22 29  1  0  0  0  0
 24  2  1  1  0  0  0
 24 31  1  0  0  0  0
 25 26  1  0  0  0  0
 25 33  1  6  0  0  0
 27 28  1  6  0  0  0
 27 35  1  0  0  0  0
 29 30  1  0  0  0  0
 29 37  1  6  0  0  0
 31 32  1  1  0  0  0
 31 39  1  0  0  0  0
 33 34  1  0  0  0  0
 35 36  1  0  0  0  0
 35 41  1  6  0  0  0
 37 38  1  0  0  0  0
 39 40  1  6  0  0  0
 41 42  1  0  0  0  0
M  END
>  <CHROM.1>
173.48422005,40.79478546,-48.68866625,175.52791334,162.45756744,18.48169251
-62.45148900,163.58419478,76.03813449,173.63246587,60.74883311,-64.19865034
-68.82687169,-41.06030923,-89.56252003,-56.61541777,-167.41063599,-171.37179944
-58.53357709,-54.22549198,179.63513041,165.37528406,5.85397310,6.05209352
28.46360915,-2.99136245,-0.53902923,-0.94019367

>  <Name>
1fyp_lig

>  <RI>
0

>  <Rbt.Current_Directory>
/home/itssahil/PROJECTS/Mol_Feturizer/New_Systems/rnas/1fyp

>  <Rbt.Executable>
rbdock ($Id: //depot/dev/client3/rdock/2013.1/src/exe/rbdock.cxx#4 $)

>  <Rbt.Library>
libRbt.so (2013.1, Build901 2013/11/27)

>  <Rbt.Parameter_File>
/export/apps/rDock/src/rDock_2013.1_src/data/scripts/dock_solv.prm

>  <Rbt.Receptor>
prm/pocket_docking_6.prm

>  <SCORE>
-44.8131

>  <SCORE.INTER>
-31.7303

>  <SCORE.INTER.CONST>
1

>  <SCORE.INTER.POLAR>
-3.80126

>  <SCORE.INTER.ROT>
14

>  <SCORE.INTER.SOLV>
15.8679

>  <SCORE.INTER.VDW>
-26.7052

>  <SCORE.INTER.norm>
-0.755482

>  <SCORE.INTRA>
-13.0829

>  <SCORE.INTRA.DIHEDRAL>
-34.6466

>  <SCORE.INTRA.DIHEDRAL.0>
48.7173

>  <SCORE.INTRA.POLAR>
0.0827313

>  <SCORE.INTRA.POLAR.0>
-1.54691

>  <SCORE.INTRA.REPUL>
0

>  <SCORE.INTRA.REPUL.0>
0

>  <SCORE.INTRA.SOLV>
-1.02065

>  <SCORE.INTRA.SOLV.lig_0>
-64.052

>  <SCORE.INTRA.VDW>
4.46945

>  <SCORE.INTRA.VDW.0>
-7.0667

>  <SCORE.INTRA.norm>
-0.311497

>  <SCORE.RESTR>
0

>  <SCORE.RESTR.CAVITY>
0

>  <SCORE.RESTR.norm>
0

>  <SCORE.SYSTEM>
0

>  <SCORE.SYSTEM.CONST>
0

>  <SCORE.SYSTEM.DIHEDRAL>
0

>  <SCORE.SYSTEM.SOLV>
0

>  <SCORE.SYSTEM.norm>
0

>  <SCORE.heavy>
42

>  <SCORE.norm>
-1.06698

>  <RMSD>
9.906

$$$$
1fyp_lig
 OpenBabel11021811393D
libRbt.so/2013.1/901 2013/11/27
 42 45  0  0  0  0  0  0  0  0999 V2000
   -0.1629    0.9070   27.0693 C   0  0  2  0  0  0  0  0  0  0  0  0
    0.1487    2.2554   27.5244 O   0  0  0  0  0  0  0  0  0  0  0  0
    3.7944    2.9677   29.6321 C   0  0  2  0  0  0  0  0  0  0  0  0
    5.1813    3.2541   30.0429 N   0  0  0  0  0  0  0  0  0  0  0  0
    1.7769    5.3910   26.5356 C   0  0  1  0  0  0  0  0  0  0  0  0
    3.5567    7.8397   23.2578 C   0  0  1  0  0  0  0  0  0  0  0  0
   -0.8784    0.9228   25.6801 C   0  0  2  0  0  0  0  0  0  0  0  0
   -0.1328    1.7433   24.7022 N   0  0  0  0  0  0  0  0  0  0  0  0
    3.7893    1.8063   28.6182 C   0  0  0  0  0  0  0  0  0  0  0  0
    1.8762    6.9116   26.3882 C   0  0  2  0  0  0  0  0  0  0  0  0
    0.7462    7.3954   25.6612 O   0  0  0  0  0  0  0  0  0  0  0  0
    5.0541    7.4874   23.0031 C   0  0  2  0  0  0  0  0  0  0  0  0
    5.7892    7.1782   24.2538 N   0  0  0  0  0  0  0  0  0  0  0  0
   -2.3445    1.4409   25.8155 C   0  0  1  0  0  0  0  0  0  0  0  0
   -3.0322    1.3003   24.5749 O   0  0  0  0  0  0  0  0  0  0  0  0
    2.3530    1.4314   28.1611 C   0  0  2  0  0  0  0  0  0  0  0  0
    2.4671    0.3715   27.1377 N   0  0  0  0  0  0  0  0  0  0  0  0
    3.1660    7.0644   25.5773 C   0  0  2  0  0  0  0  0  0  0  0  0
    2.9329    6.8824   24.1529 O   0  0  0  0  0  0  0  0  0  0  0  0
    5.7612    8.6184   22.1943 C   0  0  1  0  0  0  0  0  0  0  0  0
    5.3060    8.5628   20.8441 O   0  0  0  0  0  0  0  0  0  0  0  0
   -3.1303    0.6685   26.9047 C   0  0  2  0  0  0  0  0  0  0  0  0
   -4.4241    1.2478   27.0435 O   0  0  0  0  0  0  0  0  0  0  0  0
    1.5431    2.6649   27.6219 C   0  0  2  0  0  0  0  0  0  0  0  0
    4.0320    5.9250   26.1324 C   0  0  2  0  0  0  0  0  0  0  0  0
    3.1167    4.8740   26.4975 O   0  0  0  0  0  0  0  0  0  0  0  0
    5.4939   10.0537   22.7405 C   0  0  2  0  0  0  0  0  0  0  0  0
    6.2313   10.2233   23.9521 O   0  0  0  0  0  0  0  0  0  0  0  0
   -2.3634    0.7113   28.2568 C   0  0  2  0  0  0  0  0  0  0  0  0
   -1.0057    0.2168   28.0524 O   0  0  0  0  0  0  0  0  0  0  0  0
    1.6512    3.9236   28.5569 C   0  0  2  0  0  0  0  0  0  0  0  0
    1.1672    5.0764   27.8198 O   0  0  0  0  0  0  0  0  0  0  0  0
    4.8703    6.3443   27.3531 C   0  0  0  0  0  0  0  0  0  0  0  0
    5.4786    7.6059   27.1388 O   0  0  0  0  0  0  0  0  0  0  0  0
    3.9712   10.2726   23.0013 C   0  0  1  0  0  0  0  0  0  0  0  0
    3.4548    9.1874   23.8309 O   0  0  0  0  0  0  0  0  0  0  0  0
   -2.9826   -0.1485   29.3813 C   0  0  0  0  0  0  0  0  0  0  0  0
   -2.5962   -1.5072   29.2626 O   0  0  0  0  0  0  0  0  0  0  0  0
    3.1128    4.2147   29.0191 C   0  0  1  0  0  0  0  0  0  0  0  0
    3.0877    5.2594   29.9905 O   0  0  0  0  0  0  0  0  0  0  0  0
    3.6718   11.6260   23.6953 C   0  0  0  0  0  0  0  0  0  0  0  0
    2.3557   12.1729   23.3189 N   0  0  0  0  0  0  0  0  0  0  0  0
  1  2  1  1  0  0  0
  1  7  1  0  0  0  0
  1 30  1  0  0  0  0
  3  4  1  6  0  0  0
  3  9  1  0  0  0  0
  3 39  1  0  0  0  0
  5 10  1  0  0  0  0
  5 26  1  0  0  0  0
  5 32  1  1  0  0  0
  6 12  1  0  0  0  0
  6 36  1  0  0  0  0
  6 19  1  1  0  0  0
  7  8  1  6  0  0  0
  7 14  1  0  0  0  0
  9 16  1  0  0  0  0
 10 11  1  6  0  0  0
 10 18  1  0  0  0  0
 12 13  1  1  0  0  0
 12 20  1  0  0  0  0
 14 15  1  6  0  0  0
 14 22  1  0  0  0  0
 16 17  1  6  0  0  0
 16 24  1  0  0  0  0
 18 19  1  6  0  0  0
 18 25  1  0  0  0  0
 20 21  1  6  0  0  0
 20 27  1  0  0  0  0
 22 23  1  1  0  0  0
 22 29  1  0  0  0  0
 24  2  1  1  0  0  0
 24 31  1  0  0  0  0
 25 26  1  0  0  0  0
 25 33  1  1  0  0  0
 27 28  1  1  0  0  0
 27 35  1  0  0  0  0
 29 30  1  0  0  0  0
 29 37  1  1  0  0  0
 31 32  1  6  0  0  0
 31 39  1  0  0  0  0
 33 34  1  0  0  0  0
 35 36  1  0  0  0  0
 35 41  1  1  0  0  0
 37 38  1  0  0  0  0
 39 40  1  1  0  0  0
 41 42  1  0  0  0  0
M  END
>  <CHROM.1>
-112.94147940,-38.55086989,-178.81551477,175.59586683,-179.02891553,-161.74869206
-164.92503773,-108.47503038,135.10191161,80.94843815,-43.33108709,68.07907229
-44.50188226,57.88455052,82.03135656,-55.51774447,-142.67301696,149.87458728
149.32182594,48.88731451,179.35518209,-85.46869084,1.98571296,4.83641541
26.19356946,2.21592383,0.48874091,2.36046217

>  <Name>
1fyp_lig

>  <RI>
0

>  <Rbt.Current_Directory>
/home/itssahil/PROJECTS/Mol_Feturizer/New_Systems/rnas/1fyp

>  <Rbt.Executable>
rbdock ($Id: //depot/dev/client3/rdock/2013.1/src/exe/rbdock.cxx#4 $)

>  <Rbt.Library>
libRbt.so (2013.1, Build901 2013/11/27)

>  <Rbt.Parameter_File>
/export/apps/rDock/src/rDock_2013.1_src/data/scripts/dock_solv.prm

>  <Rbt.Receptor>
prm/blind_docking_60.prm

>  <SCORE>
-25.5155

>  <SCORE.INTER>
-29.6836

>  <SCORE.INTER.CONST>
1

>  <SCORE.INTER.POLAR>
-4.78661

>  <SCORE.INTER.ROT>
14

>  <SCORE.INTER.SOLV>
24.1451

>  <SCORE.INTER.VDW>
-24.8154

>  <SCORE.INTER.norm>
-0.706753

>  <SCORE.INTRA>
4.04482

>  <SCORE.INTRA.DIHEDRAL>
-10.7504

>  <SCORE.INTRA.DIHEDRAL.0>
48.7173

>  <SCORE.INTRA.POLAR>
0.806182

>  <SCORE.INTRA.POLAR.0>
-1.54691

>  <SCORE.INTRA.REPUL>
0.0682838

>  <SCORE.INTRA.REPUL.0>
0

>  <SCORE.INTRA.SOLV>
-0.165163

>  <SCORE.INTRA.SOLV.lig_0>
-64.052

>  <SCORE.INTRA.VDW>
6.42016

>  <SCORE.INTRA.VDW.0>
-7.0667

>  <SCORE.INTRA.norm>
0.0963053

>  <SCORE.RESTR>
0.123302

>  <SCORE.RESTR.CAVITY>
0.123302

>  <SCORE.RESTR.norm>
0.00293577

>  <SCORE.SYSTEM>
0

>  <SCORE.SYSTEM.CONST>
0

>  <SCORE.SYSTEM.DIHEDRAL>
0

>  <SCORE.SYSTEM.SOLV>
0

>  <SCORE.SYSTEM.norm>
0

>  <SCORE.heavy>
42

>  <SCORE.norm>
-0.607512

>  <RMSD>
9.931

$$$$
1fyp_lig
 OpenBabel11021811393D
libRbt.so/2013.1/901 2013/11/27
 42 45  0  0  0  0  0  0  0  0999 V2000
   -2.2078    1.3715   26.4767 C   0  0  2  0  0  0  0  0  0  0  0  0
   -2.1841    0.1638   27.2911 O   0  0  0  0  0  0  0  0  0  0  0  0
   -2.6155    2.0277   31.1096 C   0  0  2  0  0  0  0  0  0  0  0  0
   -2.6111    2.3843   32.5405 N   0  0  0  0  0  0  0  0  0  0  0  0
    0.7998    2.3908   27.6771 C   0  0  1  0  0  0  0  0  0  0  0  0
    3.1574    5.8754   26.1835 C   0  0  1  0  0  0  0  0  0  0  0  0
   -3.3976    1.3555   25.4637 C   0  0  2  0  0  0  0  0  0  0  0  0
   -4.6749    1.0474   26.1415 N   0  0  0  0  0  0  0  0  0  0  0  0
   -3.2786    0.6478   30.9270 C   0  0  0  0  0  0  0  0  0  0  0  0
    1.4333    3.5345   28.4735 C   0  0  2  0  0  0  0  0  0  0  0  0
    0.5061    4.6158   28.5755 O   0  0  0  0  0  0  0  0  0  0  0  0
    2.7937    7.1816   26.9533 C   0  0  2  0  0  0  0  0  0  0  0  0
    1.3473    7.5029   26.8823 N   0  0  0  0  0  0  0  0  0  0  0  0
   -3.1349    0.3338   24.3134 C   0  0  1  0  0  0  0  0  0  0  0  0
   -4.1483    0.4439   23.3171 O   0  0  0  0  0  0  0  0  0  0  0  0
   -3.3424    0.2191   29.4355 C   0  0  2  0  0  0  0  0  0  0  0  0
   -3.9169   -1.1412   29.3810 N   0  0  0  0  0  0  0  0  0  0  0  0
    2.6275    3.9075   27.5908 C   0  0  2  0  0  0  0  0  0  0  0  0
    2.2405    4.7978   26.5072 O   0  0  0  0  0  0  0  0  0  0  0  0
    3.6653    8.3778   26.4609 C   0  0  1  0  0  0  0  0  0  0  0  0
    4.9904    8.2090   26.9601 O   0  0  0  0  0  0  0  0  0  0  0  0
   -1.7574    0.5631   23.6425 C   0  0  2  0  0  0  0  0  0  0  0  0
   -1.5389   -0.4539   22.6695 O   0  0  0  0  0  0  0  0  0  0  0  0
   -1.9436    0.2803   28.7229 C   0  0  2  0  0  0  0  0  0  0  0  0
    3.0589    2.5415   27.0390 C   0  0  2  0  0  0  0  0  0  0  0  0
    1.8537    1.7590   26.9329 O   0  0  0  0  0  0  0  0  0  0  0  0
    3.7420    8.5133   24.9099 C   0  0  2  0  0  0  0  0  0  0  0  0
    2.4889    9.0078   24.4347 O   0  0  0  0  0  0  0  0  0  0  0  0
   -0.6274    0.5506   24.7107 C   0  0  2  0  0  0  0  0  0  0  0  0
   -0.9418    1.5247   25.7510 O   0  0  0  0  0  0  0  0  0  0  0  0
   -1.1673    1.6158   29.0129 C   0  0  2  0  0  0  0  0  0  0  0  0
    0.2132    1.4334   28.6040 O   0  0  0  0  0  0  0  0  0  0  0  0
    4.0791    1.8223   27.9393 C   0  0  0  0  0  0  0  0  0  0  0  0
    4.6995    2.7346   28.8284 O   0  0  0  0  0  0  0  0  0  0  0  0
    4.0638    7.1371   24.2488 C   0  0  1  0  0  0  0  0  0  0  0  0
    3.1286    6.1276   24.7375 O   0  0  0  0  0  0  0  0  0  0  0  0
    0.7757    0.9131   24.1750 C   0  0  0  0  0  0  0  0  0  0  0  0
    0.9886    2.3144   24.1958 O   0  0  0  0  0  0  0  0  0  0  0  0
   -1.1840    2.0142   30.5214 C   0  0  1  0  0  0  0  0  0  0  0  0
   -0.6090    3.3127   30.6598 O   0  0  0  0  0  0  0  0  0  0  0  0
    3.9920    7.1857   22.7010 C   0  0  0  0  0  0  0  0  0  0  0  0
    2.6092    7.3067   22.2049 N   0  0  0  0  0  0  0  0  0  0  0  0
  1  2  1  6  0  0  0
  1  7  1  0  0  0  0
  1 30  1  0  0  0  0
  3  4  1  1  0  0  0
  3  9  1  0  0  0  0
  3 39  1  0  0  0  0
  5 10  1  0  0  0  0
  5 26  1  0  0  0  0
  5 32  1  1  0  0  0
  6 12  1  0  0  0  0
  6 36  1  0  0  0  0
  6 19  1  6  0  0  0
  7  8  1  1  0  0  0
  7 14  1  0  0  0  0
  9 16  1  0  0  0  0
 10 11  1  6  0  0  0
 10 18  1  0  0  0  0
 12 13  1  6  0  0  0
 12 20  1  0  0  0  0
 14 15  1  6  0  0  0
 14 22  1  0  0  0  0
 16 17  1  1  0  0  0
 16 24  1  0  0  0  0
 18 19  1  6  0  0  0
 18 25  1  0  0  0  0
 20 21  1  6  0  0  0
 20 27  1  0  0  0  0
 22 23  1  6  0  0  0
 22 29  1  0  0  0  0
 24  2  1  6  0  0  0
 24 31  1  0  0  0  0
 25 26  1  0  0  0  0
 25 33  1  1  0  0  0
 27 28  1  6  0  0  0
 27 35  1  0  0  0  0
 29 30  1  0  0  0  0
 29 37  1  6  0  0  0
 31 32  1  1  0  0  0
 31 39  1  0  0  0  0
 33 34  1  0  0  0  0
 35 36  1  0  0  0  0
 35 41  1  6  0  0  0
 37 38  1  0  0  0  0
 39 40  1  6  0  0  0
 41 42  1  0  0  0  0
M  END
>  <CHROM.1>
-136.07671517,98.79180217,178.53540094,78.41436565,106.52429699,19.84056891
-167.27408707,-51.53186977,139.98342101,-92.90407904,179.96464216,147.26490664
-18.51620076,-48.88310013,87.20022512,126.07531812,89.74829109,167.20081317
-71.49304568,69.70910058,-45.28988619,18.42835097,0.33149582,3.19494700,26.77676230
2.87337442,0.80720505,1.57025553

>  <Name>
1fyp_lig

>  <RI>
0

>  <Rbt.Current_Directory>
/home/itssahil/PROJECTS/Mol_Feturizer/New_Systems/rnas/1fyp

>  <Rbt.Executable>
rbdock ($Id: //depot/dev/client3/rdock/2013.1/src/exe/rbdock.cxx#4 $)

>  <Rbt.Library>
libRbt.so (2013.1, Build901 2013/11/27)

>  <Rbt.Parameter_File>
/export/apps/rDock/src/rDock_2013.1_src/data/scripts/dock_solv.prm

>  <Rbt.Receptor>
prm/blind_docking_40.prm

>  <SCORE>
-58.2217

>  <SCORE.INTER>
-64.7897

>  <SCORE.INTER.CONST>
1

>  <SCORE.INTER.POLAR>
-8.35048

>  <SCORE.INTER.ROT>
14

>  <SCORE.INTER.SOLV>
21.2159

>  <SCORE.INTER.VDW>
-35.3635

>  <SCORE.INTER.norm>
-1.54261

>  <SCORE.INTRA>
6.13832

>  <SCORE.INTRA.DIHEDRAL>
7.56287

>  <SCORE.INTRA.DIHEDRAL.0>
48.7173

>  <SCORE.INTRA.POLAR>
-0.330958

>  <SCORE.INTRA.POLAR.0>
-1.54691

>  <SCORE.INTRA.REPUL>
0

>  <SCORE.INTRA.REPUL.0>
0

>  <SCORE.INTRA.SOLV>
1.09114

>  <SCORE.INTRA.SOLV.lig_0>
-64.052

>  <SCORE.INTRA.VDW>
2.93657

>  <SCORE.INTRA.VDW.0>
-7.0667

>  <SCORE.INTRA.norm>
0.14615

>  <SCORE.RESTR>
0.429708

>  <SCORE.RESTR.CAVITY>
0.429708

>  <SCORE.RESTR.norm>
0.0102311

>  <SCORE.SYSTEM>
0

>  <SCORE.SYSTEM.CONST>
0

>  <SCORE.SYSTEM.DIHEDRAL>
0

>  <SCORE.SYSTEM.SOLV>
0

>  <SCORE.SYSTEM.norm>
0

>  <SCORE.heavy>
42

>  <SCORE.norm>
-1.38623

>  <RMSD>
10.029

$$$$
1fyp_lig
 OpenBabel11021811393D
libRbt.so/2013.1/901 2013/11/27
 42 45  0  0  0  0  0  0  0  0999 V2000
    4.6623    6.9418   25.5245 C   0  0  2  0  0  0  0  0  0  0  0  0
    5.2812    5.6243   25.4648 O   0  0  0  0  0  0  0  0  0  0  0  0
    3.5824    3.4092   28.6973 C   0  0  2  0  0  0  0  0  0  0  0  0
    3.3228    2.5518   29.8685 N   0  0  0  0  0  0  0  0  0  0  0  0
    6.9497    6.3250   28.5671 C   0  0  1  0  0  0  0  0  0  0  0  0
   11.1942    7.2258   29.0182 C   0  0  1  0  0  0  0  0  0  0  0  0
    3.4885    7.0698   24.5009 C   0  0  2  0  0  0  0  0  0  0  0  0
    2.5419    5.9411   24.6265 N   0  0  0  0  0  0  0  0  0  0  0  0
    4.3710    2.6097   27.6410 C   0  0  0  0  0  0  0  0  0  0  0  0
    7.7663    7.6175   28.6480 C   0  0  2  0  0  0  0  0  0  0  0  0
    8.3739    7.8781   27.3821 O   0  0  0  0  0  0  0  0  0  0  0  0
   11.2540    8.0812   27.7159 C   0  0  2  0  0  0  0  0  0  0  0  0
   10.8081    7.3295   26.5174 N   0  0  0  0  0  0  0  0  0  0  0  0
    4.0317    7.1609   23.0405 C   0  0  1  0  0  0  0  0  0  0  0  0
    2.9654    7.4361   22.1356 O   0  0  0  0  0  0  0  0  0  0  0  0
    4.6570    3.4458   26.3637 C   0  0  2  0  0  0  0  0  0  0  0  0
    5.4809    2.6187   25.4578 N   0  0  0  0  0  0  0  0  0  0  0  0
    8.8149    7.2603   29.7050 C   0  0  2  0  0  0  0  0  0  0  0  0
    9.9298    6.5222   29.1315 O   0  0  0  0  0  0  0  0  0  0  0  0
   12.6786    8.6824   27.5109 C   0  0  1  0  0  0  0  0  0  0  0  0
   12.8670    9.7345   28.4549 O   0  0  0  0  0  0  0  0  0  0  0  0
    5.1025    8.2707   22.8922 C   0  0  2  0  0  0  0  0  0  0  0  0
    5.6231    8.2405   21.5667 O   0  0  0  0  0  0  0  0  0  0  0  0
    5.3515    4.8198   26.6770 C   0  0  2  0  0  0  0  0  0  0  0  0
    8.0141    6.3688   30.6644 C   0  0  2  0  0  0  0  0  0  0  0  0
    7.0403    5.6865   29.8508 O   0  0  0  0  0  0  0  0  0  0  0  0
   13.8355    7.6532   27.6904 C   0  0  2  0  0  0  0  0  0  0  0  0
   13.8514    6.7852   26.5559 O   0  0  0  0  0  0  0  0  0  0  0  0
    6.2405    8.0659   23.9320 C   0  0  2  0  0  0  0  0  0  0  0  0
    5.6590    7.9877   25.2682 O   0  0  0  0  0  0  0  0  0  0  0  0
    4.6647    5.5971   27.8577 C   0  0  2  0  0  0  0  0  0  0  0  0
    5.5609    6.6568   28.2823 O   0  0  0  0  0  0  0  0  0  0  0  0
    7.3094    7.1628   31.7787 C   0  0  0  0  0  0  0  0  0  0  0  0
    6.6579    6.2907   32.6857 O   0  0  0  0  0  0  0  0  0  0  0  0
   13.6429    6.8259   28.9991 C   0  0  1  0  0  0  0  0  0  0  0  0
   12.2979    6.2578   29.0268 O   0  0  0  0  0  0  0  0  0  0  0  0
    7.2928    9.1964   23.9731 C   0  0  0  0  0  0  0  0  0  0  0  0
    7.9072    9.3743   22.7081 O   0  0  0  0  0  0  0  0  0  0  0  0
    4.3605    4.6885   29.0891 C   0  0  1  0  0  0  0  0  0  0  0  0
    3.5908    5.4343   30.0311 O   0  0  0  0  0  0  0  0  0  0  0  0
   14.6784    5.6809   29.1407 C   0  0  0  0  0  0  0  0  0  0  0  0
   14.4333    4.5794   28.1921 N   0  0  0  0  0  0  0  0  0  0  0  0
  1  2  1  6  0  0  0
  1  7  1  0  0  0  0
  1 30  1  0  0  0  0
  3  4  1  1  0  0  0
  3  9  1  0  0  0  0
  3 39  1  0  0  0  0
  5 10  1  0  0  0  0
  5 26  1  0  0  0  0
  5 32  1  1  0  0  0
  6 12  1  0  0  0  0
  6 36  1  0  0  0  0
  6 19  1  6  0  0  0
  7  8  1  6  0  0  0
  7 14  1  0  0  0  0
  9 16  1  0  0  0  0
 10 11  1  6  0  0  0
 10 18  1  0  0  0  0
 12 13  1  6  0  0  0
 12 20  1  0  0  0  0
 14 15  1  6  0  0  0
 14 22  1  0  0  0  0
 16 17  1  6  0  0  0
 16 24  1  0  0  0  0
 18 19  1  6  0  0  0
 18 25  1  0  0  0  0
 20 21  1  1  0  0  0
 20 27  1  0  0  0  0
 22 23  1  6  0  0  0
 22 29  1  0  0  0  0
 24  2  1  6  0  0  0
 24 31  1  0  0  0  0
 25 26  1  0  0  0  0
 25 33  1  1  0  0  0
 27 28  1  6  0  0  0
 27 35  1  0  0  0  0
 29 30  1  0  0  0  0
 29 37  1  1  0  0  0
 31 32  1  1  0  0  0
 31 39  1  0  0  0  0
 33 34  1  0  0  0  0
 35 36  1  0  0  0  0
 35 41  1  6  0  0  0
 37 38  1  0  0  0  0
 39 40  1  1  0  0  0
 41 42  1  0  0  0  0
M  END
>  <CHROM.1>
-123.48465296,124.05872069,61.96740598,60.84706878,157.83557606,80.34278606
-178.11255424,68.85137332,108.42656045,-84.15303436,-57.95868465,-175.03260275
-176.18194465,67.27421066,-57.95685634,-50.36480547,165.96292526,-156.06320044
-71.50905039,-67.04577188,-55.67936063,54.84510970,7.57862858,6.51677074
27.18229617,-2.88543610,0.27077708,1.99639888

>  <Name>
1fyp_lig

>  <RI>
0

>  <Rbt.Current_Directory>
/home/itssahil/PROJECTS/Mol_Feturizer/New_Systems/rnas/1fyp

>  <Rbt.Executable>
rbdock ($Id: //depot/dev/client3/rdock/2013.1/src/exe/rbdock.cxx#4 $)

>  <Rbt.Library>
libRbt.so (2013.1, Build901 2013/11/27)

>  <Rbt.Parameter_File>
/export/apps/rDock/src/rDock_2013.1_src/data/scripts/dock_solv.prm

>  <Rbt.Receptor>
prm/pocket_docking_7.prm

>  <SCORE>
-46.717

>  <SCORE.INTER>
-40.3541

>  <SCORE.INTER.CONST>
1

>  <SCORE.INTER.POLAR>
-4.8499

>  <SCORE.INTER.ROT>
14

>  <SCORE.INTER.SOLV>
16.3127

>  <SCORE.INTER.VDW>
-29.1073

>  <SCORE.INTER.norm>
-0.960811

>  <SCORE.INTRA>
-6.36291

>  <SCORE.INTRA.DIHEDRAL>
-17.2736

>  <SCORE.INTRA.DIHEDRAL.0>
48.7173

>  <SCORE.INTRA.POLAR>
-0.285778

>  <SCORE.INTRA.POLAR.0>
-1.54691

>  <SCORE.INTRA.REPUL>
0

>  <SCORE.INTRA.REPUL.0>
0

>  <SCORE.INTRA.SOLV>
-0.113649

>  <SCORE.INTRA.SOLV.lig_0>
-64.052

>  <SCORE.INTRA.VDW>
3.30233

>  <SCORE.INTRA.VDW.0>
-7.0667

>  <SCORE.INTRA.norm>
-0.151498

>  <SCORE.RESTR>
0

>  <SCORE.RESTR.CAVITY>
0

>  <SCORE.RESTR.norm>
0

>  <SCORE.SYSTEM>
0

>  <SCORE.SYSTEM.CONST>
0

>  <SCORE.SYSTEM.DIHEDRAL>
0

>  <SCORE.SYSTEM.SOLV>
0

>  <SCORE.SYSTEM.norm>
0

>  <SCORE.heavy>
42

>  <SCORE.norm>
-1.11231

>  <RMSD>
10.073

$$$$
1fyp_lig
 OpenBabel11021811393D
libRbt.so/2013.1/901 2013/11/27
 42 45  0  0  0  0  0  0  0  0999 V2000
   11.1332   11.1153   29.6206 C   0  0  2  0  0  0  0  0  0  0  0  0
   10.5592   11.2432   28.2877 O   0  0  0  0  0  0  0  0  0  0  0  0
   11.6656   12.8109   24.4721 C   0  0  2  0  0  0  0  0  0  0  0  0
   12.3515   13.2086   23.2288 N   0  0  0  0  0  0  0  0  0  0  0  0
   10.2344    8.7352   27.1115 C   0  0  1  0  0  0  0  0  0  0  0  0
    9.1401    5.9367   30.2375 C   0  0  1  0  0  0  0  0  0  0  0  0
   10.1617   10.3721   30.5932 C   0  0  2  0  0  0  0  0  0  0  0  0
    9.6834    9.1020   30.0067 N   0  0  0  0  0  0  0  0  0  0  0  0
   12.4914   13.2806   25.6863 C   0  0  0  0  0  0  0  0  0  0  0  0
    9.7513    7.3308   26.7401 C   0  0  2  0  0  0  0  0  0  0  0  0
    8.3485    7.3635   26.4742 O   0  0  0  0  0  0  0  0  0  0  0  0
    7.8648    6.0584   31.1262 C   0  0  2  0  0  0  0  0  0  0  0  0
    7.4047    7.4605   31.2766 N   0  0  0  0  0  0  0  0  0  0  0  0
    8.9521   11.2821   30.9739 C   0  0  1  0  0  0  0  0  0  0  0  0
    8.1620   10.6541   31.9804 O   0  0  0  0  0  0  0  0  0  0  0  0
   11.8119   12.9180   27.0351 C   0  0  2  0  0  0  0  0  0  0  0  0
   12.7181   13.3375   28.1243 N   0  0  0  0  0  0  0  0  0  0  0  0
   10.0566    6.5458   28.0188 C   0  0  2  0  0  0  0  0  0  0  0  0
    9.0083    6.7071   29.0145 O   0  0  0  0  0  0  0  0  0  0  0  0
    8.0882    5.3827   32.5142 C   0  0  1  0  0  0  0  0  0  0  0  0
    8.0788    3.9678   32.3365 O   0  0  0  0  0  0  0  0  0  0  0  0
    9.4139   12.6639   31.5009 C   0  0  2  0  0  0  0  0  0  0  0  0
    8.2690   13.4764   31.7410 O   0  0  0  0  0  0  0  0  0  0  0  0
   11.4498   11.3932   27.1450 C   0  0  2  0  0  0  0  0  0  0  0  0
   11.3597    7.2021   28.4959 C   0  0  2  0  0  0  0  0  0  0  0  0
   11.2852    8.5791   28.0785 O   0  0  0  0  0  0  0  0  0  0  0  0
    9.4276    5.7785   33.2065 C   0  0  2  0  0  0  0  0  0  0  0  0
    9.3124    7.1193   33.6856 O   0  0  0  0  0  0  0  0  0  0  0  0
   10.3624   13.3444   30.4735 C   0  0  2  0  0  0  0  0  0  0  0  0
   11.4632   12.4373   30.1650 O   0  0  0  0  0  0  0  0  0  0  0  0
   10.7407   10.8385   25.8567 C   0  0  2  0  0  0  0  0  0  0  0  0
   10.7583    9.3886   25.9206 O   0  0  0  0  0  0  0  0  0  0  0  0
   12.6188    6.5390   27.9096 C   0  0  0  0  0  0  0  0  0  0  0  0
   12.7207    6.7899   26.5188 O   0  0  0  0  0  0  0  0  0  0  0  0
   10.6218    5.6635   32.2090 C   0  0  1  0  0  0  0  0  0  0  0  0
   10.3134    6.4019   30.9874 O   0  0  0  0  0  0  0  0  0  0  0  0
   11.0006   14.6660   30.9563 C   0  0  0  0  0  0  0  0  0  0  0  0
   11.5674   15.3888   29.8765 O   0  0  0  0  0  0  0  0  0  0  0  0
   11.4449   11.2803   24.5363 C   0  0  1  0  0  0  0  0  0  0  0  0
   10.6401   10.8767   23.4295 O   0  0  0  0  0  0  0  0  0  0  0  0
   11.9501    6.1993   32.8020 C   0  0  0  0  0  0  0  0  0  0  0  0
   13.0830    6.0512   31.8705 N   0  0  0  0  0  0  0  0  0  0  0  0
  1  2  1  6  0  0  0
  1  7  1  0  0  0  0
  1 30  1  0  0  0  0
  3  4  1  6  0  0  0
  3  9  1  0  0  0  0
  3 39  1  0  0  0  0
  5 10  1  0  0  0  0
  5 26  1  0  0  0  0
  5 32  1  6  0  0  0
  6 12  1  0  0  0  0
  6 36  1  0  0  0  0
  6 19  1  6  0  0  0
  7  8  1  6  0  0  0
  7 14  1  0  0  0  0
  9 16  1  0  0  0  0
 10 11  1  1  0  0  0
 10 18  1  0  0  0  0
 12 13  1  1  0  0  0
 12 20  1  0  0  0  0
 14 15  1  1  0  0  0
 14 22  1  0  0  0  0
 16 17  1  1  0  0  0
 16 24  1  0  0  0  0
 18 19  1  1  0  0  0
 18 25  1  0  0  0  0
 20 21  1  6  0  0  0
 20 27  1  0  0  0  0
 22 23  1  6  0  0  0
 22 29  1  0  0  0  0
 24  2  1  1  0  0  0
 24 31  1  0  0  0  0
 25 26  1  0  0  0  0
 25 33  1  6  0  0  0
 27 28  1  6  0  0  0
 27 35  1  0  0  0  0
 29 30  1  0  0  0  0
 29 37  1  1  0  0  0
 31 32  1  1  0  0  0
 31 39  1  0  0  0  0
 33 34  1  0  0  0  0
 35 36  1  0  0  0  0
 35 41  1  1  0  0  0
 37 38  1  0  0  0  0
 39 40  1  6  0  0  0
 41 42  1  0  0  0  0
M  END
>  <CHROM.1>
-155.39146450,-84.13786069,-158.90311483,94.93498092,-179.32365639,66.62233226
57.85101543,-161.14987113,175.92341952,-172.45444827,-173.07981572,62.69399518
69.00483971,-48.32325786,-165.24339941,53.23609558,153.97845763,175.43905267
178.28349348,-60.49019683,-63.22076392,-172.59657498,10.40556222,9.45245752
29.10925888,0.56359761,1.28270555,0.31702540

>  <Name>
1fyp_lig

>  <RI>
0

>  <Rbt.Current_Directory>
/home/itssahil/PROJECTS/Mol_Feturizer/New_Systems/rnas/1fyp

>  <Rbt.Executable>
rbdock ($Id: //depot/dev/client3/rdock/2013.1/src/exe/rbdock.cxx#4 $)

>  <Rbt.Library>
libRbt.so (2013.1, Build901 2013/11/27)

>  <Rbt.Parameter_File>
/export/apps/rDock/src/rDock_2013.1_src/data/scripts/dock_solv.prm

>  <Rbt.Receptor>
prm/pocket_docking_8.prm

>  <SCORE>
-27.335

>  <SCORE.INTER>
-4.02193

>  <SCORE.INTER.CONST>
1

>  <SCORE.INTER.POLAR>
-0.554185

>  <SCORE.INTER.ROT>
14

>  <SCORE.INTER.SOLV>
7.85359

>  <SCORE.INTER.VDW>
-16.3852

>  <SCORE.INTER.norm>
-0.0957602

>  <SCORE.INTRA>
-23.3138

>  <SCORE.INTRA.DIHEDRAL>
-34.8304

>  <SCORE.INTRA.DIHEDRAL.0>
48.7173

>  <SCORE.INTRA.POLAR>
-2.72297

>  <SCORE.INTRA.POLAR.0>
-1.54691

>  <SCORE.INTRA.REPUL>
0.00116079

>  <SCORE.INTRA.REPUL.0>
0

>  <SCORE.INTRA.SOLV>
2.4976

>  <SCORE.INTRA.SOLV.lig_0>
-64.052

>  <SCORE.INTRA.VDW>
2.10492

>  <SCORE.INTRA.VDW.0>
-7.0667

>  <SCORE.INTRA.norm>
-0.55509

>  <SCORE.RESTR>
0.000716806

>  <SCORE.RESTR.CAVITY>
0.000716806

>  <SCORE.RESTR.norm>
1.70668e-05

>  <SCORE.SYSTEM>
0

>  <SCORE.SYSTEM.CONST>
0

>  <SCORE.SYSTEM.DIHEDRAL>
0

>  <SCORE.SYSTEM.SOLV>
0

>  <SCORE.SYSTEM.norm>
0

>  <SCORE.heavy>
42

>  <SCORE.norm>
-0.650833

>  <RMSD>
10.088

$$$$
1fyp_lig
 OpenBabel11021811393D
libRbt.so/2013.1/901 2013/11/27
 42 45  0  0  0  0  0  0  0  0999 V2000
    1.7708    4.0481   29.2318 C   0  0  2  0  0  0  0  0  0  0  0  0
    2.8575    4.9931   29.4523 O   0  0  0  0  0  0  0  0  0  0  0  0
    2.5861    6.7220   25.5563 C   0  0  2  0  0  0  0  0  0  0  0  0
    2.6149    7.5983   24.3707 N   0  0  0  0  0  0  0  0  0  0  0  0
    5.9613    6.5386   28.4463 C   0  0  1  0  0  0  0  0  0  0  0  0
    8.9649    9.1312   30.4920 C   0  0  1  0  0  0  0  0  0  0  0  0
    1.7471    2.9367   30.3300 C   0  0  2  0  0  0  0  0  0  0  0  0
    1.7849    3.5225   31.6868 N   0  0  0  0  0  0  0  0  0  0  0  0
    1.7874    7.4084   26.6823 C   0  0  0  0  0  0  0  0  0  0  0  0
    7.2714    6.1245   29.1216 C   0  0  2  0  0  0  0  0  0  0  0  0
    7.0296    5.8453   30.5011 O   0  0  0  0  0  0  0  0  0  0  0  0
    9.9835    8.2075   31.2271 C   0  0  2  0  0  0  0  0  0  0  0  0
    9.3279    7.2756   32.1768 N   0  0  0  0  0  0  0  0  0  0  0  0
    2.9324    1.9395   30.1376 C   0  0  1  0  0  0  0  0  0  0  0  0
    2.8075    0.8466   31.0442 O   0  0  0  0  0  0  0  0  0  0  0  0
    1.6927    6.5268   27.9575 C   0  0  2  0  0  0  0  0  0  0  0  0
    0.9829    7.3059   28.9933 N   0  0  0  0  0  0  0  0  0  0  0  0
    8.1243    7.3845   28.9505 C   0  0  2  0  0  0  0  0  0  0  0  0
    7.8385    8.3735   29.9785 O   0  0  0  0  0  0  0  0  0  0  0  0
   11.0898    9.0510   31.9325 C   0  0  1  0  0  0  0  0  0  0  0  0
   11.9679    9.5710   30.9364 O   0  0  0  0  0  0  0  0  0  0  0  0
    2.9852    1.3787   28.6944 C   0  0  2  0  0  0  0  0  0  0  0  0
    4.1373    0.5524   28.5584 O   0  0  0  0  0  0  0  0  0  0  0  0
    3.0965    6.0392   28.4674 C   0  0  2  0  0  0  0  0  0  0  0  0
    7.6754    7.8925   27.5732 C   0  0  2  0  0  0  0  0  0  0  0  0
    6.2920    7.5117   27.4426 O   0  0  0  0  0  0  0  0  0  0  0  0
   10.5418   10.2453   32.7712 C   0  0  2  0  0  0  0  0  0  0  0  0
    9.9385    9.7278   33.9581 O   0  0  0  0  0  0  0  0  0  0  0  0
    3.0216    2.5425   27.6636 C   0  0  2  0  0  0  0  0  0  0  0  0
    1.8897    3.4314   27.9057 O   0  0  0  0  0  0  0  0  0  0  0  0
    4.0024    5.4717   27.3153 C   0  0  2  0  0  0  0  0  0  0  0  0
    5.3606    5.3712   27.8171 O   0  0  0  0  0  0  0  0  0  0  0  0
    8.4985    7.3014   26.4148 C   0  0  0  0  0  0  0  0  0  0  0  0
    9.7968    7.8675   26.3774 O   0  0  0  0  0  0  0  0  0  0  0  0
    9.4991   11.0661   31.9506 C   0  0  1  0  0  0  0  0  0  0  0  0
    8.4814   10.1677   31.4125 O   0  0  0  0  0  0  0  0  0  0  0  0
    2.9302    2.1028   26.1853 C   0  0  0  0  0  0  0  0  0  0  0  0
    3.1003    3.2041   25.3090 O   0  0  0  0  0  0  0  0  0  0  0  0
    4.0137    6.3799   26.0466 C   0  0  1  0  0  0  0  0  0  0  0  0
    4.7170    5.7046   25.0048 O   0  0  0  0  0  0  0  0  0  0  0  0
    8.8068   12.1670   32.7944 C   0  0  0  0  0  0  0  0  0  0  0  0
    9.7238   13.2656   33.1482 N   0  0  0  0  0  0  0  0  0  0  0  0
  1  2  1  1  0  0  0
  1  7  1  0  0  0  0
  1 30  1  0  0  0  0
  3  4  1  6  0  0  0
  3  9  1  0  0  0  0
  3 39  1  0  0  0  0
  5 10  1  0  0  0  0
  5 26  1  0  0  0  0
  5 32  1  6  0  0  0
  6 12  1  0  0  0  0
  6 36  1  0  0  0  0
  6 19  1  1  0  0  0
  7  8  1  1  0  0  0
  7 14  1  0  0  0  0
  9 16  1  0  0  0  0
 10 11  1  1  0  0  0
 10 18  1  0  0  0  0
 12 13  1  1  0  0  0
 12 20  1  0  0  0  0
 14 15  1  1  0  0  0
 14 22  1  0  0  0  0
 16 17  1  1  0  0  0
 16 24  1  0  0  0  0
 18 19  1  1  0  0  0
 18 25  1  0  0  0  0
 20 21  1  6  0  0  0
 20 27  1  0  0  0  0
 22 23  1  1  0  0  0
 22 29  1  0  0  0  0
 24  2  1  1  0  0  0
 24 31  1  0  0  0  0
 25 26  1  0  0  0  0
 25 33  1  6  0  0  0
 27 28  1  1  0  0  0
 27 35  1  0  0  0  0
 29 30  1  0  0  0  0
 29 37  1  6  0  0  0
 31 32  1  1  0  0  0
 31 39  1  0  0  0  0
 33 34  1  0  0  0  0
 35 36  1  0  0  0  0
 35 41  1  1  0  0  0
 37 38  1  0  0  0  0
 39 40  1  6  0  0  0
 41 42  1  0  0  0  0
M  END
>  <CHROM.1>
175.31737045,37.98712598,74.16909559,50.46315773,69.34810987,57.25069924
-61.93645281,159.95269809,142.21886194,-64.08887404,-60.09400983,67.65337206
-72.97415498,-43.65329873,-174.30329896,-51.60937315,169.46778346,-175.04629400
69.59588963,-174.55759946,-60.24299199,178.82154640,5.72638430,6.43003789
29.10243735,3.07683852,-0.79211435,-1.13478226

>  <Name>
1fyp_lig

>  <RI>
0

>  <Rbt.Current_Directory>
/home/itssahil/PROJECTS/Mol_Feturizer/New_Systems/rnas/1fyp

>  <Rbt.Executable>
rbdock ($Id: //depot/dev/client3/rdock/2013.1/src/exe/rbdock.cxx#4 $)

>  <Rbt.Library>
libRbt.so (2013.1, Build901 2013/11/27)

>  <Rbt.Parameter_File>
/export/apps/rDock/src/rDock_2013.1_src/data/scripts/dock_solv.prm

>  <Rbt.Receptor>
prm/pocket_docking_7.prm

>  <SCORE>
-48.9173

>  <SCORE.INTER>
-28.7956

>  <SCORE.INTER.CONST>
1

>  <SCORE.INTER.POLAR>
-2.96086

>  <SCORE.INTER.ROT>
14

>  <SCORE.INTER.SOLV>
13.2922

>  <SCORE.INTER.VDW>
-26.6916

>  <SCORE.INTER.norm>
-0.685609

>  <SCORE.INTRA>
-20.1217

>  <SCORE.INTRA.DIHEDRAL>
-35.6023

>  <SCORE.INTRA.DIHEDRAL.0>
48.7173

>  <SCORE.INTRA.POLAR>
-1.10362

>  <SCORE.INTRA.POLAR.0>
-1.54691

>  <SCORE.INTRA.REPUL>
0

>  <SCORE.INTRA.REPUL.0>
0

>  <SCORE.INTRA.SOLV>
-1.04669

>  <SCORE.INTRA.SOLV.lig_0>
-64.052

>  <SCORE.INTRA.VDW>
1.95505

>  <SCORE.INTRA.VDW.0>
-7.0667

>  <SCORE.INTRA.norm>
-0.479089

>  <SCORE.RESTR>
0

>  <SCORE.RESTR.CAVITY>
0

>  <SCORE.RESTR.norm>
0

>  <SCORE.SYSTEM>
0

>  <SCORE.SYSTEM.CONST>
0

>  <SCORE.SYSTEM.DIHEDRAL>
0

>  <SCORE.SYSTEM.SOLV>
0

>  <SCORE.SYSTEM.norm>
0

>  <SCORE.heavy>
42

>  <SCORE.norm>
-1.1647

>  <RMSD>
10.103

$$$$
1fyp_lig
 OpenBabel11021811393D
libRbt.so/2013.1/901 2013/11/27
 42 45  0  0  0  0  0  0  0  0999 V2000
   -2.4419    1.0895   29.6330 C   0  0  2  0  0  0  0  0  0  0  0  0
   -1.6519    0.2662   28.7272 O   0  0  0  0  0  0  0  0  0  0  0  0
   -1.3560   -0.1721   24.4891 C   0  0  2  0  0  0  0  0  0  0  0  0
   -1.2205    0.0191   23.0333 N   0  0  0  0  0  0  0  0  0  0  0  0
    1.6905    1.6437   26.8180 C   0  0  1  0  0  0  0  0  0  0  0  0
    3.6507    5.6251   26.4169 C   0  0  1  0  0  0  0  0  0  0  0  0
   -1.8945    1.0190   31.0950 C   0  0  2  0  0  0  0  0  0  0  0  0
   -0.4405    1.2830   31.1365 N   0  0  0  0  0  0  0  0  0  0  0  0
   -2.4911    0.7255   25.0209 C   0  0  0  0  0  0  0  0  0  0  0  0
    1.6410    2.7937   27.8274 C   0  0  2  0  0  0  0  0  0  0  0  0
    0.5105    3.6218   27.5522 O   0  0  0  0  0  0  0  0  0  0  0  0
    3.0265    6.7634   25.5532 C   0  0  2  0  0  0  0  0  0  0  0  0
    2.5767    6.2891   24.2216 N   0  0  0  0  0  0  0  0  0  0  0  0
   -2.2121   -0.3656   31.7416 C   0  0  1  0  0  0  0  0  0  0  0  0
   -1.8503   -0.3590   33.1203 O   0  0  0  0  0  0  0  0  0  0  0  0
   -2.7086    0.5545   26.5493 C   0  0  2  0  0  0  0  0  0  0  0  0
   -3.7548    1.5113   26.9662 N   0  0  0  0  0  0  0  0  0  0  0  0
    2.9524    3.5269   27.5320 C   0  0  2  0  0  0  0  0  0  0  0  0
    2.8208    4.4344   26.4026 O   0  0  0  0  0  0  0  0  0  0  0  0
    4.0109    7.9664   25.4241 C   0  0  1  0  0  0  0  0  0  0  0  0
    4.0507    8.6556   26.6719 O   0  0  0  0  0  0  0  0  0  0  0  0
   -3.7153   -0.7232   31.6285 C   0  0  2  0  0  0  0  0  0  0  0  0
   -3.9225   -2.0321   32.1505 O   0  0  0  0  0  0  0  0  0  0  0  0
   -1.3888    0.7499   27.3787 C   0  0  2  0  0  0  0  0  0  0  0  0
    3.8980    2.3682   27.1860 C   0  0  2  0  0  0  0  0  0  0  0  0
    3.0764    1.3569   26.5712 O   0  0  0  0  0  0  0  0  0  0  0  0
    5.4671    7.5593   25.0451 C   0  0  2  0  0  0  0  0  0  0  0  0
    5.4875    7.1734   23.6698 O   0  0  0  0  0  0  0  0  0  0  0  0
   -4.1791   -0.6452   30.1462 C   0  0  2  0  0  0  0  0  0  0  0  0
   -3.8482    0.6712   29.6102 O   0  0  0  0  0  0  0  0  0  0  0  0
   -0.1659   -0.0315   26.7754 C   0  0  2  0  0  0  0  0  0  0  0  0
    1.0442    0.4745   27.3967 O   0  0  0  0  0  0  0  0  0  0  0  0
    4.6176    1.7890   28.4170 C   0  0  0  0  0  0  0  0  0  0  0  0
    4.8807    2.8025   29.3716 O   0  0  0  0  0  0  0  0  0  0  0  0
    5.9649    6.3837   25.9420 C   0  0  1  0  0  0  0  0  0  0  0  0
    4.9897    5.2971   25.9122 O   0  0  0  0  0  0  0  0  0  0  0  0
   -5.6963   -0.8420   29.9301 C   0  0  0  0  0  0  0  0  0  0  0  0
   -6.4511    0.0353   30.7487 O   0  0  0  0  0  0  0  0  0  0  0  0
   -0.0344    0.1429   25.2304 C   0  0  1  0  0  0  0  0  0  0  0  0
    0.9886   -0.7307   24.7551 O   0  0  0  0  0  0  0  0  0  0  0  0
    7.3457    5.8362   25.4984 C   0  0  0  0  0  0  0  0  0  0  0  0
    7.6796    4.5563   26.1491 N   0  0  0  0  0  0  0  0  0  0  0  0
  1  2  1  6  0  0  0
  1  7  1  0  0  0  0
  1 30  1  0  0  0  0
  3  4  1  6  0  0  0
  3  9  1  0  0  0  0
  3 39  1  0  0  0  0
  5 10  1  0  0  0  0
  5 26  1  0  0  0  0
  5 32  1  1  0  0  0
  6 12  1  0  0  0  0
  6 36  1  0  0  0  0
  6 19  1  6  0  0  0
  7  8  1  6  0  0  0
  7 14  1  0  0  0  0
  9 16  1  0  0  0  0
 10 11  1  6  0  0  0
 10 18  1  0  0  0  0
 12 13  1  6  0  0  0
 12 20  1  0  0  0  0
 14 15  1  1  0  0  0
 14 22  1  0  0  0  0
 16 17  1  1  0  0  0
 16 24  1  0  0  0  0
 18 19  1  6  0  0  0
 18 25  1  0  0  0  0
 20 21  1  1  0  0  0
 20 27  1  0  0  0  0
 22 23  1  6  0  0  0
 22 29  1  0  0  0  0
 24  2  1  1  0  0  0
 24 31  1  0  0  0  0
 25 26  1  0  0  0  0
 25 33  1  1  0  0  0
 27 28  1  6  0  0  0
 27 35  1  0  0  0  0
 29 30  1  0  0  0  0
 29 37  1  1  0  0  0
 31 32  1  1  0  0  0
 31 39  1  0  0  0  0
 33 34  1  0  0  0  0
 35 36  1  0  0  0  0
 35 41  1  6  0  0  0
 37 38  1  0  0  0  0
 39 40  1  6  0  0  0
 41 42  1  0  0  0  0
M  END
>  <CHROM.1>
-141.88489304,-76.08741630,82.99741711,73.36294327,56.06421167,86.60637404
-66.08606285,170.64765081,149.39129635,-155.67290587,-61.09760086,-165.05608053
-33.47321784,71.77045691,52.64251799,-86.52450405,115.76249379,177.86770879
-167.64181638,77.96064605,108.61194576,-52.41243646,0.74088990,2.36417189
27.52953801,-2.72387843,-0.61301356,-1.51161548

>  <Name>
1fyp_lig

>  <RI>
0

>  <Rbt.Current_Directory>
/home/itssahil/PROJECTS/Mol_Feturizer/New_Systems/rnas/1fyp

>  <Rbt.Executable>
rbdock ($Id: //depot/dev/client3/rdock/2013.1/src/exe/rbdock.cxx#4 $)

>  <Rbt.Library>
libRbt.so (2013.1, Build901 2013/11/27)

>  <Rbt.Parameter_File>
/export/apps/rDock/src/rDock_2013.1_src/data/scripts/dock_solv.prm

>  <Rbt.Receptor>
prm/pocket_docking_6.prm

>  <SCORE>
-33.263

>  <SCORE.INTER>
-32.0821

>  <SCORE.INTER.CONST>
1

>  <SCORE.INTER.POLAR>
-5.27844

>  <SCORE.INTER.ROT>
14

>  <SCORE.INTER.SOLV>
20.5352

>  <SCORE.INTER.VDW>
-23.5717

>  <SCORE.INTER.norm>
-0.76386

>  <SCORE.INTRA>
-1.18086

>  <SCORE.INTRA.DIHEDRAL>
-10.7562

>  <SCORE.INTRA.DIHEDRAL.0>
48.7173

>  <SCORE.INTRA.POLAR>
0.546914

>  <SCORE.INTRA.POLAR.0>
-1.54691

>  <SCORE.INTRA.REPUL>
0.0105427

>  <SCORE.INTRA.REPUL.0>
0

>  <SCORE.INTRA.SOLV>
-2.22259

>  <SCORE.INTRA.SOLV.lig_0>
-64.052

>  <SCORE.INTRA.VDW>
3.3963

>  <SCORE.INTRA.VDW.0>
-7.0667

>  <SCORE.INTRA.norm>
-0.0281156

>  <SCORE.RESTR>
0

>  <SCORE.RESTR.CAVITY>
0

>  <SCORE.RESTR.norm>
0

>  <SCORE.SYSTEM>
0

>  <SCORE.SYSTEM.CONST>
0

>  <SCORE.SYSTEM.DIHEDRAL>
0

>  <SCORE.SYSTEM.SOLV>
0

>  <SCORE.SYSTEM.norm>
0

>  <SCORE.heavy>
42

>  <SCORE.norm>
-0.791976

>  <RMSD>
10.119

$$$$
1fyp_lig
 OpenBabel11021811393D
libRbt.so/2013.1/901 2013/11/27
 42 45  0  0  0  0  0  0  0  0999 V2000
   -2.8485    0.8221   27.9389 C   0  0  2  0  0  0  0  0  0  0  0  0
   -2.1168   -0.2312   27.2479 O   0  0  0  0  0  0  0  0  0  0  0  0
   -1.2391   -1.9892   23.4558 C   0  0  2  0  0  0  0  0  0  0  0  0
   -1.1773   -2.3776   22.0346 N   0  0  0  0  0  0  0  0  0  0  0  0
    0.3372    1.7577   26.3948 C   0  0  1  0  0  0  0  0  0  0  0  0
    3.2428    2.9990   29.1464 C   0  0  1  0  0  0  0  0  0  0  0  0
   -2.1827    1.1787   29.3070 C   0  0  2  0  0  0  0  0  0  0  0  0
   -0.7362    1.4394   29.1477 N   0  0  0  0  0  0  0  0  0  0  0  0
   -2.6952   -2.0902   23.9522 C   0  0  0  0  0  0  0  0  0  0  0  0
    1.3861    0.7011   26.7514 C   0  0  2  0  0  0  0  0  0  0  0  0
    0.8827   -0.1392   27.7906 O   0  0  0  0  0  0  0  0  0  0  0  0
    3.3230    2.9705   30.7033 C   0  0  2  0  0  0  0  0  0  0  0  0
    1.9893    2.8551   31.3422 N   0  0  0  0  0  0  0  0  0  0  0  0
   -2.4164    0.0431   30.3519 C   0  0  1  0  0  0  0  0  0  0  0  0
   -1.9440    0.4497   31.6338 O   0  0  0  0  0  0  0  0  0  0  0  0
   -2.8310   -1.7202   25.4546 C   0  0  2  0  0  0  0  0  0  0  0  0
   -4.2660   -1.7707   25.8040 N   0  0  0  0  0  0  0  0  0  0  0  0
    2.5466    1.5668   27.2495 C   0  0  2  0  0  0  0  0  0  0  0  0
    2.3744    1.9510   28.6421 O   0  0  0  0  0  0  0  0  0  0  0  0
    4.1049    4.2080   31.2421 C   0  0  1  0  0  0  0  0  0  0  0  0
    5.4913    4.0251   30.9630 O   0  0  0  0  0  0  0  0  0  0  0  0
   -3.9156   -0.3278   30.4742 C   0  0  2  0  0  0  0  0  0  0  0  0
   -4.0510   -1.4276   31.3691 O   0  0  0  0  0  0  0  0  0  0  0  0
   -2.2059   -0.3201   25.7968 C   0  0  2  0  0  0  0  0  0  0  0  0
    2.4474    2.7954   26.3345 C   0  0  2  0  0  0  0  0  0  0  0  0
    1.0471    2.9537   26.0349 O   0  0  0  0  0  0  0  0  0  0  0  0
    3.6568    5.5647   30.6188 C   0  0  2  0  0  0  0  0  0  0  0  0
    2.3838    5.9163   31.1635 O   0  0  0  0  0  0  0  0  0  0  0  0
   -4.4999   -0.6833   29.0776 C   0  0  2  0  0  0  0  0  0  0  0  0
   -4.2425    0.4192   28.1568 O   0  0  0  0  0  0  0  0  0  0  0  0
   -0.7766   -0.1200   25.1748 C   0  0  2  0  0  0  0  0  0  0  0  0
   -0.4418    1.2899   25.2572 O   0  0  0  0  0  0  0  0  0  0  0  0
    3.2534    2.6439   25.0321 C   0  0  0  0  0  0  0  0  0  0  0  0
    3.7041    3.9044   24.5676 O   0  0  0  0  0  0  0  0  0  0  0  0
    3.5669    5.4576   29.0648 C   0  0  1  0  0  0  0  0  0  0  0  0
    2.7464    4.3062   28.6992 O   0  0  0  0  0  0  0  0  0  0  0  0
   -6.0249   -0.9303   29.0562 C   0  0  0  0  0  0  0  0  0  0  0  0
   -6.6958   -0.0895   29.9795 O   0  0  0  0  0  0  0  0  0  0  0  0
   -0.6971   -0.5568   23.6790 C   0  0  1  0  0  0  0  0  0  0  0  0
    0.6644   -0.5005   23.2559 O   0  0  0  0  0  0  0  0  0  0  0  0
    2.9715    6.7308   28.4110 C   0  0  0  0  0  0  0  0  0  0  0  0
    1.6178    7.0381   28.9070 N   0  0  0  0  0  0  0  0  0  0  0  0
  1  2  1  1  0  0  0
  1  7  1  0  0  0  0
  1 30  1  0  0  0  0
  3  4  1  6  0  0  0
  3  9  1  0  0  0  0
  3 39  1  0  0  0  0
  5 10  1  0  0  0  0
  5 26  1  0  0  0  0
  5 32  1  6  0  0  0
  6 12  1  0  0  0  0
  6 36  1  0  0  0  0
  6 19  1  1  0  0  0
  7  8  1  6  0  0  0
  7 14  1  0  0  0  0
  9 16  1  0  0  0  0
 10 11  1  1  0  0  0
 10 18  1  0  0  0  0
 12 13  1  1  0  0  0
 12 20  1  0  0  0  0
 14 15  1  1  0  0  0
 14 22  1  0  0  0  0
 16 17  1  6  0  0  0
 16 24  1  0  0  0  0
 18 19  1  1  0  0  0
 18 25  1  0  0  0  0
 20 21  1  6  0  0  0
 20 27  1  0  0  0  0
 22 23  1  1  0  0  0
 22 29  1  0  0  0  0
 24  2  1  1  0  0  0
 24 31  1  0  0  0  0
 25 26  1  0  0  0  0
 25 33  1  6  0  0  0
 27 28  1  1  0  0  0
 27 35  1  0  0  0  0
 29 30  1  0  0  0  0
 29 37  1  1  0  0  0
 31 32  1  6  0  0  0
 31 39  1  0  0  0  0
 33 34  1  0  0  0  0
 35 36  1  0  0  0  0
 35 41  1  1  0  0  0
 37 38  1  0  0  0  0
 39 40  1  1  0  0  0
 41 42  1  0  0  0  0
M  END
>  <CHROM.1>
-154.52534877,-118.95383431,-54.30000900,167.01134332,56.00555291,169.65732384
-162.76013948,21.29170406,-166.98829747,-159.92166553,-179.66753098,59.93864214
-150.36352792,161.00287917,34.69716114,94.74886373,37.70508112,-46.41789673
-58.62276652,70.66843746,-61.40152507,108.35894798,-0.10990624,1.46090140
27.81075769,2.62706855,-0.56073233,-1.96657630

>  <Name>
1fyp_lig

>  <RI>
0

>  <Rbt.Current_Directory>
/home/itssahil/PROJECTS/Mol_Feturizer/New_Systems/rnas/1fyp

>  <Rbt.Executable>
rbdock ($Id: //depot/dev/client3/rdock/2013.1/src/exe/rbdock.cxx#4 $)

>  <Rbt.Library>
libRbt.so (2013.1, Build901 2013/11/27)

>  <Rbt.Parameter_File>
/export/apps/rDock/src/rDock_2013.1_src/data/scripts/dock_solv.prm

>  <Rbt.Receptor>
prm/pocket_docking_6.prm

>  <SCORE>
-46.7094

>  <SCORE.INTER>
-44.1522

>  <SCORE.INTER.CONST>
1

>  <SCORE.INTER.POLAR>
-7.3509

>  <SCORE.INTER.ROT>
14

>  <SCORE.INTER.SOLV>
19.6106

>  <SCORE.INTER.VDW>
-24.402

>  <SCORE.INTER.norm>
-1.05124

>  <SCORE.INTRA>
-2.55724

>  <SCORE.INTRA.DIHEDRAL>
-15.2122

>  <SCORE.INTRA.DIHEDRAL.0>
48.7173

>  <SCORE.INTRA.POLAR>
-0.141907

>  <SCORE.INTRA.POLAR.0>
-1.54691

>  <SCORE.INTRA.REPUL>
0.260198

>  <SCORE.INTRA.REPUL.0>
0

>  <SCORE.INTRA.SOLV>
1.29648

>  <SCORE.INTRA.SOLV.lig_0>
-64.052

>  <SCORE.INTRA.VDW>
3.58211

>  <SCORE.INTRA.VDW.0>
-7.0667

>  <SCORE.INTRA.norm>
-0.0608867

>  <SCORE.RESTR>
0

>  <SCORE.RESTR.CAVITY>
0

>  <SCORE.RESTR.norm>
0

>  <SCORE.SYSTEM>
0

>  <SCORE.SYSTEM.CONST>
0

>  <SCORE.SYSTEM.DIHEDRAL>
0

>  <SCORE.SYSTEM.SOLV>
0

>  <SCORE.SYSTEM.norm>
0

>  <SCORE.heavy>
42

>  <SCORE.norm>
-1.11213

>  <RMSD>
10.139

$$$$
1fyp_lig
 OpenBabel11021811393D
libRbt.so/2013.1/901 2013/11/27
 42 45  0  0  0  0  0  0  0  0999 V2000
   -2.4160    1.3898   26.4237 C   0  0  2  0  0  0  0  0  0  0  0  0
   -2.5704    0.2285   27.2898 O   0  0  0  0  0  0  0  0  0  0  0  0
   -1.9631    2.0077   31.1247 C   0  0  2  0  0  0  0  0  0  0  0  0
   -1.6138    2.3164   32.5237 N   0  0  0  0  0  0  0  0  0  0  0  0
    1.2416    2.1782   28.0250 C   0  0  1  0  0  0  0  0  0  0  0  0
    4.9049    4.4198   27.1919 C   0  0  1  0  0  0  0  0  0  0  0  0
   -3.5274    1.4371   25.3262 C   0  0  2  0  0  0  0  0  0  0  0  0
   -4.8735    1.2888   25.9193 N   0  0  0  0  0  0  0  0  0  0  0  0
   -2.8046    0.7167   31.0790 C   0  0  0  0  0  0  0  0  0  0  0  0
    2.5872    1.4700   27.8468 C   0  0  2  0  0  0  0  0  0  0  0  0
    3.1959    1.2737   29.1237 O   0  0  0  0  0  0  0  0  0  0  0  0
    5.7161    5.2408   28.2403 C   0  0  2  0  0  0  0  0  0  0  0  0
    4.8540    5.8392   29.2886 N   0  0  0  0  0  0  0  0  0  0  0  0
   -3.2881    0.3375   24.2446 C   0  0  1  0  0  0  0  0  0  0  0  0
   -4.2129    0.4940   23.1713 O   0  0  0  0  0  0  0  0  0  0  0  0
   -3.2327    0.3449   29.6331 C   0  0  2  0  0  0  0  0  0  0  0  0
   -3.9589   -0.9406   29.6937 N   0  0  0  0  0  0  0  0  0  0  0  0
    3.3679    2.4864   27.0090 C   0  0  2  0  0  0  0  0  0  0  0  0
    3.9586    3.5275   27.8360 O   0  0  0  0  0  0  0  0  0  0  0  0
    6.5927    6.3243   27.5399 C   0  0  1  0  0  0  0  0  0  0  0  0
    7.6879    5.6755   26.8971 O   0  0  0  0  0  0  0  0  0  0  0  0
   -1.8509    0.3982   23.6693 C   0  0  2  0  0  0  0  0  0  0  0  0
   -1.6675   -0.6835   22.7610 O   0  0  0  0  0  0  0  0  0  0  0  0
   -2.0196    0.2724   28.6374 C   0  0  2  0  0  0  0  0  0  0  0  0
    2.2713    3.0704   26.1075 C   0  0  2  0  0  0  0  0  0  0  0  0
    1.0582    3.0312   26.8838 O   0  0  0  0  0  0  0  0  0  0  0  0
    5.8307    7.1672   26.4729 C   0  0  2  0  0  0  0  0  0  0  0  0
    4.9523    8.0686   27.1486 O   0  0  0  0  0  0  0  0  0  0  0  0
   -0.8056    0.3310   24.8187 C   0  0  2  0  0  0  0  0  0  0  0  0
   -1.0932    1.3827   25.7888 O   0  0  0  0  0  0  0  0  0  0  0  0
   -1.0506    1.5034   28.7633 C   0  0  2  0  0  0  0  0  0  0  0  0
    0.1812    1.1814   28.0665 O   0  0  0  0  0  0  0  0  0  0  0  0
    2.0864    2.2851   24.7969 C   0  0  0  0  0  0  0  0  0  0  0  0
    3.2984    2.2314   24.0649 O   0  0  0  0  0  0  0  0  0  0  0  0
    5.0196    6.2428   25.5126 C   0  0  1  0  0  0  0  0  0  0  0  0
    4.1867    5.3334   26.2947 O   0  0  0  0  0  0  0  0  0  0  0  0
    0.6609    0.5285   24.3741 C   0  0  0  0  0  0  0  0  0  0  0  0
    1.0483   -0.4522   23.4267 O   0  0  0  0  0  0  0  0  0  0  0  0
   -0.7005    1.8535   30.2430 C   0  0  1  0  0  0  0  0  0  0  0  0
    0.0368    3.0749   30.2637 O   0  0  0  0  0  0  0  0  0  0  0  0
    4.1182    7.0397   24.5351 C   0  0  0  0  0  0  0  0  0  0  0  0
    3.5759    6.1964   23.4545 N   0  0  0  0  0  0  0  0  0  0  0  0
  1  2  1  6  0  0  0
  1  7  1  0  0  0  0
  1 30  1  0  0  0  0
  3  4  1  1  0  0  0
  3  9  1  0  0  0  0
  3 39  1  0  0  0  0
  5 10  1  0  0  0  0
  5 26  1  0  0  0  0
  5 32  1  6  0  0  0
  6 12  1  0  0  0  0
  6 36  1  0  0  0  0
  6 19  1  1  0  0  0
  7  8  1  1  0  0  0
  7 14  1  0  0  0  0
  9 16  1  0  0  0  0
 10 11  1  1  0  0  0
 10 18  1  0  0  0  0
 12 13  1  1  0  0  0
 12 20  1  0  0  0  0
 14 15  1  6  0  0  0
 14 22  1  0  0  0  0
 16 17  1  1  0  0  0
 16 24  1  0  0  0  0
 18 19  1  1  0  0  0
 18 25  1  0  0  0  0
 20 21  1  6  0  0  0
 20 27  1  0  0  0  0
 22 23  1  6  0  0  0
 22 29  1  0  0  0  0
 24  2  1  6  0  0  0
 24 31  1  0  0  0  0
 25 26  1  0  0  0  0
 25 33  1  6  0  0  0
 27 28  1  1  0  0  0
 27 35  1  0  0  0  0
 29 30  1  0  0  0  0
 29 37  1  6  0  0  0
 31 32  1  6  0  0  0
 31 39  1  0  0  0  0
 33 34  1  0  0  0  0
 35 36  1  0  0  0  0
 35 41  1  6  0  0  0
 37 38  1  0  0  0  0
 39 40  1  6  0  0  0
 41 42  1  0  0  0  0
M  END
>  <CHROM.1>
-155.47561017,109.45661659,-164.37634487,-48.05978446,176.28963985,154.19458521
-60.88342151,61.91394035,169.97408312,-165.85648297,-179.60341107,-56.55798232
-57.50964664,52.14414497,-59.20365616,179.23764042,154.37606750,-174.97712223
167.99085826,-76.99184679,148.20683847,59.84553422,0.93781497,2.57214322
26.91643729,-3.10078476,0.58238285,1.45364981

>  <Name>
1fyp_lig

>  <RI>
0

>  <Rbt.Current_Directory>
/home/itssahil/PROJECTS/Mol_Feturizer/New_Systems/rnas/1fyp

>  <Rbt.Executable>
rbdock ($Id: //depot/dev/client3/rdock/2013.1/src/exe/rbdock.cxx#4 $)

>  <Rbt.Library>
libRbt.so (2013.1, Build901 2013/11/27)

>  <Rbt.Parameter_File>
/export/apps/rDock/src/rDock_2013.1_src/data/scripts/dock_solv.prm

>  <Rbt.Receptor>
prm/pocket_docking_6.prm

>  <SCORE>
-39.5768

>  <SCORE.INTER>
-48.0898

>  <SCORE.INTER.CONST>
1

>  <SCORE.INTER.POLAR>
-5.9528

>  <SCORE.INTER.ROT>
14

>  <SCORE.INTER.SOLV>
21.0139

>  <SCORE.INTER.VDW>
-32.1552

>  <SCORE.INTER.norm>
-1.14499

>  <SCORE.INTRA>
8.51302

>  <SCORE.INTRA.DIHEDRAL>
-26.8261

>  <SCORE.INTRA.DIHEDRAL.0>
48.7173

>  <SCORE.INTRA.POLAR>
1.41628

>  <SCORE.INTRA.POLAR.0>
-1.54691

>  <SCORE.INTRA.REPUL>
0

>  <SCORE.INTRA.REPUL.0>
0

>  <SCORE.INTRA.SOLV>
-0.609574

>  <SCORE.INTRA.SOLV.lig_0>
-64.052

>  <SCORE.INTRA.VDW>
17.4155

>  <SCORE.INTRA.VDW.0>
-7.0667

>  <SCORE.INTRA.norm>
0.202691

>  <SCORE.RESTR>
0

>  <SCORE.RESTR.CAVITY>
0

>  <SCORE.RESTR.norm>
0

>  <SCORE.SYSTEM>
0

>  <SCORE.SYSTEM.CONST>
0

>  <SCORE.SYSTEM.DIHEDRAL>
0

>  <SCORE.SYSTEM.SOLV>
0

>  <SCORE.SYSTEM.norm>
0

>  <SCORE.heavy>
42

>  <SCORE.norm>
-0.942304

>  <RMSD>
10.143

$$$$
1fyp_lig
 OpenBabel11021811393D
libRbt.so/2013.1/901 2013/11/27
 42 45  0  0  0  0  0  0  0  0999 V2000
    1.8399    5.3548   27.2446 C   0  0  2  0  0  0  0  0  0  0  0  0
    3.1673    5.3567   26.6442 O   0  0  0  0  0  0  0  0  0  0  0  0
    5.8637    7.8093   24.4183 C   0  0  2  0  0  0  0  0  0  0  0  0
    6.6156    8.9129   23.7929 N   0  0  0  0  0  0  0  0  0  0  0  0
    6.7492    6.5427   28.6682 C   0  0  1  0  0  0  0  0  0  0  0  0
   10.1321    7.1515   31.5034 C   0  0  1  0  0  0  0  0  0  0  0  0
    1.8332    6.0948   28.6210 C   0  0  2  0  0  0  0  0  0  0  0  0
    2.4565    7.4311   28.5144 N   0  0  0  0  0  0  0  0  0  0  0  0
    4.3594    7.9860   24.1308 C   0  0  0  0  0  0  0  0  0  0  0  0
    6.9337    7.5550   29.8018 C   0  0  2  0  0  0  0  0  0  0  0  0
    7.6319    8.6997   29.3104 O   0  0  0  0  0  0  0  0  0  0  0  0
    9.6866    8.4427   32.2554 C   0  0  2  0  0  0  0  0  0  0  0  0
    9.3084    9.5401   31.3319 N   0  0  0  0  0  0  0  0  0  0  0  0
    2.5566    5.2454   29.7125 C   0  0  1  0  0  0  0  0  0  0  0  0
    2.4047    5.8561   30.9915 O   0  0  0  0  0  0  0  0  0  0  0  0
    3.5061    6.8396   24.7392 C   0  0  2  0  0  0  0  0  0  0  0  0
    2.0846    7.1470   24.4772 N   0  0  0  0  0  0  0  0  0  0  0  0
    7.7916    6.7634   30.7927 C   0  0  2  0  0  0  0  0  0  0  0  0
    9.2028    6.8100   30.4421 O   0  0  0  0  0  0  0  0  0  0  0  0
   10.7823    8.9035   33.2654 C   0  0  1  0  0  0  0  0  0  0  0  0
   10.7799    8.0094   34.3763 O   0  0  0  0  0  0  0  0  0  0  0  0
    1.9961    3.8030   29.7856 C   0  0  2  0  0  0  0  0  0  0  0  0
    2.7566    3.0558   30.7301 O   0  0  0  0  0  0  0  0  0  0  0  0
    3.7742    6.6275   26.2726 C   0  0  2  0  0  0  0  0  0  0  0  0
    7.2416    5.3396   30.6288 C   0  0  2  0  0  0  0  0  0  0  0  0
    6.8219    5.2332   29.2546 O   0  0  0  0  0  0  0  0  0  0  0  0
   12.2226    8.9379   32.6701 C   0  0  2  0  0  0  0  0  0  0  0  0
   12.3225   10.0565   31.7872 O   0  0  0  0  0  0  0  0  0  0  0  0
    2.0503    3.1306   28.3845 C   0  0  2  0  0  0  0  0  0  0  0  0
    1.3590    3.9796   27.4195 O   0  0  0  0  0  0  0  0  0  0  0  0
    5.3050    6.5961   26.6272 C   0  0  2  0  0  0  0  0  0  0  0  0
    5.4382    6.7370   28.0655 O   0  0  0  0  0  0  0  0  0  0  0  0
    6.0600    5.0379   31.5676 C   0  0  0  0  0  0  0  0  0  0  0  0
    6.2280    5.6871   32.8158 O   0  0  0  0  0  0  0  0  0  0  0  0
   12.5365    7.6161   31.9028 C   0  0  1  0  0  0  0  0  0  0  0  0
   11.4736    7.3442   30.9390 O   0  0  0  0  0  0  0  0  0  0  0  0
    1.3836    1.7390   28.3065 C   0  0  0  0  0  0  0  0  0  0  0  0
   -0.0230    1.8329   28.4545 O   0  0  0  0  0  0  0  0  0  0  0  0
    6.1115    7.7442   25.9446 C   0  0  1  0  0  0  0  0  0  0  0  0
    7.5022    7.5339   26.1844 O   0  0  0  0  0  0  0  0  0  0  0  0
   13.8947    7.6657   31.1570 C   0  0  0  0  0  0  0  0  0  0  0  0
   14.1841    6.4162   30.4304 N   0  0  0  0  0  0  0  0  0  0  0  0
  1  2  1  1  0  0  0
  1  7  1  0  0  0  0
  1 30  1  0  0  0  0
  3  4  1  1  0  0  0
  3  9  1  0  0  0  0
  3 39  1  0  0  0  0
  5 10  1  0  0  0  0
  5 26  1  0  0  0  0
  5 32  1  1  0  0  0
  6 12  1  0  0  0  0
  6 36  1  0  0  0  0
  6 19  1  6  0  0  0
  7  8  1  6  0  0  0
  7 14  1  0  0  0  0
  9 16  1  0  0  0  0
 10 11  1  6  0  0  0
 10 18  1  0  0  0  0
 12 13  1  6  0  0  0
 12 20  1  0  0  0  0
 14 15  1  1  0  0  0
 14 22  1  0  0  0  0
 16 17  1  1  0  0  0
 16 24  1  0  0  0  0
 18 19  1  6  0  0  0
 18 25  1  0  0  0  0
 20 21  1  1  0  0  0
 20 27  1  0  0  0  0
 22 23  1  1  0  0  0
 22 29  1  0  0  0  0
 24  2  1  6  0  0  0
 24 31  1  0  0  0  0
 25 26  1  0  0  0  0
 25 33  1  1  0  0  0
 27 28  1  6  0  0  0
 27 35  1  0  0  0  0
 29 30  1  0  0  0  0
 29 37  1  1  0  0  0
 31 32  1  1  0  0  0
 31 39  1  0  0  0  0
 33 34  1  0  0  0  0
 35 36  1  0  0  0  0
 35 41  1  6  0  0  0
 37 38  1  0  0  0  0
 39 40  1  6  0  0  0
 41 42  1  0  0  0  0
M  END
>  <CHROM.1>
-63.36223937,-97.09985199,76.07200790,158.05016015,-164.73186608,165.98326304
-46.00758732,149.37318151,130.92193852,-50.18650473,60.05476820,66.72946549
-35.34145297,64.64278283,68.50570785,171.14179744,141.87148965,75.17537808
-179.81220161,-61.50255463,-65.47529257,-46.91520429,6.34922412,6.54114859
29.18537875,-2.87975579,0.46444660,1.97981177

>  <Name>
1fyp_lig

>  <RI>
0

>  <Rbt.Current_Directory>
/home/itssahil/PROJECTS/Mol_Feturizer/New_Systems/rnas/1fyp

>  <Rbt.Executable>
rbdock ($Id: //depot/dev/client3/rdock/2013.1/src/exe/rbdock.cxx#4 $)

>  <Rbt.Library>
libRbt.so (2013.1, Build901 2013/11/27)

>  <Rbt.Parameter_File>
/export/apps/rDock/src/rDock_2013.1_src/data/scripts/dock_solv.prm

>  <Rbt.Receptor>
prm/pocket_docking_6.prm

>  <SCORE>
-34.0796

>  <SCORE.INTER>
-23.5139

>  <SCORE.INTER.CONST>
1

>  <SCORE.INTER.POLAR>
-3.85586

>  <SCORE.INTER.ROT>
14

>  <SCORE.INTER.SOLV>
10.0868

>  <SCORE.INTER.VDW>
-19.1186

>  <SCORE.INTER.norm>
-0.559854

>  <SCORE.INTRA>
-10.5657

>  <SCORE.INTRA.DIHEDRAL>
-22.0012

>  <SCORE.INTRA.DIHEDRAL.0>
48.7173

>  <SCORE.INTRA.POLAR>
-0.593678

>  <SCORE.INTRA.POLAR.0>
-1.54691

>  <SCORE.INTRA.REPUL>
0.0401288

>  <SCORE.INTRA.REPUL.0>
0

>  <SCORE.INTRA.SOLV>
-0.212704

>  <SCORE.INTRA.SOLV.lig_0>
-64.052

>  <SCORE.INTRA.VDW>
2.3591

>  <SCORE.INTRA.VDW.0>
-7.0667

>  <SCORE.INTRA.norm>
-0.251565

>  <SCORE.RESTR>
0

>  <SCORE.RESTR.CAVITY>
0

>  <SCORE.RESTR.norm>
0

>  <SCORE.SYSTEM>
0

>  <SCORE.SYSTEM.CONST>
0

>  <SCORE.SYSTEM.DIHEDRAL>
0

>  <SCORE.SYSTEM.SOLV>
0

>  <SCORE.SYSTEM.norm>
0

>  <SCORE.heavy>
42

>  <SCORE.norm>
-0.811419

>  <RMSD>
10.143

$$$$
1fyp_lig
 OpenBabel11021811393D
libRbt.so/2013.1/901 2013/11/27
 42 45  0  0  0  0  0  0  0  0999 V2000
    2.8206    4.2994   28.9143 C   0  0  2  0  0  0  0  0  0  0  0  0
    3.1885    4.6319   27.5445 O   0  0  0  0  0  0  0  0  0  0  0  0
    3.8996    7.8915   24.8780 C   0  0  2  0  0  0  0  0  0  0  0  0
    4.1717    9.1973   24.2493 N   0  0  0  0  0  0  0  0  0  0  0  0
    6.3329    6.5602   28.2653 C   0  0  1  0  0  0  0  0  0  0  0  0
    8.0769    9.0992   31.0915 C   0  0  1  0  0  0  0  0  0  0  0  0
    3.2533    2.8444   29.2860 C   0  0  2  0  0  0  0  0  0  0  0  0
    4.6752    2.6074   28.9579 N   0  0  0  0  0  0  0  0  0  0  0  0
    2.7034    8.0254   25.8413 C   0  0  0  0  0  0  0  0  0  0  0  0
    7.4107    5.9086   29.1355 C   0  0  2  0  0  0  0  0  0  0  0  0
    6.7949    5.2403   30.2372 O   0  0  0  0  0  0  0  0  0  0  0  0
    9.5612    9.0614   31.5675 C   0  0  2  0  0  0  0  0  0  0  0  0
    9.8151    7.9913   32.5627 N   0  0  0  0  0  0  0  0  0  0  0  0
    2.3493    1.7947   28.5670 C   0  0  1  0  0  0  0  0  0  0  0  0
    2.6505    0.4829   29.0364 O   0  0  0  0  0  0  0  0  0  0  0  0
    2.3423    6.6763   26.5211 C   0  0  2  0  0  0  0  0  0  0  0  0
    1.2447    6.9320   27.4769 N   0  0  0  0  0  0  0  0  0  0  0  0
    8.2149    7.1251   29.6023 C   0  0  2  0  0  0  0  0  0  0  0  0
    7.5971    7.7728   30.7492 O   0  0  0  0  0  0  0  0  0  0  0  0
   10.0073   10.4553   32.1070 C   0  0  1  0  0  0  0  0  0  0  0  0
   10.1705   11.3391   30.9998 O   0  0  0  0  0  0  0  0  0  0  0  0
    0.8437    2.0701   28.8068 C   0  0  2  0  0  0  0  0  0  0  0  0
    0.0746    1.1387   28.0521 O   0  0  0  0  0  0  0  0  0  0  0  0
    3.5723    6.0006   27.2271 C   0  0  2  0  0  0  0  0  0  0  0  0
    8.1587    8.0398   28.3708 C   0  0  2  0  0  0  0  0  0  0  0  0
    6.8919    7.7740   27.7379 O   0  0  0  0  0  0  0  0  0  0  0  0
    9.0000   11.1038   33.1043 C   0  0  2  0  0  0  0  0  0  0  0  0
    9.0792   10.4057   34.3481 O   0  0  0  0  0  0  0  0  0  0  0  0
    0.4899    3.5288   28.4002 C   0  0  2  0  0  0  0  0  0  0  0  0
    1.3739    4.4501   29.1070 O   0  0  0  0  0  0  0  0  0  0  0  0
    4.8609    5.9841   26.3274 C   0  0  2  0  0  0  0  0  0  0  0  0
    5.9965    5.6605   27.1712 O   0  0  0  0  0  0  0  0  0  0  0  0
    9.3086    7.7877   27.3794 C   0  0  0  0  0  0  0  0  0  0  0  0
    9.1991    8.6389   26.2519 O   0  0  0  0  0  0  0  0  0  0  0  0
    7.5458   11.0406   32.5425 C   0  0  1  0  0  0  0  0  0  0  0  0
    7.2318    9.6702   32.1475 O   0  0  0  0  0  0  0  0  0  0  0  0
   -0.9559    3.9618   28.7308 C   0  0  0  0  0  0  0  0  0  0  0  0
   -1.9035    3.1230   28.0921 O   0  0  0  0  0  0  0  0  0  0  0  0
    5.1379    7.3550   25.6357 C   0  0  1  0  0  0  0  0  0  0  0  0
    6.2167    7.1954   24.7156 O   0  0  0  0  0  0  0  0  0  0  0  0
    6.4877   11.5268   33.5659 C   0  0  0  0  0  0  0  0  0  0  0  0
    6.7046   12.9252   33.9788 N   0  0  0  0  0  0  0  0  0  0  0  0
  1  2  1  6  0  0  0
  1  7  1  0  0  0  0
  1 30  1  0  0  0  0
  3  4  1  1  0  0  0
  3  9  1  0  0  0  0
  3 39  1  0  0  0  0
  5 10  1  0  0  0  0
  5 26  1  0  0  0  0
  5 32  1  6  0  0  0
  6 12  1  0  0  0  0
  6 36  1  0  0  0  0
  6 19  1  1  0  0  0
  7  8  1  6  0  0  0
  7 14  1  0  0  0  0
  9 16  1  0  0  0  0
 10 11  1  1  0  0  0
 10 18  1  0  0  0  0
 12 13  1  1  0  0  0
 12 20  1  0  0  0  0
 14 15  1  1  0  0  0
 14 22  1  0  0  0  0
 16 17  1  1  0  0  0
 16 24  1  0  0  0  0
 18 19  1  1  0  0  0
 18 25  1  0  0  0  0
 20 21  1  6  0  0  0
 20 27  1  0  0  0  0
 22 23  1  6  0  0  0
 22 29  1  0  0  0  0
 24  2  1  6  0  0  0
 24 31  1  0  0  0  0
 25 26  1  0  0  0  0
 25 33  1  6  0  0  0
 27 28  1  1  0  0  0
 27 35  1  0  0  0  0
 29 30  1  0  0  0  0
 29 37  1  1  0  0  0
 31 32  1  1  0  0  0
 31 39  1  0  0  0  0
 33 34  1  0  0  0  0
 35 36  1  0  0  0  0
 35 41  1  1  0  0  0
 37 38  1  0  0  0  0
 39 40  1  6  0  0  0
 41 42  1  0  0  0  0
M  END
>  <CHROM.1>
-146.19625519,-102.40431367,70.61780549,157.48934224,-52.45079929,60.00335635
164.90853364,-58.59958928,-166.04197795,-65.88438451,177.18812354,-62.40691425
178.99351255,-47.10667496,-58.83017283,-61.59974397,171.23093616,48.99921457
60.18902124,172.04497494,-62.82947556,-61.13715372,5.29583745,6.78102247
29.03801345,2.80109036,-0.75365598,-1.51997192

>  <Name>
1fyp_lig

>  <RI>
0

>  <Rbt.Current_Directory>
/home/itssahil/PROJECTS/Mol_Feturizer/New_Systems/rnas/1fyp

>  <Rbt.Executable>
rbdock ($Id: //depot/dev/client3/rdock/2013.1/src/exe/rbdock.cxx#4 $)

>  <Rbt.Library>
libRbt.so (2013.1, Build901 2013/11/27)

>  <Rbt.Parameter_File>
/export/apps/rDock/src/rDock_2013.1_src/data/scripts/dock_solv.prm

>  <Rbt.Receptor>
prm/pocket_docking_6.prm

>  <SCORE>
-49.4677

>  <SCORE.INTER>
-40.0146

>  <SCORE.INTER.CONST>
1

>  <SCORE.INTER.POLAR>
-5.42148

>  <SCORE.INTER.ROT>
14

>  <SCORE.INTER.SOLV>
11.5612

>  <SCORE.INTER.VDW>
-25.3919

>  <SCORE.INTER.norm>
-0.952728

>  <SCORE.INTRA>
-10.4738

>  <SCORE.INTRA.DIHEDRAL>
-32.4499

>  <SCORE.INTRA.DIHEDRAL.0>
48.7173

>  <SCORE.INTRA.POLAR>
0.896205

>  <SCORE.INTRA.POLAR.0>
-1.54691

>  <SCORE.INTRA.REPUL>
0.000726925

>  <SCORE.INTRA.REPUL.0>
0

>  <SCORE.INTRA.SOLV>
-1.63274

>  <SCORE.INTRA.SOLV.lig_0>
-64.052

>  <SCORE.INTRA.VDW>
3.51678

>  <SCORE.INTRA.VDW.0>
-7.0667

>  <SCORE.INTRA.norm>
-0.249376

>  <SCORE.RESTR>
1.02066

>  <SCORE.RESTR.CAVITY>
1.02066

>  <SCORE.RESTR.norm>
0.0243014

>  <SCORE.SYSTEM>
0

>  <SCORE.SYSTEM.CONST>
0

>  <SCORE.SYSTEM.DIHEDRAL>
0

>  <SCORE.SYSTEM.SOLV>
0

>  <SCORE.SYSTEM.norm>
0

>  <SCORE.heavy>
42

>  <SCORE.norm>
-1.1778

>  <RMSD>
10.153

$$$$
1fyp_lig
 OpenBabel11021811393D
libRbt.so/2013.1/901 2013/11/27
 42 45  0  0  0  0  0  0  0  0999 V2000
   -2.4917   -0.9576   26.6670 C   0  0  2  0  0  0  0  0  0  0  0  0
   -1.3162   -1.2125   27.4889 O   0  0  0  0  0  0  0  0  0  0  0  0
   -1.9758    2.2140   29.9515 C   0  0  2  0  0  0  0  0  0  0  0  0
   -2.0054    3.2251   31.0246 N   0  0  0  0  0  0  0  0  0  0  0  0
    1.7404    2.0030   27.7464 C   0  0  1  0  0  0  0  0  0  0  0  0
    4.5415    5.0324   26.8103 C   0  0  1  0  0  0  0  0  0  0  0  0
   -2.7465   -2.1215   25.6558 C   0  0  2  0  0  0  0  0  0  0  0  0
   -2.7472   -3.4334   26.3373 N   0  0  0  0  0  0  0  0  0  0  0  0
   -2.4174    0.8504   30.5193 C   0  0  0  0  0  0  0  0  0  0  0  0
    3.1827    1.5439   27.5167 C   0  0  2  0  0  0  0  0  0  0  0  0
    3.8568    1.4429   28.7716 O   0  0  0  0  0  0  0  0  0  0  0  0
    5.2569    6.0321   27.7694 C   0  0  2  0  0  0  0  0  0  0  0  0
    4.5457    6.1931   29.0612 N   0  0  0  0  0  0  0  0  0  0  0  0
   -1.6851   -2.1063   24.5115 C   0  0  1  0  0  0  0  0  0  0  0  0
   -2.0217   -3.0692   23.5159 O   0  0  0  0  0  0  0  0  0  0  0  0
   -2.4361   -0.2602   29.4336 C   0  0  2  0  0  0  0  0  0  0  0  0
   -2.7914   -1.5326   30.0955 N   0  0  0  0  0  0  0  0  0  0  0  0
    3.7464    2.6909   26.6734 C   0  0  2  0  0  0  0  0  0  0  0  0
    4.1719    3.8100   27.4999 O   0  0  0  0  0  0  0  0  0  0  0  0
    5.4821    7.4083   27.0705 C   0  0  1  0  0  0  0  0  0  0  0  0
    6.5265    7.2637   26.1104 O   0  0  0  0  0  0  0  0  0  0  0  0
   -1.5846   -0.7150   23.8372 C   0  0  2  0  0  0  0  0  0  0  0  0
   -0.5390   -0.7413   22.8703 O   0  0  0  0  0  0  0  0  0  0  0  0
   -1.0751   -0.3774   28.6576 C   0  0  2  0  0  0  0  0  0  0  0  0
    2.5362    3.0837   25.8145 C   0  0  2  0  0  0  0  0  0  0  0  0
    1.3741    2.8235   26.6255 O   0  0  0  0  0  0  0  0  0  0  0  0
    4.2222    7.9650   26.3406 C   0  0  2  0  0  0  0  0  0  0  0  0
    3.2928    8.4227   27.3240 O   0  0  0  0  0  0  0  0  0  0  0  0
   -1.3162    0.3842   24.9039 C   0  0  2  0  0  0  0  0  0  0  0  0
   -2.3427    0.3074   25.9385 O   0  0  0  0  0  0  0  0  0  0  0  0
   -0.5131    1.0154   28.1946 C   0  0  2  0  0  0  0  0  0  0  0  0
    0.8726    0.8353   27.8024 O   0  0  0  0  0  0  0  0  0  0  0  0
    2.4498    2.2930   24.4970 C   0  0  0  0  0  0  0  0  0  0  0  0
    3.7224    2.1962   23.8815 O   0  0  0  0  0  0  0  0  0  0  0  0
    3.5663    6.8643   25.4502 C   0  0  1  0  0  0  0  0  0  0  0  0
    3.3407    5.6604   26.2453 O   0  0  0  0  0  0  0  0  0  0  0  0
   -1.3401    1.8316   24.3640 C   0  0  0  0  0  0  0  0  0  0  0  0
   -2.6373    2.3952   24.4586 O   0  0  0  0  0  0  0  0  0  0  0  0
   -0.5690    2.0979   29.3169 C   0  0  1  0  0  0  0  0  0  0  0  0
   -0.2022    3.3583   28.7579 O   0  0  0  0  0  0  0  0  0  0  0  0
    2.2206    7.3202   24.8301 C   0  0  0  0  0  0  0  0  0  0  0  0
    2.2480    8.7296   24.3990 N   0  0  0  0  0  0  0  0  0  0  0  0
  1  2  1  6  0  0  0
  1  7  1  0  0  0  0
  1 30  1  0  0  0  0
  3  4  1  1  0  0  0
  3  9  1  0  0  0  0
  3 39  1  0  0  0  0
  5 10  1  0  0  0  0
  5 26  1  0  0  0  0
  5 32  1  6  0  0  0
  6 12  1  0  0  0  0
  6 36  1  0  0  0  0
  6 19  1  1  0  0  0
  7  8  1  1  0  0  0
  7 14  1  0  0  0  0
  9 16  1  0  0  0  0
 10 11  1  1  0  0  0
 10 18  1  0  0  0  0
 12 13  1  1  0  0  0
 12 20  1  0  0  0  0
 14 15  1  6  0  0  0
 14 22  1  0  0  0  0
 16 17  1  1  0  0  0
 16 24  1  0  0  0  0
 18 19  1  1  0  0  0
 18 25  1  0  0  0  0
 20 21  1  6  0  0  0
 20 27  1  0  0  0  0
 22 23  1  6  0  0  0
 22 29  1  0  0  0  0
 24  2  1  6  0  0  0
 24 31  1  0  0  0  0
 25 26  1  0  0  0  0
 25 33  1  6  0  0  0
 27 28  1  1  0  0  0
 27 35  1  0  0  0  0
 29 30  1  0  0  0  0
 29 37  1  6  0  0  0
 31 32  1  1  0  0  0
 31 39  1  0  0  0  0
 33 34  1  0  0  0  0
 35 36  1  0  0  0  0
 35 41  1  1  0  0  0
 37 38  1  0  0  0  0
 39 40  1  6  0  0  0
 41 42  1  0  0  0  0
M  END
>  <CHROM.1>
-167.92013227,46.27231059,-151.40359363,94.26488308,-72.02787735,-24.68523651
178.67398900,-175.50730365,-171.24606246,-167.87959828,-167.37759345,-70.19403937
-43.63565652,43.79856609,91.10908290,-160.49675798,171.67860062,64.17253105
38.98334855,-59.14545403,128.70271803,-167.45418228,0.87157943,2.41182436
26.75867267,-2.90460692,0.85498674,1.26102656

>  <Name>
1fyp_lig

>  <RI>
0

>  <Rbt.Current_Directory>
/home/itssahil/PROJECTS/Mol_Feturizer/New_Systems/rnas/1fyp

>  <Rbt.Executable>
rbdock ($Id: //depot/dev/client3/rdock/2013.1/src/exe/rbdock.cxx#4 $)

>  <Rbt.Library>
libRbt.so (2013.1, Build901 2013/11/27)

>  <Rbt.Parameter_File>
/export/apps/rDock/src/rDock_2013.1_src/data/scripts/dock_solv.prm

>  <Rbt.Receptor>
prm/blind_docking_40.prm

>  <SCORE>
-1.30363

>  <SCORE.INTER>
0.734169

>  <SCORE.INTER.CONST>
1

>  <SCORE.INTER.POLAR>
-4.84402

>  <SCORE.INTER.ROT>
14

>  <SCORE.INTER.SOLV>
24.0144

>  <SCORE.INTER.VDW>
-4.30195

>  <SCORE.INTER.norm>
0.0174802

>  <SCORE.INTRA>
-2.07172

>  <SCORE.INTRA.DIHEDRAL>
-24.1586

>  <SCORE.INTRA.DIHEDRAL.0>
48.7173

>  <SCORE.INTRA.POLAR>
1.23398

>  <SCORE.INTRA.POLAR.0>
-1.54691

>  <SCORE.INTRA.REPUL>
0

>  <SCORE.INTRA.REPUL.0>
0

>  <SCORE.INTRA.SOLV>
-2.22504

>  <SCORE.INTRA.SOLV.lig_0>
-64.052

>  <SCORE.INTRA.VDW>
6.92459

>  <SCORE.INTRA.VDW.0>
-7.0667

>  <SCORE.INTRA.norm>
-0.0493266

>  <SCORE.RESTR>
0.0339195

>  <SCORE.RESTR.CAVITY>
0.0339195

>  <SCORE.RESTR.norm>
0.000807606

>  <SCORE.SYSTEM>
0

>  <SCORE.SYSTEM.CONST>
0

>  <SCORE.SYSTEM.DIHEDRAL>
0

>  <SCORE.SYSTEM.SOLV>
0

>  <SCORE.SYSTEM.norm>
0

>  <SCORE.heavy>
42

>  <SCORE.norm>
-0.0310388

>  <RMSD>
10.177

$$$$
1fyp_lig
 OpenBabel11021811393D
libRbt.so/2013.1/901 2013/11/27
 42 45  0  0  0  0  0  0  0  0999 V2000
   -0.1252    0.1264   26.5070 C   0  0  2  0  0  0  0  0  0  0  0  0
   -1.2775    0.7021   27.1876 O   0  0  0  0  0  0  0  0  0  0  0  0
   -3.5323    0.7872   30.8138 C   0  0  2  0  0  0  0  0  0  0  0  0
   -4.1111    0.5489   32.1489 N   0  0  0  0  0  0  0  0  0  0  0  0
    0.6292    2.7118   28.7235 C   0  0  1  0  0  0  0  0  0  0  0  0
    2.3087    6.3325   26.7504 C   0  0  1  0  0  0  0  0  0  0  0  0
    0.2880    0.9762   25.2624 C   0  0  2  0  0  0  0  0  0  0  0  0
    0.4334    2.4051   25.6130 N   0  0  0  0  0  0  0  0  0  0  0  0
   -3.5735   -0.5192   29.9962 C   0  0  0  0  0  0  0  0  0  0  0  0
    0.2408    4.1640   29.0134 C   0  0  2  0  0  0  0  0  0  0  0  0
   -0.8588    4.5387   28.1827 O   0  0  0  0  0  0  0  0  0  0  0  0
    2.2238    6.5131   25.2040 C   0  0  2  0  0  0  0  0  0  0  0  0
    2.4988    5.2562   24.4659 N   0  0  0  0  0  0  0  0  0  0  0  0
   -0.7445    0.8052   24.1045 C   0  0  1  0  0  0  0  0  0  0  0  0
   -0.2746    1.4558   22.9266 O   0  0  0  0  0  0  0  0  0  0  0  0
   -3.0023   -0.3344   28.5637 C   0  0  2  0  0  0  0  0  0  0  0  0
   -3.0134   -1.6544   27.8996 N   0  0  0  0  0  0  0  0  0  0  0  0
    1.5161    4.9143   28.6197 C   0  0  2  0  0  0  0  0  0  0  0  0
    1.5797    5.1556   27.1864 O   0  0  0  0  0  0  0  0  0  0  0  0
    3.1586    7.6671   24.7272 C   0  0  1  0  0  0  0  0  0  0  0  0
    2.5754    8.9108   25.1102 O   0  0  0  0  0  0  0  0  0  0  0  0
   -0.9987   -0.6872   23.7749 C   0  0  2  0  0  0  0  0  0  0  0  0
   -2.0141   -0.7773   22.7801 O   0  0  0  0  0  0  0  0  0  0  0  0
   -1.5646    0.2991   28.5575 C   0  0  2  0  0  0  0  0  0  0  0  0
    2.6137    3.9316   29.0508 C   0  0  2  0  0  0  0  0  0  0  0  0
    2.0534    2.6147   28.8848 O   0  0  0  0  0  0  0  0  0  0  0  0
    4.6004    7.6026   25.3162 C   0  0  2  0  0  0  0  0  0  0  0  0
    5.3049    6.5368   24.6771 O   0  0  0  0  0  0  0  0  0  0  0  0
   -1.4187   -1.4598   25.0574 C   0  0  2  0  0  0  0  0  0  0  0  0
   -0.4112   -1.2518   26.0926 O   0  0  0  0  0  0  0  0  0  0  0  0
   -1.4426    1.5482   29.5035 C   0  0  2  0  0  0  0  0  0  0  0  0
   -0.0327    1.8412   29.6846 O   0  0  0  0  0  0  0  0  0  0  0  0
    3.0661    4.1342   30.5079 C   0  0  0  0  0  0  0  0  0  0  0  0
    4.3764    3.6320   30.7044 O   0  0  0  0  0  0  0  0  0  0  0  0
    4.5589    7.3724   26.8588 C   0  0  1  0  0  0  0  0  0  0  0  0
    3.7140    6.2201   27.1601 O   0  0  0  0  0  0  0  0  0  0  0  0
   -1.5589   -2.9879   24.8775 C   0  0  0  0  0  0  0  0  0  0  0  0
   -2.4165   -3.3022   23.7934 O   0  0  0  0  0  0  0  0  0  0  0  0
   -2.0795    1.3124   30.9082 C   0  0  1  0  0  0  0  0  0  0  0  0
   -2.0731    2.5444   31.6279 O   0  0  0  0  0  0  0  0  0  0  0  0
    5.9659    7.1406   27.4670 C   0  0  0  0  0  0  0  0  0  0  0  0
    6.5945    8.3926   27.9255 N   0  0  0  0  0  0  0  0  0  0  0  0
  1  2  1  6  0  0  0
  1  7  1  0  0  0  0
  1 30  1  0  0  0  0
  3  4  1  1  0  0  0
  3  9  1  0  0  0  0
  3 39  1  0  0  0  0
  5 10  1  0  0  0  0
  5 26  1  0  0  0  0
  5 32  1  1  0  0  0
  6 12  1  0  0  0  0
  6 36  1  0  0  0  0
  6 19  1  6  0  0  0
  7  8  1  1  0  0  0
  7 14  1  0  0  0  0
  9 16  1  0  0  0  0
 10 11  1  6  0  0  0
 10 18  1  0  0  0  0
 12 13  1  6  0  0  0
 12 20  1  0  0  0  0
 14 15  1  6  0  0  0
 14 22  1  0  0  0  0
 16 17  1  1  0  0  0
 16 24  1  0  0  0  0
 18 19  1  6  0  0  0
 18 25  1  0  0  0  0
 20 21  1  1  0  0  0
 20 27  1  0  0  0  0
 22 23  1  6  0  0  0
 22 29  1  0  0  0  0
 24  2  1  6  0  0  0
 24 31  1  0  0  0  0
 25 26  1  0  0  0  0
 25 33  1  1  0  0  0
 27 28  1  6  0  0  0
 27 35  1  0  0  0  0
 29 30  1  0  0  0  0
 29 37  1  6  0  0  0
 31 32  1  1  0  0  0
 31 39  1  0  0  0  0
 33 34  1  0  0  0  0
 35 36  1  0  0  0  0
 35 41  1  6  0  0  0
 37 38  1  0  0  0  0
 39 40  1  1  0  0  0
 41 42  1  0  0  0  0
M  END
>  <CHROM.1>
-162.05409661,-120.40468317,-170.26164002,60.46775514,114.62105976,169.63760313
55.99096807,-36.43652200,151.10941759,-176.60575536,60.91125253,-169.94593319
-156.35075062,175.72847505,-52.93355120,87.51716805,76.88237623,-67.72963368
91.57531704,-177.83818116,-178.81001580,179.78605210,0.58123882,2.76373040
27.22294481,-2.95605820,0.86410181,1.26327774

>  <Name>
1fyp_lig

>  <RI>
0

>  <Rbt.Current_Directory>
/home/itssahil/PROJECTS/Mol_Feturizer/New_Systems/rnas/1fyp

>  <Rbt.Executable>
rbdock ($Id: //depot/dev/client3/rdock/2013.1/src/exe/rbdock.cxx#4 $)

>  <Rbt.Library>
libRbt.so (2013.1, Build901 2013/11/27)

>  <Rbt.Parameter_File>
/export/apps/rDock/src/rDock_2013.1_src/data/scripts/dock_solv.prm

>  <Rbt.Receptor>
prm/blind_docking_80.prm

>  <SCORE>
-37.6038

>  <SCORE.INTER>
-31.0571

>  <SCORE.INTER.CONST>
1

>  <SCORE.INTER.POLAR>
-3.78665

>  <SCORE.INTER.ROT>
14

>  <SCORE.INTER.SOLV>
18.364

>  <SCORE.INTER.VDW>
-27.1372

>  <SCORE.INTER.norm>
-0.739455

>  <SCORE.INTRA>
-7.17679

>  <SCORE.INTRA.DIHEDRAL>
-18.2491

>  <SCORE.INTRA.DIHEDRAL.0>
48.7173

>  <SCORE.INTRA.POLAR>
0.450223

>  <SCORE.INTRA.POLAR.0>
-1.54691

>  <SCORE.INTRA.REPUL>
0.0313243

>  <SCORE.INTRA.REPUL.0>
0

>  <SCORE.INTRA.SOLV>
-1.64381

>  <SCORE.INTRA.SOLV.lig_0>
-64.052

>  <SCORE.INTRA.VDW>
1.08229

>  <SCORE.INTRA.VDW.0>
-7.0667

>  <SCORE.INTRA.norm>
-0.170876

>  <SCORE.RESTR>
0.630144

>  <SCORE.RESTR.CAVITY>
0.630144

>  <SCORE.RESTR.norm>
0.0150034

>  <SCORE.SYSTEM>
0

>  <SCORE.SYSTEM.CONST>
0

>  <SCORE.SYSTEM.DIHEDRAL>
0

>  <SCORE.SYSTEM.SOLV>
0

>  <SCORE.SYSTEM.norm>
0

>  <SCORE.heavy>
42

>  <SCORE.norm>
-0.895328

>  <RMSD>
10.227

$$$$
1fyp_lig
 OpenBabel11021811393D
libRbt.so/2013.1/901 2013/11/27
 42 45  0  0  0  0  0  0  0  0999 V2000
    5.0189    4.5446   28.2853 C   0  0  2  0  0  0  0  0  0  0  0  0
    4.0882    5.2318   27.3999 O   0  0  0  0  0  0  0  0  0  0  0  0
    6.3176    7.7917   24.8081 C   0  0  2  0  0  0  0  0  0  0  0  0
    6.8650    8.9139   24.0237 N   0  0  0  0  0  0  0  0  0  0  0  0
    7.3811    7.1431   29.2123 C   0  0  1  0  0  0  0  0  0  0  0  0
   10.7500    6.6144   31.6924 C   0  0  1  0  0  0  0  0  0  0  0  0
    4.8488    2.9934   28.2021 C   0  0  2  0  0  0  0  0  0  0  0  0
    4.8767    2.5253   26.8000 N   0  0  0  0  0  0  0  0  0  0  0  0
    4.8071    7.6596   24.5293 C   0  0  0  0  0  0  0  0  0  0  0  0
    7.2587    7.7032   30.6318 C   0  0  2  0  0  0  0  0  0  0  0  0
    7.5947    9.0912   30.6277 O   0  0  0  0  0  0  0  0  0  0  0  0
   10.6652    6.3769   33.2311 C   0  0  2  0  0  0  0  0  0  0  0  0
   10.3945    7.6237   33.9877 N   0  0  0  0  0  0  0  0  0  0  0  0
    3.5269    2.5408   28.8978 C   0  0  1  0  0  0  0  0  0  0  0  0
    3.4633    1.1180   28.9543 O   0  0  0  0  0  0  0  0  0  0  0  0
    4.1676    6.4754   25.3047 C   0  0  2  0  0  0  0  0  0  0  0  0
    2.7153    6.4889   25.0318 N   0  0  0  0  0  0  0  0  0  0  0  0
    8.3068    6.8797   31.3853 C   0  0  2  0  0  0  0  0  0  0  0  0
    9.6443    7.4279   31.2209 O   0  0  0  0  0  0  0  0  0  0  0  0
   11.9495    5.6632   33.7547 C   0  0  1  0  0  0  0  0  0  0  0  0
   11.9139    4.3006   33.3357 O   0  0  0  0  0  0  0  0  0  0  0  0
    3.4151    3.0966   30.3397 C   0  0  2  0  0  0  0  0  0  0  0  0
    2.1514    2.7277   30.8835 O   0  0  0  0  0  0  0  0  0  0  0  0
    4.4621    6.5263   26.8470 C   0  0  2  0  0  0  0  0  0  0  0  0
    8.1961    5.5116   30.6979 C   0  0  2  0  0  0  0  0  0  0  0  0
    7.8303    5.7838   29.3312 O   0  0  0  0  0  0  0  0  0  0  0  0
   13.2808    6.2951   33.2465 C   0  0  2  0  0  0  0  0  0  0  0  0
   13.4843    7.5343   33.9273 O   0  0  0  0  0  0  0  0  0  0  0  0
    3.5796    4.6429   30.3369 C   0  0  2  0  0  0  0  0  0  0  0  0
    4.8309    4.9896   29.6709 O   0  0  0  0  0  0  0  0  0  0  0  0
    5.9727    6.8139   27.1720 C   0  0  2  0  0  0  0  0  0  0  0  0
    6.0723    7.1721   28.5750 O   0  0  0  0  0  0  0  0  0  0  0  0
    7.1506    4.5909   31.3521 C   0  0  0  0  0  0  0  0  0  0  0  0
    7.0568    3.3595   30.6574 O   0  0  0  0  0  0  0  0  0  0  0  0
   13.2298    6.5293   31.7048 C   0  0  1  0  0  0  0  0  0  0  0  0
   12.0202    7.2719   31.3613 O   0  0  0  0  0  0  0  0  0  0  0  0
    3.6296    5.2924   31.7379 C   0  0  0  0  0  0  0  0  0  0  0  0
    2.4618    4.9962   32.4848 O   0  0  0  0  0  0  0  0  0  0  0  0
    6.5662    7.9814   26.3239 C   0  0  1  0  0  0  0  0  0  0  0  0
    7.9710    8.0541   26.5623 O   0  0  0  0  0  0  0  0  0  0  0  0
   14.4651    7.3024   31.1761 C   0  0  0  0  0  0  0  0  0  0  0  0
   14.5039    8.6964   31.6540 N   0  0  0  0  0  0  0  0  0  0  0  0
  1  2  1  6  0  0  0
  1  7  1  0  0  0  0
  1 30  1  0  0  0  0
  3  4  1  6  0  0  0
  3  9  1  0  0  0  0
  3 39  1  0  0  0  0
  5 10  1  0  0  0  0
  5 26  1  0  0  0  0
  5 32  1  1  0  0  0
  6 12  1  0  0  0  0
  6 36  1  0  0  0  0
  6 19  1  1  0  0  0
  7  8  1  6  0  0  0
  7 14  1  0  0  0  0
  9 16  1  0  0  0  0
 10 11  1  6  0  0  0
 10 18  1  0  0  0  0
 12 13  1  1  0  0  0
 12 20  1  0  0  0  0
 14 15  1  1  0  0  0
 14 22  1  0  0  0  0
 16 17  1  1  0  0  0
 16 24  1  0  0  0  0
 18 19  1  6  0  0  0
 18 25  1  0  0  0  0
 20 21  1  6  0  0  0
 20 27  1  0  0  0  0
 22 23  1  6  0  0  0
 22 29  1  0  0  0  0
 24  2  1  6  0  0  0
 24 31  1  0  0  0  0
 25 26  1  0  0  0  0
 25 33  1  1  0  0  0
 27 28  1  1  0  0  0
 27 35  1  0  0  0  0
 29 30  1  0  0  0  0
 29 37  1  1  0  0  0
 31 32  1  1  0  0  0
 31 39  1  0  0  0  0
 33 34  1  0  0  0  0
 35 36  1  0  0  0  0
 35 41  1  1  0  0  0
 37 38  1  0  0  0  0
 39 40  1  6  0  0  0
 41 42  1  0  0  0  0
M  END
>  <CHROM.1>
-151.10479987,131.88951278,-42.58695375,74.84404551,-64.66812815,65.44288856
59.72892779,-53.60092682,-169.74300096,-62.47183489,-62.30181569,64.11075262
178.16552864,-52.83664932,-57.98305119,164.01046440,173.78642273,-173.83245758
-67.47315525,-65.34448811,134.75802061,-48.77523121,7.34715704,5.95296910
29.72472759,2.82976249,-0.47765080,-1.00892822

>  <Name>
1fyp_lig

>  <RI>
0

>  <Rbt.Current_Directory>
/home/itssahil/PROJECTS/Mol_Feturizer/New_Systems/rnas/1fyp

>  <Rbt.Executable>
rbdock ($Id: //depot/dev/client3/rdock/2013.1/src/exe/rbdock.cxx#4 $)

>  <Rbt.Library>
libRbt.so (2013.1, Build901 2013/11/27)

>  <Rbt.Parameter_File>
/export/apps/rDock/src/rDock_2013.1_src/data/scripts/dock_solv.prm

>  <Rbt.Receptor>
prm/pocket_docking_7.prm

>  <SCORE>
-32.8642

>  <SCORE.INTER>
-24.4952

>  <SCORE.INTER.CONST>
1

>  <SCORE.INTER.POLAR>
-3.99392

>  <SCORE.INTER.ROT>
14

>  <SCORE.INTER.SOLV>
10.5639

>  <SCORE.INTER.VDW>
-19.4717

>  <SCORE.INTER.norm>
-0.58322

>  <SCORE.INTRA>
-8.36898

>  <SCORE.INTRA.DIHEDRAL>
-28.1436

>  <SCORE.INTRA.DIHEDRAL.0>
48.7173

>  <SCORE.INTRA.POLAR>
0.899464

>  <SCORE.INTRA.POLAR.0>
-1.54691

>  <SCORE.INTRA.REPUL>
0

>  <SCORE.INTRA.REPUL.0>
0

>  <SCORE.INTRA.SOLV>
-0.591537

>  <SCORE.INTRA.SOLV.lig_0>
-64.052

>  <SCORE.INTRA.VDW>
2.94041

>  <SCORE.INTRA.VDW.0>
-7.0667

>  <SCORE.INTRA.norm>
-0.199261

>  <SCORE.RESTR>
0

>  <SCORE.RESTR.CAVITY>
0

>  <SCORE.RESTR.norm>
0

>  <SCORE.SYSTEM>
0

>  <SCORE.SYSTEM.CONST>
0

>  <SCORE.SYSTEM.DIHEDRAL>
0

>  <SCORE.SYSTEM.SOLV>
0

>  <SCORE.SYSTEM.norm>
0

>  <SCORE.heavy>
42

>  <SCORE.norm>
-0.782481

>  <RMSD>
10.240

$$$$
1fyp_lig
 OpenBabel11021811393D
libRbt.so/2013.1/901 2013/11/27
 42 45  0  0  0  0  0  0  0  0999 V2000
   -2.3257    0.9293   26.1604 C   0  0  2  0  0  0  0  0  0  0  0  0
   -2.6039    0.9912   27.5891 O   0  0  0  0  0  0  0  0  0  0  0  0
   -0.4816    2.8606   30.7894 C   0  0  2  0  0  0  0  0  0  0  0  0
    0.4458    3.2226   31.8772 N   0  0  0  0  0  0  0  0  0  0  0  0
    1.4356    2.7553   27.0463 C   0  0  1  0  0  0  0  0  0  0  0  0
    5.3383    4.0908   26.1947 C   0  0  1  0  0  0  0  0  0  0  0  0
   -3.6192    0.6250   25.3380 C   0  0  2  0  0  0  0  0  0  0  0  0
   -4.7188    1.5407   25.7097 N   0  0  0  0  0  0  0  0  0  0  0  0
   -1.0800    1.4673   31.0680 C   0  0  0  0  0  0  0  0  0  0  0  0
    2.2468    1.8713   26.0955 C   0  0  2  0  0  0  0  0  0  0  0  0
    2.8662    0.8181   26.8348 O   0  0  0  0  0  0  0  0  0  0  0  0
    6.5316    4.0843   27.1982 C   0  0  2  0  0  0  0  0  0  0  0  0
    6.0925    3.9360   28.6073 N   0  0  0  0  0  0  0  0  0  0  0  0
   -4.0628   -0.8593   25.5282 C   0  0  1  0  0  0  0  0  0  0  0  0
   -5.1454   -1.1649   24.6527 O   0  0  0  0  0  0  0  0  0  0  0  0
   -2.0907    1.0318   29.9719 C   0  0  2  0  0  0  0  0  0  0  0  0
   -2.5390   -0.3397   30.2905 N   0  0  0  0  0  0  0  0  0  0  0  0
    3.2858    2.8593   25.5583 C   0  0  2  0  0  0  0  0  0  0  0  0
    4.4091    3.0105   26.4705 O   0  0  0  0  0  0  0  0  0  0  0  0
    7.4214    5.3518   27.0117 C   0  0  1  0  0  0  0  0  0  0  0  0
    8.1683    5.2080   25.8055 O   0  0  0  0  0  0  0  0  0  0  0  0
   -2.9046   -1.8479   25.2432 C   0  0  2  0  0  0  0  0  0  0  0  0
   -3.3448   -3.1732   25.5237 O   0  0  0  0  0  0  0  0  0  0  0  0
   -1.4924    1.1178   28.5218 C   0  0  2  0  0  0  0  0  0  0  0  0
    2.4784    4.1623   25.4758 C   0  0  2  0  0  0  0  0  0  0  0  0
    1.5153    4.0995   26.5456 O   0  0  0  0  0  0  0  0  0  0  0  0
    6.6195    6.6862   26.9326 C   0  0  2  0  0  0  0  0  0  0  0  0
    6.1390    7.0055   28.2395 O   0  0  0  0  0  0  0  0  0  0  0  0
   -1.6629   -1.4891   26.1079 C   0  0  2  0  0  0  0  0  0  0  0  0
   -1.3095   -0.0915   25.8804 O   0  0  0  0  0  0  0  0  0  0  0  0
   -0.7374    2.4693   28.2508 C   0  0  2  0  0  0  0  0  0  0  0  0
    0.0486    2.3125   27.0408 O   0  0  0  0  0  0  0  0  0  0  0  0
    1.7598    4.3420   24.1268 C   0  0  0  0  0  0  0  0  0  0  0  0
    2.4711    5.2381   23.2910 O   0  0  0  0  0  0  0  0  0  0  0  0
    5.4258    6.5570   25.9362 C   0  0  1  0  0  0  0  0  0  0  0  0
    4.6337    5.3766   26.2703 O   0  0  0  0  0  0  0  0  0  0  0  0
   -0.3972   -2.3207   25.8020 C   0  0  0  0  0  0  0  0  0  0  0  0
   -0.1042   -2.3213   24.4150 O   0  0  0  0  0  0  0  0  0  0  0  0
    0.2237    2.8730   29.4118 C   0  0  1  0  0  0  0  0  0  0  0  0
    0.7279    4.1830   29.1560 O   0  0  0  0  0  0  0  0  0  0  0  0
    4.5037    7.8032   25.9429 C   0  0  0  0  0  0  0  0  0  0  0  0
    3.3501    7.6550   25.0371 N   0  0  0  0  0  0  0  0  0  0  0  0
  1  2  1  1  0  0  0
  1  7  1  0  0  0  0
  1 30  1  0  0  0  0
  3  4  1  1  0  0  0
  3  9  1  0  0  0  0
  3 39  1  0  0  0  0
  5 10  1  0  0  0  0
  5 26  1  0  0  0  0
  5 32  1  6  0  0  0
  6 12  1  0  0  0  0
  6 36  1  0  0  0  0
  6 19  1  1  0  0  0
  7  8  1  1  0  0  0
  7 14  1  0  0  0  0
  9 16  1  0  0  0  0
 10 11  1  1  0  0  0
 10 18  1  0  0  0  0
 12 13  1  1  0  0  0
 12 20  1  0  0  0  0
 14 15  1  6  0  0  0
 14 22  1  0  0  0  0
 16 17  1  1  0  0  0
 16 24  1  0  0  0  0
 18 19  1  1  0  0  0
 18 25  1  0  0  0  0
 20 21  1  6  0  0  0
 20 27  1  0  0  0  0
 22 23  1  1  0  0  0
 22 29  1  0  0  0  0
 24  2  1  6  0  0  0
 24 31  1  0  0  0  0
 25 26  1  0  0  0  0
 25 33  1  6  0  0  0
 27 28  1  1  0  0  0
 27 35  1  0  0  0  0
 29 30  1  0  0  0  0
 29 37  1  6  0  0  0
 31 32  1  6  0  0  0
 31 39  1  0  0  0  0
 33 34  1  0  0  0  0
 35 36  1  0  0  0  0
 35 41  1  1  0  0  0
 37 38  1  0  0  0  0
 39 40  1  6  0  0  0
 41 42  1  0  0  0  0
M  END
>  <CHROM.1>
173.24119283,-175.13319944,-173.77959508,74.66916895,-167.40542932,60.01705651
-166.21391919,169.71579278,-169.23771084,-176.71741016,-69.08614416,-50.88649506
-101.05079077,-51.10271509,51.04495325,-133.05782625,148.94732591,-59.50895749
-177.86144443,170.32268558,47.30213840,-76.96484823,1.13496389,2.49149104
26.86251709,-2.96978089,0.61807066,1.27882933

>  <Name>
1fyp_lig

>  <RI>
0

>  <Rbt.Current_Directory>
/home/itssahil/PROJECTS/Mol_Feturizer/New_Systems/rnas/1fyp

>  <Rbt.Executable>
rbdock ($Id: //depot/dev/client3/rdock/2013.1/src/exe/rbdock.cxx#4 $)

>  <Rbt.Library>
libRbt.so (2013.1, Build901 2013/11/27)

>  <Rbt.Parameter_File>
/export/apps/rDock/src/rDock_2013.1_src/data/scripts/dock_solv.prm

>  <Rbt.Receptor>
prm/blind_docking_60.prm

>  <SCORE>
-24.0596

>  <SCORE.INTER>
-16.4065

>  <SCORE.INTER.CONST>
1

>  <SCORE.INTER.POLAR>
-5.42926

>  <SCORE.INTER.ROT>
14

>  <SCORE.INTER.SOLV>
20.0844

>  <SCORE.INTER.VDW>
-12.4683

>  <SCORE.INTER.norm>
-0.390631

>  <SCORE.INTRA>
-7.93026

>  <SCORE.INTRA.DIHEDRAL>
-27.7135

>  <SCORE.INTRA.DIHEDRAL.0>
48.7173

>  <SCORE.INTRA.POLAR>
0.0389617

>  <SCORE.INTRA.POLAR.0>
-1.54691

>  <SCORE.INTRA.REPUL>
0.00547904

>  <SCORE.INTRA.REPUL.0>
0

>  <SCORE.INTRA.SOLV>
-1.83026

>  <SCORE.INTRA.SOLV.lig_0>
-64.052

>  <SCORE.INTRA.VDW>
6.68174

>  <SCORE.INTRA.VDW.0>
-7.0667

>  <SCORE.INTRA.norm>
-0.188816

>  <SCORE.RESTR>
0.277185

>  <SCORE.RESTR.CAVITY>
0.277185

>  <SCORE.RESTR.norm>
0.00659963

>  <SCORE.SYSTEM>
0

>  <SCORE.SYSTEM.CONST>
0

>  <SCORE.SYSTEM.DIHEDRAL>
0

>  <SCORE.SYSTEM.SOLV>
0

>  <SCORE.SYSTEM.norm>
0

>  <SCORE.heavy>
42

>  <SCORE.norm>
-0.572847

>  <RMSD>
10.269

$$$$
1fyp_lig
 OpenBabel11021811393D
libRbt.so/2013.1/901 2013/11/27
 42 45  0  0  0  0  0  0  0  0999 V2000
   -2.3748    0.9596   28.8374 C   0  0  2  0  0  0  0  0  0  0  0  0
   -1.6555   -0.1863   28.2972 O   0  0  0  0  0  0  0  0  0  0  0  0
   -2.3492   -3.2670   25.4216 C   0  0  2  0  0  0  0  0  0  0  0  0
   -2.7100   -4.0704   24.2389 N   0  0  0  0  0  0  0  0  0  0  0  0
    0.6453    0.5378   26.8984 C   0  0  1  0  0  0  0  0  0  0  0  0
    3.2130    3.3286   29.2221 C   0  0  1  0  0  0  0  0  0  0  0  0
   -1.5171    1.7274   29.8943 C   0  0  2  0  0  0  0  0  0  0  0  0
   -0.1714    2.0401   29.3681 N   0  0  0  0  0  0  0  0  0  0  0  0
   -3.5744   -2.4519   25.8812 C   0  0  0  0  0  0  0  0  0  0  0  0
    2.1636    0.4313   27.0625 C   0  0  2  0  0  0  0  0  0  0  0  0
    2.4651   -0.3908   28.1907 O   0  0  0  0  0  0  0  0  0  0  0  0
    2.3629    4.4593   29.8779 C   0  0  2  0  0  0  0  0  0  0  0  0
    1.2143    4.8727   29.0352 N   0  0  0  0  0  0  0  0  0  0  0  0
   -1.4039    0.9094   31.2188 C   0  0  1  0  0  0  0  0  0  0  0  0
   -0.7571    1.6871   32.2232 O   0  0  0  0  0  0  0  0  0  0  0  0
   -3.2732   -1.5995   27.1442 C   0  0  2  0  0  0  0  0  0  0  0  0
   -4.4795   -0.8023   27.4490 N   0  0  0  0  0  0  0  0  0  0  0  0
    2.5547    1.8896   27.3168 C   0  0  2  0  0  0  0  0  0  0  0  0
    2.3710    2.2625   28.7110 O   0  0  0  0  0  0  0  0  0  0  0  0
    3.2581    5.6797   30.2551 C   0  0  1  0  0  0  0  0  0  0  0  0
    4.0451    5.3307   31.3919 O   0  0  0  0  0  0  0  0  0  0  0  0
   -2.7937    0.4770   31.7496 C   0  0  2  0  0  0  0  0  0  0  0  0
   -2.6174   -0.3407   32.9025 O   0  0  0  0  0  0  0  0  0  0  0  0
   -2.0079   -0.6837   26.9744 C   0  0  2  0  0  0  0  0  0  0  0  0
    1.5666    2.6488   26.4204 C   0  0  2  0  0  0  0  0  0  0  0  0
    0.3659    1.8530   26.3923 O   0  0  0  0  0  0  0  0  0  0  0  0
    4.2204    6.1387   29.1179 C   0  0  2  0  0  0  0  0  0  0  0  0
    3.4511    6.7960   28.1096 O   0  0  0  0  0  0  0  0  0  0  0  0
   -3.5775   -0.2915   30.6481 C   0  0  2  0  0  0  0  0  0  0  0  0
   -3.6401    0.5306   29.4439 O   0  0  0  0  0  0  0  0  0  0  0  0
   -0.7784   -1.4469   26.3612 C   0  0  2  0  0  0  0  0  0  0  0  0
    0.1992   -0.4613   25.9379 O   0  0  0  0  0  0  0  0  0  0  0  0
    2.0925    2.8637   24.9901 C   0  0  0  0  0  0  0  0  0  0  0  0
    1.5335    1.9149   24.0985 O   0  0  0  0  0  0  0  0  0  0  0  0
    4.9784    4.9190   28.5078 C   0  0  1  0  0  0  0  0  0  0  0  0
    4.0193    3.8851   28.1287 O   0  0  0  0  0  0  0  0  0  0  0  0
   -5.0351   -0.6468   31.0173 C   0  0  0  0  0  0  0  0  0  0  0  0
   -5.1054   -1.2832   32.2820 O   0  0  0  0  0  0  0  0  0  0  0  0
   -1.1592   -2.3222   25.1270 C   0  0  1  0  0  0  0  0  0  0  0  0
   -0.0253   -3.1015   24.7493 O   0  0  0  0  0  0  0  0  0  0  0  0
    5.8263    5.3013   27.2675 C   0  0  0  0  0  0  0  0  0  0  0  0
    6.2656    6.7081   27.2976 N   0  0  0  0  0  0  0  0  0  0  0  0
  1  2  1  1  0  0  0
  1  7  1  0  0  0  0
  1 30  1  0  0  0  0
  3  4  1  6  0  0  0
  3  9  1  0  0  0  0
  3 39  1  0  0  0  0
  5 10  1  0  0  0  0
  5 26  1  0  0  0  0
  5 32  1  6  0  0  0
  6 12  1  0  0  0  0
  6 36  1  0  0  0  0
  6 19  1  6  0  0  0
  7  8  1  6  0  0  0
  7 14  1  0  0  0  0
  9 16  1  0  0  0  0
 10 11  1  1  0  0  0
 10 18  1  0  0  0  0
 12 13  1  6  0  0  0
 12 20  1  0  0  0  0
 14 15  1  1  0  0  0
 14 22  1  0  0  0  0
 16 17  1  6  0  0  0
 16 24  1  0  0  0  0
 18 19  1  1  0  0  0
 18 25  1  0  0  0  0
 20 21  1  1  0  0  0
 20 27  1  0  0  0  0
 22 23  1  1  0  0  0
 22 29  1  0  0  0  0
 24  2  1  1  0  0  0
 24 31  1  0  0  0  0
 25 26  1  0  0  0  0
 25 33  1  6  0  0  0
 27 28  1  6  0  0  0
 27 35  1  0  0  0  0
 29 30  1  0  0  0  0
 29 37  1  1  0  0  0
 31 32  1  6  0  0  0
 31 39  1  0  0  0  0
 33 34  1  0  0  0  0
 35 36  1  0  0  0  0
 35 41  1  6  0  0  0
 37 38  1  0  0  0  0
 39 40  1  1  0  0  0
 41 42  1  0  0  0  0
M  END
>  <CHROM.1>
-154.95981477,-81.53725222,89.54240290,173.90041670,-78.08195367,57.85177559
-65.52888323,62.39811540,153.07933333,126.40552639,-179.15127326,67.91677384
100.08796359,173.95200460,-50.52465418,53.13542414,121.45798646,-82.39450420
27.45688358,-61.98766133,179.54148424,-173.22788643,0.20042691,1.36086876
28.24416769,2.74705150,-0.65387762,-2.11652130

>  <Name>
1fyp_lig

>  <RI>
0

>  <Rbt.Current_Directory>
/home/itssahil/PROJECTS/Mol_Feturizer/New_Systems/rnas/1fyp

>  <Rbt.Executable>
rbdock ($Id: //depot/dev/client3/rdock/2013.1/src/exe/rbdock.cxx#4 $)

>  <Rbt.Library>
libRbt.so (2013.1, Build901 2013/11/27)

>  <Rbt.Parameter_File>
/export/apps/rDock/src/rDock_2013.1_src/data/scripts/dock_solv.prm

>  <Rbt.Receptor>
prm/pocket_docking_6.prm

>  <SCORE>
-28.8459

>  <SCORE.INTER>
-23.0426

>  <SCORE.INTER.CONST>
1

>  <SCORE.INTER.POLAR>
-3.82308

>  <SCORE.INTER.ROT>
14

>  <SCORE.INTER.SOLV>
16.6306

>  <SCORE.INTER.VDW>
-21.0949

>  <SCORE.INTER.norm>
-0.548632

>  <SCORE.INTRA>
-5.80336

>  <SCORE.INTRA.DIHEDRAL>
-13.232

>  <SCORE.INTRA.DIHEDRAL.0>
48.7173

>  <SCORE.INTRA.POLAR>
-0.956212

>  <SCORE.INTRA.POLAR.0>
-1.54691

>  <SCORE.INTRA.REPUL>
0.00228789

>  <SCORE.INTRA.REPUL.0>
0

>  <SCORE.INTRA.SOLV>
1.93094

>  <SCORE.INTRA.SOLV.lig_0>
-64.052

>  <SCORE.INTRA.VDW>
3.08684

>  <SCORE.INTRA.VDW.0>
-7.0667

>  <SCORE.INTRA.norm>
-0.138175

>  <SCORE.RESTR>
0

>  <SCORE.RESTR.CAVITY>
0

>  <SCORE.RESTR.norm>
0

>  <SCORE.SYSTEM>
0

>  <SCORE.SYSTEM.CONST>
0

>  <SCORE.SYSTEM.DIHEDRAL>
0

>  <SCORE.SYSTEM.SOLV>
0

>  <SCORE.SYSTEM.norm>
0

>  <SCORE.heavy>
42

>  <SCORE.norm>
-0.686807

>  <RMSD>
10.270

$$$$
1fyp_lig
 OpenBabel11021811393D
libRbt.so/2013.1/901 2013/11/27
 42 45  0  0  0  0  0  0  0  0999 V2000
    4.1260    4.1370   29.7665 C   0  0  2  0  0  0  0  0  0  0  0  0
    3.9972    5.5784   29.5981 O   0  0  0  0  0  0  0  0  0  0  0  0
    4.1587    5.3118   25.3385 C   0  0  2  0  0  0  0  0  0  0  0  0
    4.1129    5.5484   23.8837 N   0  0  0  0  0  0  0  0  0  0  0  0
    7.7242    6.4910   28.0617 C   0  0  1  0  0  0  0  0  0  0  0  0
   11.9268    7.3457   27.2931 C   0  0  1  0  0  0  0  0  0  0  0  0
    2.8957    3.5365   30.5200 C   0  0  2  0  0  0  0  0  0  0  0  0
    1.6245    3.9708   29.9026 N   0  0  0  0  0  0  0  0  0  0  0  0
    2.8024    5.6954   25.9634 C   0  0  0  0  0  0  0  0  0  0  0  0
    8.5290    7.7683   27.8079 C   0  0  2  0  0  0  0  0  0  0  0  0
    8.7847    7.9012   26.4091 O   0  0  0  0  0  0  0  0  0  0  0  0
   13.0615    7.4064   28.3608 C   0  0  2  0  0  0  0  0  0  0  0  0
   12.5752    7.8608   29.6864 N   0  0  0  0  0  0  0  0  0  0  0  0
    2.9247    3.9261   32.0311 C   0  0  1  0  0  0  0  0  0  0  0  0
    1.8897    3.2438   32.7347 O   0  0  0  0  0  0  0  0  0  0  0  0
    2.7697    5.4453   27.4960 C   0  0  2  0  0  0  0  0  0  0  0  0
    1.4648    5.9186   28.0028 N   0  0  0  0  0  0  0  0  0  0  0  0
    9.8181    7.4864   28.5844 C   0  0  2  0  0  0  0  0  0  0  0  0
   10.7476    6.6768   27.8117 O   0  0  0  0  0  0  0  0  0  0  0  0
   14.2489    8.2854   27.8602 C   0  0  1  0  0  0  0  0  0  0  0  0
   14.9547    7.5633   26.8532 O   0  0  0  0  0  0  0  0  0  0  0  0
    4.2822    3.5760   32.6905 C   0  0  2  0  0  0  0  0  0  0  0  0
    4.2780    4.0390   34.0375 O   0  0  0  0  0  0  0  0  0  0  0  0
    3.9627    6.1334   28.2519 C   0  0  2  0  0  0  0  0  0  0  0  0
    9.2982    6.7017   29.7971 C   0  0  2  0  0  0  0  0  0  0  0  0
    8.1485    5.9690   29.3311 O   0  0  0  0  0  0  0  0  0  0  0  0
   13.8164    9.6588   27.2631 C   0  0  2  0  0  0  0  0  0  0  0  0
   13.4113   10.5126   28.3343 O   0  0  0  0  0  0  0  0  0  0  0  0
    5.4520    4.2202   31.8938 C   0  0  2  0  0  0  0  0  0  0  0  0
    5.3583    3.8148   30.4950 O   0  0  0  0  0  0  0  0  0  0  0  0
    5.3500    5.8913   27.5539 C   0  0  2  0  0  0  0  0  0  0  0  0
    6.3080    6.8242   28.1181 O   0  0  0  0  0  0  0  0  0  0  0  0
    8.9054    7.6073   30.9779 C   0  0  0  0  0  0  0  0  0  0  0  0
    8.4495    6.8363   32.0758 O   0  0  0  0  0  0  0  0  0  0  0  0
   12.6465    9.4773   26.2468 C   0  0  1  0  0  0  0  0  0  0  0  0
   11.5733    8.7054   26.8672 O   0  0  0  0  0  0  0  0  0  0  0  0
    6.8638    3.8196   32.3767 C   0  0  0  0  0  0  0  0  0  0  0  0
    7.8395    4.0700   31.3793 O   0  0  0  0  0  0  0  0  0  0  0  0
    5.3011    6.1114   26.0100 C   0  0  1  0  0  0  0  0  0  0  0  0
    6.5487    5.7060   25.4487 O   0  0  0  0  0  0  0  0  0  0  0  0
   12.0738   10.8282   25.7466 C   0  0  0  0  0  0  0  0  0  0  0  0
   10.8606   10.6567   24.9270 N   0  0  0  0  0  0  0  0  0  0  0  0
  1  2  1  1  0  0  0
  1  7  1  0  0  0  0
  1 30  1  0  0  0  0
  3  4  1  6  0  0  0
  3  9  1  0  0  0  0
  3 39  1  0  0  0  0
  5 10  1  0  0  0  0
  5 26  1  0  0  0  0
  5 32  1  1  0  0  0
  6 12  1  0  0  0  0
  6 36  1  0  0  0  0
  6 19  1  1  0  0  0
  7  8  1  6  0  0  0
  7 14  1  0  0  0  0
  9 16  1  0  0  0  0
 10 11  1  6  0  0  0
 10 18  1  0  0  0  0
 12 13  1  1  0  0  0
 12 20  1  0  0  0  0
 14 15  1  1  0  0  0
 14 22  1  0  0  0  0
 16 17  1  1  0  0  0
 16 24  1  0  0  0  0
 18 19  1  6  0  0  0
 18 25  1  0  0  0  0
 20 21  1  6  0  0  0
 20 27  1  0  0  0  0
 22 23  1  1  0  0  0
 22 29  1  0  0  0  0
 24  2  1  1  0  0  0
 24 31  1  0  0  0  0
 25 26  1  0  0  0  0
 25 33  1  1  0  0  0
 27 28  1  1  0  0  0
 27 35  1  0  0  0  0
 29 30  1  0  0  0  0
 29 37  1  1  0  0  0
 31 32  1  1  0  0  0
 31 39  1  0  0  0  0
 33 34  1  0  0  0  0
 35 36  1  0  0  0  0
 35 41  1  1  0  0  0
 37 38  1  0  0  0  0
 39 40  1  6  0  0  0
 41 42  1  0  0  0  0
M  END
>  <CHROM.1>
-119.09676755,57.04006067,54.31712259,155.31765516,-156.98004584,79.38919655
58.17752868,-39.63455405,107.57354058,84.10399778,-175.85209936,-57.38326992
-179.23914078,175.15172153,160.87292725,156.00405495,142.98077630,74.60447212
-172.54231660,64.77130164,58.50610800,83.17580590,7.53160577,6.39335811,28.67976564
-2.72945876,-0.33203313,-1.22365627

>  <Name>
1fyp_lig

>  <RI>
0

>  <Rbt.Current_Directory>
/home/itssahil/PROJECTS/Mol_Feturizer/New_Systems/rnas/1fyp

>  <Rbt.Executable>
rbdock ($Id: //depot/dev/client3/rdock/2013.1/src/exe/rbdock.cxx#4 $)

>  <Rbt.Library>
libRbt.so (2013.1, Build901 2013/11/27)

>  <Rbt.Parameter_File>
/export/apps/rDock/src/rDock_2013.1_src/data/scripts/dock_solv.prm

>  <Rbt.Receptor>
prm/pocket_docking_8.prm

>  <SCORE>
-32.4005

>  <SCORE.INTER>
-25.7696

>  <SCORE.INTER.CONST>
1

>  <SCORE.INTER.POLAR>
-3.84271

>  <SCORE.INTER.ROT>
14

>  <SCORE.INTER.SOLV>
8.78044

>  <SCORE.INTER.VDW>
-20.2309

>  <SCORE.INTER.norm>
-0.613562

>  <SCORE.INTRA>
-6.63085

>  <SCORE.INTRA.DIHEDRAL>
-16.913

>  <SCORE.INTRA.DIHEDRAL.0>
48.7173

>  <SCORE.INTRA.POLAR>
-0.384641

>  <SCORE.INTRA.POLAR.0>
-1.54691

>  <SCORE.INTRA.REPUL>
0

>  <SCORE.INTRA.REPUL.0>
0

>  <SCORE.INTRA.SOLV>
1.3989

>  <SCORE.INTRA.SOLV.lig_0>
-64.052

>  <SCORE.INTRA.VDW>
2.43398

>  <SCORE.INTRA.VDW.0>
-7.0667

>  <SCORE.INTRA.norm>
-0.157877

>  <SCORE.RESTR>
0

>  <SCORE.RESTR.CAVITY>
0

>  <SCORE.RESTR.norm>
0

>  <SCORE.SYSTEM>
0

>  <SCORE.SYSTEM.CONST>
0

>  <SCORE.SYSTEM.DIHEDRAL>
0

>  <SCORE.SYSTEM.SOLV>
0

>  <SCORE.SYSTEM.norm>
0

>  <SCORE.heavy>
42

>  <SCORE.norm>
-0.77144

>  <RMSD>
10.281

$$$$
1fyp_lig
 OpenBabel11021811393D
libRbt.so/2013.1/901 2013/11/27
 42 45  0  0  0  0  0  0  0  0999 V2000
   -1.4093   -0.0115   27.5517 C   0  0  2  0  0  0  0  0  0  0  0  0
   -1.8688    0.9530   28.5421 O   0  0  0  0  0  0  0  0  0  0  0  0
   -3.3994    1.3316   32.5113 C   0  0  2  0  0  0  0  0  0  0  0  0
   -3.8042    1.1429   33.9167 N   0  0  0  0  0  0  0  0  0  0  0  0
    0.7423    2.0733   29.7089 C   0  0  1  0  0  0  0  0  0  0  0  0
    2.7578    4.8826   26.9997 C   0  0  1  0  0  0  0  0  0  0  0  0
   -0.6485    0.6892   26.3803 C   0  0  2  0  0  0  0  0  0  0  0  0
    0.4038    1.5942   26.8896 N   0  0  0  0  0  0  0  0  0  0  0  0
   -3.9473    0.1693   31.6594 C   0  0  0  0  0  0  0  0  0  0  0  0
    0.3044    3.5340   29.5732 C   0  0  2  0  0  0  0  0  0  0  0  0
   -0.7405    3.6308   28.6044 O   0  0  0  0  0  0  0  0  0  0  0  0
    2.5119    4.9990   25.4644 C   0  0  2  0  0  0  0  0  0  0  0  0
    2.2392    3.6871   24.8282 N   0  0  0  0  0  0  0  0  0  0  0  0
   -1.6394    1.4728   25.4636 C   0  0  1  0  0  0  0  0  0  0  0  0
   -0.9573    1.9721   24.3160 O   0  0  0  0  0  0  0  0  0  0  0  0
   -3.5806    0.3178   30.1574 C   0  0  2  0  0  0  0  0  0  0  0  0
   -4.0799   -0.8799   29.4503 N   0  0  0  0  0  0  0  0  0  0  0  0
    1.5888    4.2014   29.0741 C   0  0  2  0  0  0  0  0  0  0  0  0
    1.7498    4.0544   27.6357 O   0  0  0  0  0  0  0  0  0  0  0  0
    3.6980    5.7326   24.7657 C   0  0  1  0  0  0  0  0  0  0  0  0
    3.6271    7.1196   25.0895 O   0  0  0  0  0  0  0  0  0  0  0  0
   -2.8138    0.5806   24.9893 C   0  0  2  0  0  0  0  0  0  0  0  0
   -3.7269    1.3745   24.2379 O   0  0  0  0  0  0  0  0  0  0  0  0
   -2.0407    0.5224   29.9229 C   0  0  2  0  0  0  0  0  0  0  0  0
    2.6728    3.4126   29.8219 C   0  0  2  0  0  0  0  0  0  0  0  0
    2.1530    2.0782   29.9803 O   0  0  0  0  0  0  0  0  0  0  0  0
    5.1052    5.2061   25.1810 C   0  0  2  0  0  0  0  0  0  0  0  0
    5.3107    3.9304   24.5720 O   0  0  0  0  0  0  0  0  0  0  0  0
   -3.5274   -0.0670   26.2098 C   0  0  2  0  0  0  0  0  0  0  0  0
   -2.5419   -0.7771   27.0187 O   0  0  0  0  0  0  0  0  0  0  0  0
   -1.4129    1.5955   30.8843 C   0  0  2  0  0  0  0  0  0  0  0  0
    0.0314    1.4652   30.8246 O   0  0  0  0  0  0  0  0  0  0  0  0
    3.0157    4.0134   31.1967 C   0  0  0  0  0  0  0  0  0  0  0  0
    1.9857    3.7511   32.1336 O   0  0  0  0  0  0  0  0  0  0  0  0
    5.2162    5.0866   26.7327 C   0  0  1  0  0  0  0  0  0  0  0  0
    4.0887    4.3143   27.2471 O   0  0  0  0  0  0  0  0  0  0  0  0
   -4.6257   -1.0924   25.8500 C   0  0  0  0  0  0  0  0  0  0  0  0
   -4.6946   -1.3033   24.4500 O   0  0  0  0  0  0  0  0  0  0  0  0
   -1.8608    1.4192   32.3685 C   0  0  1  0  0  0  0  0  0  0  0  0
   -1.3828    2.5289   33.1273 O   0  0  0  0  0  0  0  0  0  0  0  0
    6.5378    4.4163   27.1879 C   0  0  0  0  0  0  0  0  0  0  0  0
    6.5960    2.9870   26.8322 N   0  0  0  0  0  0  0  0  0  0  0  0
  1  2  1  1  0  0  0
  1  7  1  0  0  0  0
  1 30  1  0  0  0  0
  3  4  1  1  0  0  0
  3  9  1  0  0  0  0
  3 39  1  0  0  0  0
  5 10  1  0  0  0  0
  5 26  1  0  0  0  0
  5 32  1  1  0  0  0
  6 12  1  0  0  0  0
  6 36  1  0  0  0  0
  6 19  1  6  0  0  0
  7  8  1  1  0  0  0
  7 14  1  0  0  0  0
  9 16  1  0  0  0  0
 10 11  1  6  0  0  0
 10 18  1  0  0  0  0
 12 13  1  6  0  0  0
 12 20  1  0  0  0  0
 14 15  1  6  0  0  0
 14 22  1  0  0  0  0
 16 17  1  6  0  0  0
 16 24  1  0  0  0  0
 18 19  1  6  0  0  0
 18 25  1  0  0  0  0
 20 21  1  1  0  0  0
 20 27  1  0  0  0  0
 22 23  1  1  0  0  0
 22 29  1  0  0  0  0
 24  2  1  6  0  0  0
 24 31  1  0  0  0  0
 25 26  1  0  0  0  0
 25 33  1  1  0  0  0
 27 28  1  6  0  0  0
 27 35  1  0  0  0  0
 29 30  1  0  0  0  0
 29 37  1  6  0  0  0
 31 32  1  1  0  0  0
 31 39  1  0  0  0  0
 33 34  1  0  0  0  0
 35 36  1  0  0  0  0
 35 41  1  6  0  0  0
 37 38  1  0  0  0  0
 39 40  1  1  0  0  0
 41 42  1  0  0  0  0
M  END
>  <CHROM.1>
-152.70122797,-102.49786433,-49.95607095,161.99179989,54.02309163,-35.03331837
65.35197673,88.01862971,166.82075320,-160.67097577,-171.28524375,-51.76573887
74.08618650,109.69888184,4.10101352,80.48607316,50.85066424,65.16785899,-68.65658986
-68.18591622,-56.71388647,42.73529223,0.17975230,2.33454412,28.04995134,2.85224591
0.53396985,1.52132873

>  <Name>
1fyp_lig

>  <RI>
0

>  <Rbt.Current_Directory>
/home/itssahil/PROJECTS/Mol_Feturizer/New_Systems/rnas/1fyp

>  <Rbt.Executable>
rbdock ($Id: //depot/dev/client3/rdock/2013.1/src/exe/rbdock.cxx#4 $)

>  <Rbt.Library>
libRbt.so (2013.1, Build901 2013/11/27)

>  <Rbt.Parameter_File>
/export/apps/rDock/src/rDock_2013.1_src/data/scripts/dock_solv.prm

>  <Rbt.Receptor>
prm/pocket_docking_7.prm

>  <SCORE>
-40.9859

>  <SCORE.INTER>
-30.1297

>  <SCORE.INTER.CONST>
1

>  <SCORE.INTER.POLAR>
-3.67731

>  <SCORE.INTER.ROT>
14

>  <SCORE.INTER.SOLV>
13.5596

>  <SCORE.INTER.VDW>
-25.2819

>  <SCORE.INTER.norm>
-0.717373

>  <SCORE.INTRA>
-10.8562

>  <SCORE.INTRA.DIHEDRAL>
-17.3327

>  <SCORE.INTRA.DIHEDRAL.0>
48.7173

>  <SCORE.INTRA.POLAR>
-1.34171

>  <SCORE.INTRA.POLAR.0>
-1.54691

>  <SCORE.INTRA.REPUL>
0

>  <SCORE.INTRA.REPUL.0>
0

>  <SCORE.INTRA.SOLV>
3.8163

>  <SCORE.INTRA.SOLV.lig_0>
-64.052

>  <SCORE.INTRA.VDW>
0.463823

>  <SCORE.INTRA.VDW.0>
-7.0667

>  <SCORE.INTRA.norm>
-0.258481

>  <SCORE.RESTR>
0

>  <SCORE.RESTR.CAVITY>
0

>  <SCORE.RESTR.norm>
0

>  <SCORE.SYSTEM>
0

>  <SCORE.SYSTEM.CONST>
0

>  <SCORE.SYSTEM.DIHEDRAL>
0

>  <SCORE.SYSTEM.SOLV>
0

>  <SCORE.SYSTEM.norm>
0

>  <SCORE.heavy>
42

>  <SCORE.norm>
-0.975854

>  <RMSD>
10.334

$$$$
1fyp_lig
 OpenBabel11021811393D
libRbt.so/2013.1/901 2013/11/27
 42 45  0  0  0  0  0  0  0  0999 V2000
    2.6936    5.5848   24.8793 C   0  0  2  0  0  0  0  0  0  0  0  0
    4.0364    5.0828   24.6197 O   0  0  0  0  0  0  0  0  0  0  0  0
    4.1044    2.2614   27.8253 C   0  0  2  0  0  0  0  0  0  0  0  0
    4.3005    1.0945   28.7052 N   0  0  0  0  0  0  0  0  0  0  0  0
    7.0378    5.9540   26.7753 C   0  0  1  0  0  0  0  0  0  0  0  0
   10.1111    8.6455   27.6293 C   0  0  1  0  0  0  0  0  0  0  0  0
    2.4549    6.9654   24.1873 C   0  0  2  0  0  0  0  0  0  0  0  0
    2.8269    6.9199   22.7572 N   0  0  0  0  0  0  0  0  0  0  0  0
    3.4472    1.8054   26.5073 C   0  0  0  0  0  0  0  0  0  0  0  0
    8.3843    6.3175   26.1440 C   0  0  2  0  0  0  0  0  0  0  0  0
    9.4444    5.8581   26.9834 O   0  0  0  0  0  0  0  0  0  0  0  0
   10.4024    8.9655   29.1272 C   0  0  2  0  0  0  0  0  0  0  0  0
    9.4777    9.9826   29.6846 N   0  0  0  0  0  0  0  0  0  0  0  0
    3.2447    8.0970   24.9166 C   0  0  1  0  0  0  0  0  0  0  0  0
    2.8942    9.3684   24.3759 O   0  0  0  0  0  0  0  0  0  0  0  0
    3.1852    2.9919   25.5399 C   0  0  2  0  0  0  0  0  0  0  0  0
    2.6329    2.4385   24.2859 N   0  0  0  0  0  0  0  0  0  0  0  0
    8.3168    7.8470   26.1203 C   0  0  2  0  0  0  0  0  0  0  0  0
    8.6949    8.4238   27.4013 O   0  0  0  0  0  0  0  0  0  0  0  0
   11.8920    9.3830   29.3267 C   0  0  1  0  0  0  0  0  0  0  0  0
   12.7091    8.2208   29.2037 O   0  0  0  0  0  0  0  0  0  0  0  0
    2.9560    8.1124   26.4387 C   0  0  2  0  0  0  0  0  0  0  0  0
    3.7737    9.1012   27.0571 O   0  0  0  0  0  0  0  0  0  0  0  0
    4.4706    3.8539   25.2697 C   0  0  2  0  0  0  0  0  0  0  0  0
    6.8302    8.0992   25.8326 C   0  0  2  0  0  0  0  0  0  0  0  0
    6.1177    7.0067   26.4448 O   0  0  0  0  0  0  0  0  0  0  0  0
   12.3976   10.4452   28.3040 C   0  0  2  0  0  0  0  0  0  0  0  0
   11.8198   11.7083   28.6378 O   0  0  0  0  0  0  0  0  0  0  0  0
    3.2306    6.7113   27.0549 C   0  0  2  0  0  0  0  0  0  0  0  0
    2.4634    5.7083   26.3232 O   0  0  0  0  0  0  0  0  0  0  0  0
    5.2556    4.2099   26.5839 C   0  0  2  0  0  0  0  0  0  0  0  0
    6.5693    4.6982   26.2067 O   0  0  0  0  0  0  0  0  0  0  0  0
    6.5095    8.1634   24.3287 C   0  0  0  0  0  0  0  0  0  0  0  0
    7.0343    9.3457   23.7504 O   0  0  0  0  0  0  0  0  0  0  0  0
   12.0074   10.0421   26.8481 C   0  0  1  0  0  0  0  0  0  0  0  0
   10.5773    9.7530   26.7858 O   0  0  0  0  0  0  0  0  0  0  0  0
    2.8390    6.5689   28.5427 C   0  0  0  0  0  0  0  0  0  0  0  0
    3.1794    5.2876   29.0444 O   0  0  0  0  0  0  0  0  0  0  0  0
    5.4407    2.9854   27.5330 C   0  0  1  0  0  0  0  0  0  0  0  0
    6.0061    3.4385   28.7621 O   0  0  0  0  0  0  0  0  0  0  0  0
   12.3462   11.1437   25.8113 C   0  0  0  0  0  0  0  0  0  0  0  0
   12.0191   10.7388   24.4322 N   0  0  0  0  0  0  0  0  0  0  0  0
  1  2  1  1  0  0  0
  1  7  1  0  0  0  0
  1 30  1  0  0  0  0
  3  4  1  1  0  0  0
  3  9  1  0  0  0  0
  3 39  1  0  0  0  0
  5 10  1  0  0  0  0
  5 26  1  0  0  0  0
  5 32  1  6  0  0  0
  6 12  1  0  0  0  0
  6 36  1  0  0  0  0
  6 19  1  1  0  0  0
  7  8  1  6  0  0  0
  7 14  1  0  0  0  0
  9 16  1  0  0  0  0
 10 11  1  1  0  0  0
 10 18  1  0  0  0  0
 12 13  1  6  0  0  0
 12 20  1  0  0  0  0
 14 15  1  6  0  0  0
 14 22  1  0  0  0  0
 16 17  1  6  0  0  0
 16 24  1  0  0  0  0
 18 19  1  1  0  0  0
 18 25  1  0  0  0  0
 20 21  1  6  0  0  0
 20 27  1  0  0  0  0
 22 23  1  1  0  0  0
 22 29  1  0  0  0  0
 24  2  1  1  0  0  0
 24 31  1  0  0  0  0
 25 26  1  0  0  0  0
 25 33  1  6  0  0  0
 27 28  1  1  0  0  0
 27 35  1  0  0  0  0
 29 30  1  0  0  0  0
 29 37  1  1  0  0  0
 31 32  1  6  0  0  0
 31 39  1  0  0  0  0
 33 34  1  0  0  0  0
 35 36  1  0  0  0  0
 35 41  1  6  0  0  0
 37 38  1  0  0  0  0
 39 40  1  1  0  0  0
 41 42  1  0  0  0  0
M  END
>  <CHROM.1>
175.41657780,27.66040286,-175.08455542,-57.44890384,179.00418141,-97.57170681
-170.54660115,-4.56870303,85.79683329,-167.54515730,-59.68419735,-170.46095608
-70.65281069,175.28335947,-177.17210545,129.76938799,-175.26572121,-176.03522330
177.98780844,-68.82647555,70.32490579,112.74069428,6.58481360,6.91347054
26.60116463,2.71902075,0.46012510,2.61936348

>  <Name>
1fyp_lig

>  <RI>
0

>  <Rbt.Current_Directory>
/home/itssahil/PROJECTS/Mol_Feturizer/New_Systems/rnas/1fyp

>  <Rbt.Executable>
rbdock ($Id: //depot/dev/client3/rdock/2013.1/src/exe/rbdock.cxx#4 $)

>  <Rbt.Library>
libRbt.so (2013.1, Build901 2013/11/27)

>  <Rbt.Parameter_File>
/export/apps/rDock/src/rDock_2013.1_src/data/scripts/dock_solv.prm

>  <Rbt.Receptor>
prm/pocket_docking_7.prm

>  <SCORE>
-52.5414

>  <SCORE.INTER>
-44.9538

>  <SCORE.INTER.CONST>
1

>  <SCORE.INTER.POLAR>
-5.67967

>  <SCORE.INTER.ROT>
14

>  <SCORE.INTER.SOLV>
18.1898

>  <SCORE.INTER.VDW>
-30.0335

>  <SCORE.INTER.norm>
-1.07033

>  <SCORE.INTRA>
-7.61162

>  <SCORE.INTRA.DIHEDRAL>
-24.8946

>  <SCORE.INTRA.DIHEDRAL.0>
48.7173

>  <SCORE.INTRA.POLAR>
1.09249

>  <SCORE.INTRA.POLAR.0>
-1.54691

>  <SCORE.INTRA.REPUL>
0

>  <SCORE.INTRA.REPUL.0>
0

>  <SCORE.INTRA.SOLV>
-0.896919

>  <SCORE.INTRA.SOLV.lig_0>
-64.052

>  <SCORE.INTRA.VDW>
1.56968

>  <SCORE.INTRA.VDW.0>
-7.0667

>  <SCORE.INTRA.norm>
-0.181229

>  <SCORE.RESTR>
0.0239511

>  <SCORE.RESTR.CAVITY>
0.0239511

>  <SCORE.RESTR.norm>
0.000570264

>  <SCORE.SYSTEM>
0

>  <SCORE.SYSTEM.CONST>
0

>  <SCORE.SYSTEM.DIHEDRAL>
0

>  <SCORE.SYSTEM.SOLV>
0

>  <SCORE.SYSTEM.norm>
0

>  <SCORE.heavy>
42

>  <SCORE.norm>
-1.25099

>  <RMSD>
10.336

$$$$
1fyp_lig
 OpenBabel11021811393D
libRbt.so/2013.1/901 2013/11/27
 42 45  0  0  0  0  0  0  0  0999 V2000
   -2.1077    0.2745   28.3820 C   0  0  2  0  0  0  0  0  0  0  0  0
   -1.5415   -0.8605   27.6654 O   0  0  0  0  0  0  0  0  0  0  0  0
   -0.6610   -2.4298   23.7920 C   0  0  2  0  0  0  0  0  0  0  0  0
   -0.6279   -2.7813   22.3603 N   0  0  0  0  0  0  0  0  0  0  0  0
    0.9325    1.4065   26.4365 C   0  0  1  0  0  0  0  0  0  0  0  0
    3.9842    3.9931   26.8509 C   0  0  1  0  0  0  0  0  0  0  0  0
   -3.1377   -0.1871   29.4628 C   0  0  2  0  0  0  0  0  0  0  0  0
   -2.5683   -1.2390   30.3316 N   0  0  0  0  0  0  0  0  0  0  0  0
   -2.0670   -2.7133   24.3574 C   0  0  0  0  0  0  0  0  0  0  0  0
    1.1796    2.8696   26.0596 C   0  0  2  0  0  0  0  0  0  0  0  0
    2.2212    2.9421   25.0854 O   0  0  0  0  0  0  0  0  0  0  0  0
    5.4059    3.9833   27.4909 C   0  0  2  0  0  0  0  0  0  0  0  0
    5.3804    4.2788   28.9443 N   0  0  0  0  0  0  0  0  0  0  0  0
   -4.4558   -0.6906   28.7956 C   0  0  1  0  0  0  0  0  0  0  0  0
   -5.4402   -0.9571   29.7915 O   0  0  0  0  0  0  0  0  0  0  0  0
   -2.1671   -2.3903   25.8733 C   0  0  2  0  0  0  0  0  0  0  0  0
   -3.5657   -2.6184   26.2921 N   0  0  0  0  0  0  0  0  0  0  0  0
    1.6264    3.4668   27.3968 C   0  0  2  0  0  0  0  0  0  0  0  0
    3.0400    3.2313   27.6477 O   0  0  0  0  0  0  0  0  0  0  0  0
    6.3637    4.9525   26.7317 C   0  0  1  0  0  0  0  0  0  0  0  0
    6.7010    4.3657   25.4765 O   0  0  0  0  0  0  0  0  0  0  0  0
   -5.0309    0.3478   27.8000 C   0  0  2  0  0  0  0  0  0  0  0  0
   -6.1754   -0.2069   27.1588 O   0  0  0  0  0  0  0  0  0  0  0  0
   -1.6950   -0.9322   26.2188 C   0  0  2  0  0  0  0  0  0  0  0  0
    0.7634    2.6897   28.4007 C   0  0  2  0  0  0  0  0  0  0  0  0
    0.5662    1.3836   27.8254 O   0  0  0  0  0  0  0  0  0  0  0  0
    5.7592    6.3641   26.4635 C   0  0  2  0  0  0  0  0  0  0  0  0
    5.7271    7.0860   27.6958 O   0  0  0  0  0  0  0  0  0  0  0  0
   -3.9539    0.7441   26.7506 C   0  0  2  0  0  0  0  0  0  0  0  0
   -2.7544    1.2005   27.4454 O   0  0  0  0  0  0  0  0  0  0  0  0
   -0.3338   -0.5511   25.5318 C   0  0  2  0  0  0  0  0  0  0  0  0
   -0.1644    0.8868   25.6324 O   0  0  0  0  0  0  0  0  0  0  0  0
   -0.5957    3.3589   28.6723 C   0  0  0  0  0  0  0  0  0  0  0  0
   -1.0396    3.0844   29.9896 O   0  0  0  0  0  0  0  0  0  0  0  0
    4.3211    6.2471   25.8699 C   0  0  1  0  0  0  0  0  0  0  0  0
    3.5103    5.3761   26.7164 O   0  0  0  0  0  0  0  0  0  0  0  0
   -4.3699    1.8824   25.7923 C   0  0  0  0  0  0  0  0  0  0  0  0
   -3.5840    1.8754   24.6126 O   0  0  0  0  0  0  0  0  0  0  0  0
   -0.2813   -0.9473   24.0235 C   0  0  1  0  0  0  0  0  0  0  0  0
    1.0399   -0.7208   23.5350 O   0  0  0  0  0  0  0  0  0  0  0  0
    3.6158    7.6211   25.7360 C   0  0  0  0  0  0  0  0  0  0  0  0
    3.0437    8.0872   27.0120 N   0  0  0  0  0  0  0  0  0  0  0  0
  1  2  1  6  0  0  0
  1  7  1  0  0  0  0
  1 30  1  0  0  0  0
  3  4  1  6  0  0  0
  3  9  1  0  0  0  0
  3 39  1  0  0  0  0
  5 10  1  0  0  0  0
  5 26  1  0  0  0  0
  5 32  1  6  0  0  0
  6 12  1  0  0  0  0
  6 36  1  0  0  0  0
  6 19  1  1  0  0  0
  7  8  1  6  0  0  0
  7 14  1  0  0  0  0
  9 16  1  0  0  0  0
 10 11  1  6  0  0  0
 10 18  1  0  0  0  0
 12 13  1  1  0  0  0
 12 20  1  0  0  0  0
 14 15  1  1  0  0  0
 14 22  1  0  0  0  0
 16 17  1  6  0  0  0
 16 24  1  0  0  0  0
 18 19  1  1  0  0  0
 18 25  1  0  0  0  0
 20 21  1  6  0  0  0
 20 27  1  0  0  0  0
 22 23  1  6  0  0  0
 22 29  1  0  0  0  0
 24  2  1  1  0  0  0
 24 31  1  0  0  0  0
 25 26  1  0  0  0  0
 25 33  1  6  0  0  0
 27 28  1  1  0  0  0
 27 35  1  0  0  0  0
 29 30  1  0  0  0  0
 29 37  1  6  0  0  0
 31 32  1  6  0  0  0
 31 39  1  0  0  0  0
 33 34  1  0  0  0  0
 35 36  1  0  0  0  0
 35 41  1  1  0  0  0
 37 38  1  0  0  0  0
 39 40  1  1  0  0  0
 41 42  1  0  0  0  0
M  END
>  <CHROM.1>
121.49695149,-133.12599103,-51.79866271,70.06472373,72.55533209,-151.20100600
-69.68854489,-36.67313227,72.23209276,162.69485904,-62.45697958,170.52547902
-149.74151046,-59.30227778,-159.45138834,114.69745115,162.73385286,71.29893999
-80.36464823,-64.30131810,-68.93249794,68.71191024,0.15707559,1.76900120
26.77707441,2.69217420,-0.51323589,-2.34907737

>  <Name>
1fyp_lig

>  <RI>
0

>  <Rbt.Current_Directory>
/home/itssahil/PROJECTS/Mol_Feturizer/New_Systems/rnas/1fyp

>  <Rbt.Executable>
rbdock ($Id: //depot/dev/client3/rdock/2013.1/src/exe/rbdock.cxx#4 $)

>  <Rbt.Library>
libRbt.so (2013.1, Build901 2013/11/27)

>  <Rbt.Parameter_File>
/export/apps/rDock/src/rDock_2013.1_src/data/scripts/dock_solv.prm

>  <Rbt.Receptor>
prm/pocket_docking_3.prm

>  <SCORE>
-27.1968

>  <SCORE.INTER>
-28.7011

>  <SCORE.INTER.CONST>
1

>  <SCORE.INTER.POLAR>
-3.22024

>  <SCORE.INTER.ROT>
14

>  <SCORE.INTER.SOLV>
20.2125

>  <SCORE.INTER.VDW>
-28.0707

>  <SCORE.INTER.norm>
-0.683359

>  <SCORE.INTRA>
-0.834223

>  <SCORE.INTRA.DIHEDRAL>
-13.9444

>  <SCORE.INTRA.DIHEDRAL.0>
48.7173

>  <SCORE.INTRA.POLAR>
1.38166

>  <SCORE.INTRA.POLAR.0>
-1.54691

>  <SCORE.INTRA.REPUL>
0

>  <SCORE.INTRA.REPUL.0>
0

>  <SCORE.INTRA.SOLV>
-0.229725

>  <SCORE.INTRA.SOLV.lig_0>
-64.052

>  <SCORE.INTRA.VDW>
1.55517

>  <SCORE.INTRA.VDW.0>
-7.0667

>  <SCORE.INTRA.norm>
-0.0198625

>  <SCORE.RESTR>
2.33854

>  <SCORE.RESTR.CAVITY>
2.33854

>  <SCORE.RESTR.norm>
0.0556795

>  <SCORE.SYSTEM>
0

>  <SCORE.SYSTEM.CONST>
0

>  <SCORE.SYSTEM.DIHEDRAL>
0

>  <SCORE.SYSTEM.SOLV>
0

>  <SCORE.SYSTEM.norm>
0

>  <SCORE.heavy>
42

>  <SCORE.norm>
-0.647542

>  <RMSD>
10.351

$$$$
1fyp_lig
 OpenBabel11021811393D
libRbt.so/2013.1/901 2013/11/27
 42 45  0  0  0  0  0  0  0  0999 V2000
    0.4203    0.7233   26.6297 C   0  0  2  0  0  0  0  0  0  0  0  0
    0.4243    2.1494   26.3320 O   0  0  0  0  0  0  0  0  0  0  0  0
    0.3308    6.0189   28.1371 C   0  0  2  0  0  0  0  0  0  0  0  0
    0.4010    7.1826   29.0402 N   0  0  0  0  0  0  0  0  0  0  0  0
    4.1531    4.5044   26.6787 C   0  0  1  0  0  0  0  0  0  0  0  0
    7.9838    6.4673   26.8510 C   0  0  1  0  0  0  0  0  0  0  0  0
    0.2771   -0.1324   25.3300 C   0  0  2  0  0  0  0  0  0  0  0  0
    1.2620    0.2779   24.3066 N   0  0  0  0  0  0  0  0  0  0  0  0
   -0.5591    4.9310   28.7706 C   0  0  0  0  0  0  0  0  0  0  0  0
    4.8182    4.7022   28.0434 C   0  0  2  0  0  0  0  0  0  0  0  0
    4.3212    5.8969   28.6477 O   0  0  0  0  0  0  0  0  0  0  0  0
    8.8797    6.7545   28.0944 C   0  0  2  0  0  0  0  0  0  0  0  0
    8.2619    7.7233   29.0325 N   0  0  0  0  0  0  0  0  0  0  0  0
   -1.1715   -0.0353   24.7570 C   0  0  1  0  0  0  0  0  0  0  0  0
   -1.3314   -0.9412   23.6683 O   0  0  0  0  0  0  0  0  0  0  0  0
   -0.7003    3.6821   27.8581 C   0  0  2  0  0  0  0  0  0  0  0  0
   -1.4994    2.6768   28.5892 N   0  0  0  0  0  0  0  0  0  0  0  0
    6.2923    4.8470   27.6557 C   0  0  2  0  0  0  0  0  0  0  0  0
    6.6100    6.2040   27.2383 O   0  0  0  0  0  0  0  0  0  0  0  0
   10.3041    7.2168   27.6580 C   0  0  1  0  0  0  0  0  0  0  0  0
   11.0125    6.0871   27.1526 O   0  0  0  0  0  0  0  0  0  0  0  0
   -2.2391   -0.3625   25.8310 C   0  0  2  0  0  0  0  0  0  0  0  0
   -3.5350   -0.1659   25.2736 O   0  0  0  0  0  0  0  0  0  0  0  0
    0.6859    3.0962   27.4074 C   0  0  2  0  0  0  0  0  0  0  0  0
    6.4106    3.8766   26.4721 C   0  0  2  0  0  0  0  0  0  0  0  0
    5.1267    3.8911   25.8186 O   0  0  0  0  0  0  0  0  0  0  0  0
   10.3055    8.3242   26.5609 C   0  0  2  0  0  0  0  0  0  0  0  0
    9.9014    9.5568   27.1592 O   0  0  0  0  0  0  0  0  0  0  0  0
   -2.0395    0.5379   27.0831 C   0  0  2  0  0  0  0  0  0  0  0  0
   -0.6672    0.3973   27.5594 O   0  0  0  0  0  0  0  0  0  0  0  0
    1.6802    4.2012   26.8970 C   0  0  2  0  0  0  0  0  0  0  0  0
    3.0078    3.6184   26.8316 O   0  0  0  0  0  0  0  0  0  0  0  0
    6.7697    2.4429   26.9013 C   0  0  0  0  0  0  0  0  0  0  0  0
    6.2167    2.1423   28.1708 O   0  0  0  0  0  0  0  0  0  0  0  0
    9.3395    7.9493   25.3943 C   0  0  1  0  0  0  0  0  0  0  0  0
    8.0251    7.6135   25.9346 O   0  0  0  0  0  0  0  0  0  0  0  0
   -2.9590    0.2004   28.2780 C   0  0  0  0  0  0  0  0  0  0  0  0
   -2.5692   -1.0116   28.9014 O   0  0  0  0  0  0  0  0  0  0  0  0
    1.7370    5.4482   27.8330 C   0  0  1  0  0  0  0  0  0  0  0  0
    2.5261    6.4578   27.2056 O   0  0  0  0  0  0  0  0  0  0  0  0
    9.1833    9.0908   24.3570 C   0  0  0  0  0  0  0  0  0  0  0  0
    8.9233   10.3960   24.9909 N   0  0  0  0  0  0  0  0  0  0  0  0
  1  2  1  6  0  0  0
  1  7  1  0  0  0  0
  1 30  1  0  0  0  0
  3  4  1  1  0  0  0
  3  9  1  0  0  0  0
  3 39  1  0  0  0  0
  5 10  1  0  0  0  0
  5 26  1  0  0  0  0
  5 32  1  1  0  0  0
  6 12  1  0  0  0  0
  6 36  1  0  0  0  0
  6 19  1  1  0  0  0
  7  8  1  6  0  0  0
  7 14  1  0  0  0  0
  9 16  1  0  0  0  0
 10 11  1  6  0  0  0
 10 18  1  0  0  0  0
 12 13  1  1  0  0  0
 12 20  1  0  0  0  0
 14 15  1  6  0  0  0
 14 22  1  0  0  0  0
 16 17  1  1  0  0  0
 16 24  1  0  0  0  0
 18 19  1  6  0  0  0
 18 25  1  0  0  0  0
 20 21  1  6  0  0  0
 20 27  1  0  0  0  0
 22 23  1  6  0  0  0
 22 29  1  0  0  0  0
 24  2  1  6  0  0  0
 24 31  1  0  0  0  0
 25 26  1  0  0  0  0
 25 33  1  1  0  0  0
 27 28  1  1  0  0  0
 27 35  1  0  0  0  0
 29 30  1  0  0  0  0
 29 37  1  1  0  0  0
 31 32  1  1  0  0  0
 31 39  1  0  0  0  0
 33 34  1  0  0  0  0
 35 36  1  0  0  0  0
 35 41  1  6  0  0  0
 37 38  1  0  0  0  0
 39 40  1  6  0  0  0
 41 42  1  0  0  0  0
M  END
>  <CHROM.1>
-173.82009460,-101.07078317,49.40987271,112.41279682,177.31862191,75.27297601
-171.67334922,-45.82937359,179.73440573,-83.33016432,172.82828827,-58.22726464
32.32465856,57.06194803,72.22414415,-166.35297858,100.32054692,-165.17491878
-47.82731336,61.45367803,105.79245796,7.82888876,3.48449117,4.15749452,26.94634069
-2.61634224,0.27671153,0.45995180

>  <Name>
1fyp_lig

>  <RI>
0

>  <Rbt.Current_Directory>
/home/itssahil/PROJECTS/Mol_Feturizer/New_Systems/rnas/1fyp

>  <Rbt.Executable>
rbdock ($Id: //depot/dev/client3/rdock/2013.1/src/exe/rbdock.cxx#4 $)

>  <Rbt.Library>
libRbt.so (2013.1, Build901 2013/11/27)

>  <Rbt.Parameter_File>
/export/apps/rDock/src/rDock_2013.1_src/data/scripts/dock_solv.prm

>  <Rbt.Receptor>
prm/pocket_docking_8.prm

>  <SCORE>
-30.745

>  <SCORE.INTER>
-31.4399

>  <SCORE.INTER.CONST>
1

>  <SCORE.INTER.POLAR>
-4.18168

>  <SCORE.INTER.ROT>
14

>  <SCORE.INTER.SOLV>
21.2794

>  <SCORE.INTER.VDW>
-27.0475

>  <SCORE.INTER.norm>
-0.748569

>  <SCORE.INTRA>
0.694876

>  <SCORE.INTRA.DIHEDRAL>
-17.1445

>  <SCORE.INTRA.DIHEDRAL.0>
48.7173

>  <SCORE.INTRA.POLAR>
0.136256

>  <SCORE.INTRA.POLAR.0>
-1.54691

>  <SCORE.INTRA.REPUL>
0

>  <SCORE.INTRA.REPUL.0>
0

>  <SCORE.INTRA.SOLV>
1.20139

>  <SCORE.INTRA.SOLV.lig_0>
-64.052

>  <SCORE.INTRA.VDW>
8.20318

>  <SCORE.INTRA.VDW.0>
-7.0667

>  <SCORE.INTRA.norm>
0.0165447

>  <SCORE.RESTR>
0

>  <SCORE.RESTR.CAVITY>
0

>  <SCORE.RESTR.norm>
0

>  <SCORE.SYSTEM>
0

>  <SCORE.SYSTEM.CONST>
0

>  <SCORE.SYSTEM.DIHEDRAL>
0

>  <SCORE.SYSTEM.SOLV>
0

>  <SCORE.SYSTEM.norm>
0

>  <SCORE.heavy>
42

>  <SCORE.norm>
-0.732025

>  <RMSD>
10.381

$$$$
1fyp_lig
 OpenBabel11021811393D
libRbt.so/2013.1/901 2013/11/27
 42 45  0  0  0  0  0  0  0  0999 V2000
   -1.6288   -1.6822   25.7680 C   0  0  2  0  0  0  0  0  0  0  0  0
   -0.5257   -0.8618   26.2501 O   0  0  0  0  0  0  0  0  0  0  0  0
   -1.7615    1.6749   29.4562 C   0  0  2  0  0  0  0  0  0  0  0  0
   -2.0231    2.3189   30.7567 N   0  0  0  0  0  0  0  0  0  0  0  0
    2.1262    2.0107   26.7322 C   0  0  1  0  0  0  0  0  0  0  0  0
    4.3157    5.5788   25.3784 C   0  0  1  0  0  0  0  0  0  0  0  0
   -1.3132   -2.2999   24.3677 C   0  0  2  0  0  0  0  0  0  0  0  0
    0.0015   -2.9760   24.3637 N   0  0  0  0  0  0  0  0  0  0  0  0
   -2.2275    0.2062   29.5083 C   0  0  0  0  0  0  0  0  0  0  0  0
    2.0717    3.3455   27.4799 C   0  0  2  0  0  0  0  0  0  0  0  0
    0.9434    4.0976   27.0319 O   0  0  0  0  0  0  0  0  0  0  0  0
    4.5979    6.6083   26.5150 C   0  0  2  0  0  0  0  0  0  0  0  0
    3.3574    7.2098   27.0622 N   0  0  0  0  0  0  0  0  0  0  0  0
   -1.3639   -1.2077   23.2539 C   0  0  1  0  0  0  0  0  0  0  0  0
   -1.2323   -1.8097   21.9686 O   0  0  0  0  0  0  0  0  0  0  0  0
   -2.0065   -0.5288   28.1579 C   0  0  2  0  0  0  0  0  0  0  0  0
   -2.4080   -1.9391   28.3406 N   0  0  0  0  0  0  0  0  0  0  0  0
    3.3852    4.0018   27.0461 C   0  0  2  0  0  0  0  0  0  0  0  0
    3.2608    4.6544   25.7518 O   0  0  0  0  0  0  0  0  0  0  0  0
    5.5967    7.7060   26.0349 C   0  0  1  0  0  0  0  0  0  0  0  0
    6.8987    7.1301   25.9534 O   0  0  0  0  0  0  0  0  0  0  0  0
   -2.6908   -0.4088   23.2902 C   0  0  2  0  0  0  0  0  0  0  0  0
   -2.6361    0.6281   22.3152 O   0  0  0  0  0  0  0  0  0  0  0  0
   -0.5287   -0.4157   27.6367 C   0  0  2  0  0  0  0  0  0  0  0  0
    4.3320    2.7971   26.9543 C   0  0  2  0  0  0  0  0  0  0  0  0
    3.5133    1.6795   26.5587 O   0  0  0  0  0  0  0  0  0  0  0  0
    5.2474    8.3206   24.6456 C   0  0  2  0  0  0  0  0  0  0  0  0
    4.1139    9.1763   24.7995 O   0  0  0  0  0  0  0  0  0  0  0  0
   -2.9254    0.1849   24.7082 C   0  0  2  0  0  0  0  0  0  0  0  0
   -2.8616   -0.8900   25.6932 O   0  0  0  0  0  0  0  0  0  0  0  0
    0.0363    1.0489   27.7130 C   0  0  2  0  0  0  0  0  0  0  0  0
    1.4757    0.9871   27.5378 O   0  0  0  0  0  0  0  0  0  0  0  0
    5.0441    2.4871   28.2831 C   0  0  0  0  0  0  0  0  0  0  0  0
    6.3528    1.9955   28.0521 O   0  0  0  0  0  0  0  0  0  0  0  0
    4.9387    7.1992   23.6056 C   0  0  1  0  0  0  0  0  0  0  0  0
    3.9361    6.2878   24.1502 O   0  0  0  0  0  0  0  0  0  0  0  0
   -4.2906    0.8818   24.9020 C   0  0  0  0  0  0  0  0  0  0  0  0
   -4.2762    1.7373   26.0322 O   0  0  0  0  0  0  0  0  0  0  0  0
   -0.2629    1.7465   29.0762 C   0  0  1  0  0  0  0  0  0  0  0  0
    0.1328    3.1145   28.9886 O   0  0  0  0  0  0  0  0  0  0  0  0
    4.4298    7.7612   22.2534 C   0  0  0  0  0  0  0  0  0  0  0  0
    3.0117    7.4418   22.0087 N   0  0  0  0  0  0  0  0  0  0  0  0
  1  2  1  6  0  0  0
  1  7  1  0  0  0  0
  1 30  1  0  0  0  0
  3  4  1  1  0  0  0
  3  9  1  0  0  0  0
  3 39  1  0  0  0  0
  5 10  1  0  0  0  0
  5 26  1  0  0  0  0
  5 32  1  1  0  0  0
  6 12  1  0  0  0  0
  6 36  1  0  0  0  0
  6 19  1  1  0  0  0
  7  8  1  1  0  0  0
  7 14  1  0  0  0  0
  9 16  1  0  0  0  0
 10 11  1  6  0  0  0
 10 18  1  0  0  0  0
 12 13  1  6  0  0  0
 12 20  1  0  0  0  0
 14 15  1  6  0  0  0
 14 22  1  0  0  0  0
 16 17  1  1  0  0  0
 16 24  1  0  0  0  0
 18 19  1  6  0  0  0
 18 25  1  0  0  0  0
 20 21  1  6  0  0  0
 20 27  1  0  0  0  0
 22 23  1  6  0  0  0
 22 29  1  0  0  0  0
 24  2  1  6  0  0  0
 24 31  1  0  0  0  0
 25 26  1  0  0  0  0
 25 33  1  1  0  0  0
 27 28  1  1  0  0  0
 27 35  1  0  0  0  0
 29 30  1  0  0  0  0
 29 37  1  6  0  0  0
 31 32  1  1  0  0  0
 31 39  1  0  0  0  0
 33 34  1  0  0  0  0
 35 36  1  0  0  0  0
 35 41  1  6  0  0  0
 37 38  1  0  0  0  0
 39 40  1  6  0  0  0
 41 42  1  0  0  0  0
M  END
>  <CHROM.1>
-168.35852935,-19.56913654,169.08651642,88.73890871,175.29102231,65.01679879
64.13052431,-106.66849177,165.43404649,-50.09748187,-68.82909991,35.47966363
-145.92930826,62.32331654,-161.82204495,140.09402060,69.65848240,-167.86774227
-111.27336698,-175.49026137,-52.51542356,-53.49364405,1.09702844,2.56533640
26.09148846,2.90985114,0.79947164,1.80483798

>  <Name>
1fyp_lig

>  <RI>
0

>  <Rbt.Current_Directory>
/home/itssahil/PROJECTS/Mol_Feturizer/New_Systems/rnas/1fyp

>  <Rbt.Executable>
rbdock ($Id: //depot/dev/client3/rdock/2013.1/src/exe/rbdock.cxx#4 $)

>  <Rbt.Library>
libRbt.so (2013.1, Build901 2013/11/27)

>  <Rbt.Parameter_File>
/export/apps/rDock/src/rDock_2013.1_src/data/scripts/dock_solv.prm

>  <Rbt.Receptor>
prm/blind_docking_40.prm

>  <SCORE>
-30.801

>  <SCORE.INTER>
-38.2368

>  <SCORE.INTER.CONST>
1

>  <SCORE.INTER.POLAR>
-6.73291

>  <SCORE.INTER.ROT>
14

>  <SCORE.INTER.SOLV>
22.273

>  <SCORE.INTER.VDW>
-23.4058

>  <SCORE.INTER.norm>
-0.910399

>  <SCORE.INTRA>
7.43572

>  <SCORE.INTRA.DIHEDRAL>
-17.6561

>  <SCORE.INTRA.DIHEDRAL.0>
48.7173

>  <SCORE.INTRA.POLAR>
1.53554

>  <SCORE.INTRA.POLAR.0>
-1.54691

>  <SCORE.INTRA.REPUL>
0

>  <SCORE.INTRA.REPUL.0>
0

>  <SCORE.INTRA.SOLV>
-1.13855

>  <SCORE.INTRA.SOLV.lig_0>
-64.052

>  <SCORE.INTRA.VDW>
11.6122

>  <SCORE.INTRA.VDW.0>
-7.0667

>  <SCORE.INTRA.norm>
0.177041

>  <SCORE.RESTR>
0

>  <SCORE.RESTR.CAVITY>
0

>  <SCORE.RESTR.norm>
0

>  <SCORE.SYSTEM>
0

>  <SCORE.SYSTEM.CONST>
0

>  <SCORE.SYSTEM.DIHEDRAL>
0

>  <SCORE.SYSTEM.SOLV>
0

>  <SCORE.SYSTEM.norm>
0

>  <SCORE.heavy>
42

>  <SCORE.norm>
-0.733358

>  <RMSD>
10.410

$$$$
1fyp_lig
 OpenBabel11021811393D
libRbt.so/2013.1/901 2013/11/27
 42 45  0  0  0  0  0  0  0  0999 V2000
   -2.6898   -1.1251   25.8761 C   0  0  2  0  0  0  0  0  0  0  0  0
   -1.9716    0.0903   26.2358 O   0  0  0  0  0  0  0  0  0  0  0  0
   -1.7751    1.8973   30.1007 C   0  0  2  0  0  0  0  0  0  0  0  0
   -1.5059    2.2514   31.5066 N   0  0  0  0  0  0  0  0  0  0  0  0
    1.3476    2.7867   27.0562 C   0  0  1  0  0  0  0  0  0  0  0  0
    4.0536    5.7410   26.5900 C   0  0  1  0  0  0  0  0  0  0  0  0
   -1.7104   -2.3188   25.6357 C   0  0  2  0  0  0  0  0  0  0  0  0
   -0.7676   -2.4745   26.7638 N   0  0  0  0  0  0  0  0  0  0  0  0
   -2.3213    0.4573   30.0299 C   0  0  0  0  0  0  0  0  0  0  0  0
    2.6306    2.4897   27.8369 C   0  0  2  0  0  0  0  0  0  0  0  0
    2.4768    2.9213   29.1895 O   0  0  0  0  0  0  0  0  0  0  0  0
    4.0345    7.1653   27.2243 C   0  0  2  0  0  0  0  0  0  0  0  0
    2.7813    7.4430   27.9677 N   0  0  0  0  0  0  0  0  0  0  0  0
   -0.9281   -2.1355   24.2976 C   0  0  1  0  0  0  0  0  0  0  0  0
   -0.1600   -3.3021   24.0133 O   0  0  0  0  0  0  0  0  0  0  0  0
   -2.6537    0.0256   28.5754 C   0  0  2  0  0  0  0  0  0  0  0  0
   -3.0889   -1.3861   28.6118 N   0  0  0  0  0  0  0  0  0  0  0  0
    3.6566    3.3486   27.0924 C   0  0  2  0  0  0  0  0  0  0  0  0
    3.6320    4.7314   27.5438 O   0  0  0  0  0  0  0  0  0  0  0  0
    4.3079    8.2578   26.1451 C   0  0  1  0  0  0  0  0  0  0  0  0
    5.6886    8.2104   25.7915 O   0  0  0  0  0  0  0  0  0  0  0  0
   -1.8806   -1.8701   23.1049 C   0  0  2  0  0  0  0  0  0  0  0  0
   -1.1048   -1.6199   21.9369 O   0  0  0  0  0  0  0  0  0  0  0  0
   -1.4488    0.2295   27.5882 C   0  0  2  0  0  0  0  0  0  0  0  0
    3.1692    3.2460   25.6404 C   0  0  2  0  0  0  0  0  0  0  0  0
    1.7363    3.1136   25.7123 O   0  0  0  0  0  0  0  0  0  0  0  0
    3.4653    8.0922   24.8441 C   0  0  2  0  0  0  0  0  0  0  0  0
    2.1156    8.4650   25.1267 O   0  0  0  0  0  0  0  0  0  0  0  0
   -2.8098   -0.6621   23.4140 C   0  0  2  0  0  0  0  0  0  0  0  0
   -3.5033   -0.9027   24.6754 O   0  0  0  0  0  0  0  0  0  0  0  0
   -0.7655    1.6367   27.7393 C   0  0  2  0  0  0  0  0  0  0  0  0
    0.5096    1.5961   27.0474 O   0  0  0  0  0  0  0  0  0  0  0  0
    3.7738    2.0494   24.8845 C   0  0  0  0  0  0  0  0  0  0  0  0
    5.1887    2.0690   24.9569 O   0  0  0  0  0  0  0  0  0  0  0  0
    3.5216    6.6197   24.3314 C   0  0  1  0  0  0  0  0  0  0  0  0
    3.1710    5.7085   25.4173 O   0  0  0  0  0  0  0  0  0  0  0  0
   -3.9010   -0.3950   22.3534 C   0  0  0  0  0  0  0  0  0  0  0  0
   -4.7853   -1.4966   22.2356 O   0  0  0  0  0  0  0  0  0  0  0  0
   -0.5048    2.0302   29.2265 C   0  0  1  0  0  0  0  0  0  0  0  0
   -0.0455    3.3803   29.2706 O   0  0  0  0  0  0  0  0  0  0  0  0
    2.5715    6.3671   23.1328 C   0  0  0  0  0  0  0  0  0  0  0  0
    2.5236    7.5089   22.2017 N   0  0  0  0  0  0  0  0  0  0  0  0
  1  2  1  6  0  0  0
  1  7  1  0  0  0  0
  1 30  1  0  0  0  0
  3  4  1  1  0  0  0
  3  9  1  0  0  0  0
  3 39  1  0  0  0  0
  5 10  1  0  0  0  0
  5 26  1  0  0  0  0
  5 32  1  6  0  0  0
  6 12  1  0  0  0  0
  6 36  1  0  0  0  0
  6 19  1  1  0  0  0
  7  8  1  1  0  0  0
  7 14  1  0  0  0  0
  9 16  1  0  0  0  0
 10 11  1  1  0  0  0
 10 18  1  0  0  0  0
 12 13  1  6  0  0  0
 12 20  1  0  0  0  0
 14 15  1  6  0  0  0
 14 22  1  0  0  0  0
 16 17  1  1  0  0  0
 16 24  1  0  0  0  0
 18 19  1  1  0  0  0
 18 25  1  0  0  0  0
 20 21  1  6  0  0  0
 20 27  1  0  0  0  0
 22 23  1  6  0  0  0
 22 29  1  0  0  0  0
 24  2  1  6  0  0  0
 24 31  1  0  0  0  0
 25 26  1  0  0  0  0
 25 33  1  1  0  0  0
 27 28  1  1  0  0  0
 27 35  1  0  0  0  0
 29 30  1  0  0  0  0
 29 37  1  6  0  0  0
 31 32  1  6  0  0  0
 31 39  1  0  0  0  0
 33 34  1  0  0  0  0
 35 36  1  0  0  0  0
 35 41  1  6  0  0  0
 37 38  1  0  0  0  0
 39 40  1  6  0  0  0
 41 42  1  0  0  0  0
M  END
>  <CHROM.1>
-76.69640393,-55.33250027,-54.82014146,-177.17104225,-64.33991463,174.67477333
-80.44447587,133.78661946,-152.77538505,-177.61046775,-149.19011050,-82.83536220
-53.94119521,39.04769567,61.76917344,-179.28614606,114.34313752,-73.81426657
37.98222589,58.48286350,52.78243261,-125.51718609,0.62984051,2.39545042,26.14368154
2.96380871,-0.90827850,-1.73629868

>  <Name>
1fyp_lig

>  <RI>
0

>  <Rbt.Current_Directory>
/home/itssahil/PROJECTS/Mol_Feturizer/New_Systems/rnas/1fyp

>  <Rbt.Executable>
rbdock ($Id: //depot/dev/client3/rdock/2013.1/src/exe/rbdock.cxx#4 $)

>  <Rbt.Library>
libRbt.so (2013.1, Build901 2013/11/27)

>  <Rbt.Parameter_File>
/export/apps/rDock/src/rDock_2013.1_src/data/scripts/dock_solv.prm

>  <Rbt.Receptor>
prm/pocket_docking_8.prm

>  <SCORE>
-43.3572

>  <SCORE.INTER>
-43.2908

>  <SCORE.INTER.CONST>
1

>  <SCORE.INTER.POLAR>
-5.34528

>  <SCORE.INTER.ROT>
14

>  <SCORE.INTER.SOLV>
20.033

>  <SCORE.INTER.VDW>
-30.654

>  <SCORE.INTER.norm>
-1.03073

>  <SCORE.INTRA>
-0.227867

>  <SCORE.INTRA.DIHEDRAL>
-19.3029

>  <SCORE.INTRA.DIHEDRAL.0>
48.7173

>  <SCORE.INTRA.POLAR>
0.235962

>  <SCORE.INTRA.POLAR.0>
-1.54691

>  <SCORE.INTRA.REPUL>
0.00709828

>  <SCORE.INTRA.REPUL.0>
0

>  <SCORE.INTRA.SOLV>
0.101911

>  <SCORE.INTRA.SOLV.lig_0>
-64.052

>  <SCORE.INTRA.VDW>
8.53488

>  <SCORE.INTRA.VDW.0>
-7.0667

>  <SCORE.INTRA.norm>
-0.0054254

>  <SCORE.RESTR>
0.161485

>  <SCORE.RESTR.CAVITY>
0.161485

>  <SCORE.RESTR.norm>
0.00384488

>  <SCORE.SYSTEM>
0

>  <SCORE.SYSTEM.CONST>
0

>  <SCORE.SYSTEM.DIHEDRAL>
0

>  <SCORE.SYSTEM.SOLV>
0

>  <SCORE.SYSTEM.norm>
0

>  <SCORE.heavy>
42

>  <SCORE.norm>
-1.03231

>  <RMSD>
10.469

$$$$
1fyp_lig
 OpenBabel11021811393D
libRbt.so/2013.1/901 2013/11/27
 42 45  0  0  0  0  0  0  0  0999 V2000
   -2.6862   -1.8057   27.0684 C   0  0  2  0  0  0  0  0  0  0  0  0
   -2.6293   -0.4024   27.4554 O   0  0  0  0  0  0  0  0  0  0  0  0
   -1.7798    2.2497   30.6936 C   0  0  2  0  0  0  0  0  0  0  0  0
   -1.3448    2.8845   31.9514 N   0  0  0  0  0  0  0  0  0  0  0  0
    1.0907    1.6002   27.2045 C   0  0  1  0  0  0  0  0  0  0  0  0
    2.8066    4.1197   25.7758 C   0  0  1  0  0  0  0  0  0  0  0  0
   -1.5154   -2.1815   26.1040 C   0  0  2  0  0  0  0  0  0  0  0  0
   -0.2114   -1.7479   26.6492 N   0  0  0  0  0  0  0  0  0  0  0  0
   -2.6316    1.0054   31.0148 C   0  0  0  0  0  0  0  0  0  0  0  0
    2.2993    0.8394   26.6529 C   0  0  2  0  0  0  0  0  0  0  0  0
    3.3539    0.8564   27.6157 O   0  0  0  0  0  0  0  0  0  0  0  0
    3.6015    5.1730   24.9453 C   0  0  2  0  0  0  0  0  0  0  0  0
    5.0506    5.1752   25.2622 N   0  0  0  0  0  0  0  0  0  0  0  0
   -1.7420   -1.5658   24.6878 C   0  0  1  0  0  0  0  0  0  0  0  0
   -0.7540   -2.0455   23.7793 O   0  0  0  0  0  0  0  0  0  0  0  0
   -3.1486    0.2996   29.7315 C   0  0  2  0  0  0  0  0  0  0  0  0
   -3.8788   -0.9158   30.1477 N   0  0  0  0  0  0  0  0  0  0  0  0
    2.6586    1.6732   25.4200 C   0  0  2  0  0  0  0  0  0  0  0  0
    3.4706    2.8291   25.7680 O   0  0  0  0  0  0  0  0  0  0  0  0
    2.9822    6.5948   25.1125 C   0  0  1  0  0  0  0  0  0  0  0  0
    1.7567    6.6439   24.3849 O   0  0  0  0  0  0  0  0  0  0  0  0
   -3.1417   -1.9170   24.1241 C   0  0  2  0  0  0  0  0  0  0  0  0
   -3.3213   -1.2517   22.8775 O   0  0  0  0  0  0  0  0  0  0  0  0
   -1.9981   -0.0412   28.7173 C   0  0  2  0  0  0  0  0  0  0  0  0
    1.2774    2.1156   24.9170 C   0  0  2  0  0  0  0  0  0  0  0  0
    0.4511    2.2431   26.0903 O   0  0  0  0  0  0  0  0  0  0  0  0
    2.6878    6.9909   26.5911 C   0  0  2  0  0  0  0  0  0  0  0  0
    3.9285    7.2672   27.2429 O   0  0  0  0  0  0  0  0  0  0  0  0
   -4.2503   -1.5000   25.1318 C   0  0  2  0  0  0  0  0  0  0  0  0
   -3.9714   -2.1087   26.4285 O   0  0  0  0  0  0  0  0  0  0  0  0
   -1.0146    1.1618   28.4813 C   0  0  2  0  0  0  0  0  0  0  0  0
    0.1707    0.6521   27.8167 O   0  0  0  0  0  0  0  0  0  0  0  0
    0.6461    1.1164   23.9312 C   0  0  0  0  0  0  0  0  0  0  0  0
    0.9572   -0.2171   24.2952 O   0  0  0  0  0  0  0  0  0  0  0  0
    1.9335    5.8436   27.3322 C   0  0  1  0  0  0  0  0  0  0  0  0
    2.6588    4.5880   27.1594 O   0  0  0  0  0  0  0  0  0  0  0  0
   -5.6804   -1.9326   24.7386 C   0  0  0  0  0  0  0  0  0  0  0  0
   -6.6315   -1.4966   25.6950 O   0  0  0  0  0  0  0  0  0  0  0  0
   -0.5737    1.8566   29.8070 C   0  0  1  0  0  0  0  0  0  0  0  0
    0.1721    3.0295   29.4847 O   0  0  0  0  0  0  0  0  0  0  0  0
    1.7601    6.1230   28.8472 C   0  0  0  0  0  0  0  0  0  0  0  0
    0.9083    7.2971   29.1095 N   0  0  0  0  0  0  0  0  0  0  0  0
  1  2  1  6  0  0  0
  1  7  1  0  0  0  0
  1 30  1  0  0  0  0
  3  4  1  1  0  0  0
  3  9  1  0  0  0  0
  3 39  1  0  0  0  0
  5 10  1  0  0  0  0
  5 26  1  0  0  0  0
  5 32  1  6  0  0  0
  6 12  1  0  0  0  0
  6 36  1  0  0  0  0
  6 19  1  1  0  0  0
  7  8  1  1  0  0  0
  7 14  1  0  0  0  0
  9 16  1  0  0  0  0
 10 11  1  1  0  0  0
 10 18  1  0  0  0  0
 12 13  1  1  0  0  0
 12 20  1  0  0  0  0
 14 15  1  6  0  0  0
 14 22  1  0  0  0  0
 16 17  1  1  0  0  0
 16 24  1  0  0  0  0
 18 19  1  1  0  0  0
 18 25  1  0  0  0  0
 20 21  1  6  0  0  0
 20 27  1  0  0  0  0
 22 23  1  6  0  0  0
 22 29  1  0  0  0  0
 24  2  1  6  0  0  0
 24 31  1  0  0  0  0
 25 26  1  0  0  0  0
 25 33  1  6  0  0  0
 27 28  1  1  0  0  0
 27 35  1  0  0  0  0
 29 30  1  0  0  0  0
 29 37  1  6  0  0  0
 31 32  1  1  0  0  0
 31 39  1  0  0  0  0
 33 34  1  0  0  0  0
 35 36  1  0  0  0  0
 35 41  1  1  0  0  0
 37 38  1  0  0  0  0
 39 40  1  6  0  0  0
 41 42  1  0  0  0  0
M  END
>  <CHROM.1>
-96.47364503,-104.42983337,166.73983446,-48.03500809,-66.66476470,27.26917187
-171.35159833,-54.20480718,-104.30397030,-129.56326425,-65.10854758,66.97302158
36.31745823,-50.93332695,-179.04176360,165.61416190,176.29569697,68.26181584
64.34428522,-171.10786283,66.22868991,3.90833945,-0.14005241,1.69901567,26.80226023
2.71561668,-0.73921417,-2.10612760

>  <Name>
1fyp_lig

>  <RI>
0

>  <Rbt.Current_Directory>
/home/itssahil/PROJECTS/Mol_Feturizer/New_Systems/rnas/1fyp

>  <Rbt.Executable>
rbdock ($Id: //depot/dev/client3/rdock/2013.1/src/exe/rbdock.cxx#4 $)

>  <Rbt.Library>
libRbt.so (2013.1, Build901 2013/11/27)

>  <Rbt.Parameter_File>
/export/apps/rDock/src/rDock_2013.1_src/data/scripts/dock_solv.prm

>  <Rbt.Receptor>
prm/pocket_docking_5.prm

>  <SCORE>
-37.5836

>  <SCORE.INTER>
-30.9024

>  <SCORE.INTER.CONST>
1

>  <SCORE.INTER.POLAR>
-3.3232

>  <SCORE.INTER.ROT>
14

>  <SCORE.INTER.SOLV>
18.9383

>  <SCORE.INTER.VDW>
-28.7704

>  <SCORE.INTER.norm>
-0.735771

>  <SCORE.INTRA>
-7.26527

>  <SCORE.INTRA.DIHEDRAL>
-15.2303

>  <SCORE.INTRA.DIHEDRAL.0>
48.7173

>  <SCORE.INTRA.POLAR>
-1.19866

>  <SCORE.INTRA.POLAR.0>
-1.54691

>  <SCORE.INTRA.REPUL>
0

>  <SCORE.INTRA.REPUL.0>
0

>  <SCORE.INTRA.SOLV>
0.925684

>  <SCORE.INTRA.SOLV.lig_0>
-64.052

>  <SCORE.INTRA.VDW>
3.96248

>  <SCORE.INTRA.VDW.0>
-7.0667

>  <SCORE.INTRA.norm>
-0.172983

>  <SCORE.RESTR>
0.5841

>  <SCORE.RESTR.CAVITY>
0.5841

>  <SCORE.RESTR.norm>
0.0139072

>  <SCORE.SYSTEM>
0

>  <SCORE.SYSTEM.CONST>
0

>  <SCORE.SYSTEM.DIHEDRAL>
0

>  <SCORE.SYSTEM.SOLV>
0

>  <SCORE.SYSTEM.norm>
0

>  <SCORE.heavy>
42

>  <SCORE.norm>
-0.894847

>  <RMSD>
10.498

$$$$
1fyp_lig
 OpenBabel11021811393D
libRbt.so/2013.1/901 2013/11/27
 42 45  0  0  0  0  0  0  0  0999 V2000
   -2.8969   -0.7307   26.4732 C   0  0  2  0  0  0  0  0  0  0  0  0
   -2.1415    0.3477   27.0966 O   0  0  0  0  0  0  0  0  0  0  0  0
   -2.6233    1.6674   31.1299 C   0  0  2  0  0  0  0  0  0  0  0  0
   -2.6152    1.8352   32.5949 N   0  0  0  0  0  0  0  0  0  0  0  0
    0.6957    2.7092   27.7452 C   0  0  1  0  0  0  0  0  0  0  0  0
    2.4239    6.6188   26.5437 C   0  0  1  0  0  0  0  0  0  0  0  0
   -2.0125   -2.0018   26.2628 C   0  0  2  0  0  0  0  0  0  0  0  0
   -1.3152   -2.3823   27.5097 N   0  0  0  0  0  0  0  0  0  0  0  0
   -3.1960    0.2805   30.7757 C   0  0  0  0  0  0  0  0  0  0  0  0
    0.6660    3.9840   28.5924 C   0  0  2  0  0  0  0  0  0  0  0  0
   -0.5400    4.7028   28.3306 O   0  0  0  0  0  0  0  0  0  0  0  0
    2.3584    6.9876   25.0301 C   0  0  2  0  0  0  0  0  0  0  0  0
    2.5145    5.8061   24.1468 N   0  0  0  0  0  0  0  0  0  0  0  0
   -0.9815   -1.7778   25.1126 C   0  0  1  0  0  0  0  0  0  0  0  0
   -0.2929   -2.9925   24.8261 O   0  0  0  0  0  0  0  0  0  0  0  0
   -3.2596    0.0451   29.2417 C   0  0  2  0  0  0  0  0  0  0  0  0
   -3.7429   -1.3330   29.0161 N   0  0  0  0  0  0  0  0  0  0  0  0
    1.8891    4.7394   28.0654 C   0  0  2  0  0  0  0  0  0  0  0  0
    1.5865    5.4724   26.8457 O   0  0  0  0  0  0  0  0  0  0  0  0
    3.3987    8.0968   24.6829 C   0  0  1  0  0  0  0  0  0  0  0  0
    2.9349    9.3359   25.2150 O   0  0  0  0  0  0  0  0  0  0  0  0
   -1.6656   -1.2813   23.8142 C   0  0  2  0  0  0  0  0  0  0  0  0
   -0.6659   -1.0077   22.8373 O   0  0  0  0  0  0  0  0  0  0  0  0
   -1.8820    0.2941   28.5288 C   0  0  2  0  0  0  0  0  0  0  0  0
    2.8737    3.5972   27.7784 C   0  0  2  0  0  0  0  0  0  0  0  0
    2.0674    2.4669   27.3937 O   0  0  0  0  0  0  0  0  0  0  0  0
    4.8272    7.8283   25.2461 C   0  0  2  0  0  0  0  0  0  0  0  0
    5.4287    6.7838   24.4794 O   0  0  0  0  0  0  0  0  0  0  0  0
   -2.5122   -0.0091   24.1022 C   0  0  2  0  0  0  0  0  0  0  0  0
   -3.4478   -0.2923   25.1858 O   0  0  0  0  0  0  0  0  0  0  0  0
   -1.1913    1.6309   28.9826 C   0  0  2  0  0  0  0  0  0  0  0  0
    0.1903    1.5984   28.5391 O   0  0  0  0  0  0  0  0  0  0  0  0
    3.7475    3.2351   28.9925 C   0  0  0  0  0  0  0  0  0  0  0  0
    4.8041    2.3701   28.6143 O   0  0  0  0  0  0  0  0  0  0  0  0
    4.7621    7.4228   26.7513 C   0  0  1  0  0  0  0  0  0  0  0  0
    3.8118    6.3275   26.9235 O   0  0  0  0  0  0  0  0  0  0  0  0
   -3.3562    0.4923   22.9090 C   0  0  0  0  0  0  0  0  0  0  0  0
   -4.2882   -0.4897   22.4889 O   0  0  0  0  0  0  0  0  0  0  0  0
   -1.2056    1.8286   30.5302 C   0  0  1  0  0  0  0  0  0  0  0  0
   -0.7161    3.1347   30.8309 O   0  0  0  0  0  0  0  0  0  0  0  0
    6.1401    6.9899   27.3142 C   0  0  0  0  0  0  0  0  0  0  0  0
    6.6913    5.8162   26.6131 N   0  0  0  0  0  0  0  0  0  0  0  0
  1  2  1  6  0  0  0
  1  7  1  0  0  0  0
  1 30  1  0  0  0  0
  3  4  1  1  0  0  0
  3  9  1  0  0  0  0
  3 39  1  0  0  0  0
  5 10  1  0  0  0  0
  5 26  1  0  0  0  0
  5 32  1  1  0  0  0
  6 12  1  0  0  0  0
  6 36  1  0  0  0  0
  6 19  1  6  0  0  0
  7  8  1  1  0  0  0
  7 14  1  0  0  0  0
  9 16  1  0  0  0  0
 10 11  1  6  0  0  0
 10 18  1  0  0  0  0
 12 13  1  6  0  0  0
 12 20  1  0  0  0  0
 14 15  1  6  0  0  0
 14 22  1  0  0  0  0
 16 17  1  1  0  0  0
 16 24  1  0  0  0  0
 18 19  1  6  0  0  0
 18 25  1  0  0  0  0
 20 21  1  1  0  0  0
 20 27  1  0  0  0  0
 22 23  1  6  0  0  0
 22 29  1  0  0  0  0
 24  2  1  6  0  0  0
 24 31  1  0  0  0  0
 25 26  1  0  0  0  0
 25 33  1  1  0  0  0
 27 28  1  6  0  0  0
 27 35  1  0  0  0  0
 29 30  1  0  0  0  0
 29 37  1  6  0  0  0
 31 32  1  1  0  0  0
 31 39  1  0  0  0  0
 33 34  1  0  0  0  0
 35 36  1  0  0  0  0
 35 41  1  6  0  0  0
 37 38  1  0  0  0  0
 39 40  1  6  0  0  0
 41 42  1  0  0  0  0
M  END
>  <CHROM.1>
-77.46936050,-51.34184257,-168.92922981,-60.47730887,-74.22159359,-167.70153896
-51.14462278,-42.03906967,155.62202984,159.29450106,58.56429516,-167.24389554
-168.64382254,63.66930031,60.51650933,126.40234716,64.02763692,-176.71109138
-60.87979772,-61.71137057,-63.42222782,46.83571020,0.43020522,2.61368262
26.97542411,-3.04849399,0.83475030,1.37310949

>  <Name>
1fyp_lig

>  <RI>
0

>  <Rbt.Current_Directory>
/home/itssahil/PROJECTS/Mol_Feturizer/New_Systems/rnas/1fyp

>  <Rbt.Executable>
rbdock ($Id: //depot/dev/client3/rdock/2013.1/src/exe/rbdock.cxx#4 $)

>  <Rbt.Library>
libRbt.so (2013.1, Build901 2013/11/27)

>  <Rbt.Parameter_File>
/export/apps/rDock/src/rDock_2013.1_src/data/scripts/dock_solv.prm

>  <Rbt.Receptor>
prm/blind_docking_60.prm

>  <SCORE>
-45.5318

>  <SCORE.INTER>
-33.9665

>  <SCORE.INTER.CONST>
1

>  <SCORE.INTER.POLAR>
-3.39779

>  <SCORE.INTER.ROT>
14

>  <SCORE.INTER.SOLV>
17.3914

>  <SCORE.INTER.VDW>
-30.0489

>  <SCORE.INTER.norm>
-0.808727

>  <SCORE.INTRA>
-11.5983

>  <SCORE.INTRA.DIHEDRAL>
-31.2481

>  <SCORE.INTRA.DIHEDRAL.0>
48.7173

>  <SCORE.INTRA.POLAR>
-0.23674

>  <SCORE.INTRA.POLAR.0>
-1.54691

>  <SCORE.INTRA.REPUL>
0

>  <SCORE.INTRA.REPUL.0>
0

>  <SCORE.INTRA.SOLV>
-0.00477629

>  <SCORE.INTRA.SOLV.lig_0>
-64.052

>  <SCORE.INTRA.VDW>
4.83309

>  <SCORE.INTRA.VDW.0>
-7.0667

>  <SCORE.INTRA.norm>
-0.276149

>  <SCORE.RESTR>
0.0330309

>  <SCORE.RESTR.CAVITY>
0.0330309

>  <SCORE.RESTR.norm>
0.000786449

>  <SCORE.SYSTEM>
0

>  <SCORE.SYSTEM.CONST>
0

>  <SCORE.SYSTEM.DIHEDRAL>
0

>  <SCORE.SYSTEM.SOLV>
0

>  <SCORE.SYSTEM.norm>
0

>  <SCORE.heavy>
42

>  <SCORE.norm>
-1.08409

>  <RMSD>
10.514

$$$$
1fyp_lig
 OpenBabel11021811393D
libRbt.so/2013.1/901 2013/11/27
 42 45  0  0  0  0  0  0  0  0999 V2000
   -1.3452   -1.2055   26.1140 C   0  0  2  0  0  0  0  0  0  0  0  0
   -1.4385    0.1233   26.7038 O   0  0  0  0  0  0  0  0  0  0  0  0
   -1.9785    2.0370   30.4836 C   0  0  2  0  0  0  0  0  0  0  0  0
   -1.9966    2.4217   31.9070 N   0  0  0  0  0  0  0  0  0  0  0  0
    1.4203    2.5126   27.0474 C   0  0  1  0  0  0  0  0  0  0  0  0
    3.0287    6.4051   25.6379 C   0  0  1  0  0  0  0  0  0  0  0  0
   -0.4097   -1.2118   24.8623 C   0  0  2  0  0  0  0  0  0  0  0  0
    0.8933   -0.5815   25.1635 N   0  0  0  0  0  0  0  0  0  0  0  0
   -2.5663    0.6202   30.3277 C   0  0  0  0  0  0  0  0  0  0  0  0
    1.6859    3.8322   27.7766 C   0  0  2  0  0  0  0  0  0  0  0  0
    0.5655    4.7023   27.6120 O   0  0  0  0  0  0  0  0  0  0  0  0
    2.9301    6.8681   24.1523 C   0  0  2  0  0  0  0  0  0  0  0  0
    3.4630    5.8604   23.2031 N   0  0  0  0  0  0  0  0  0  0  0  0
   -1.0915   -0.4955   23.6548 C   0  0  1  0  0  0  0  0  0  0  0  0
   -0.2975   -0.6475   22.4808 O   0  0  0  0  0  0  0  0  0  0  0  0
   -2.6034    0.1592   28.8450 C   0  0  2  0  0  0  0  0  0  0  0  0
   -3.1042   -1.2308   28.8169 N   0  0  0  0  0  0  0  0  0  0  0  0
    2.9145    4.3607   27.0312 C   0  0  2  0  0  0  0  0  0  0  0  0
    2.5464    5.0460   25.8018 O   0  0  0  0  0  0  0  0  0  0  0  0
    3.6192    8.2534   23.9550 C   0  0  1  0  0  0  0  0  0  0  0  0
    2.7918    9.2584   24.5373 O   0  0  0  0  0  0  0  0  0  0  0  0
   -2.5046   -1.0636   23.3708 C   0  0  2  0  0  0  0  0  0  0  0  0
   -3.1073   -0.3092   22.3237 O   0  0  0  0  0  0  0  0  0  0  0  0
   -1.2081    0.2810   28.1333 C   0  0  2  0  0  0  0  0  0  0  0  0
    3.6824    3.0685   26.7196 C   0  0  2  0  0  0  0  0  0  0  0  0
    2.6822    2.0465   26.5432 O   0  0  0  0  0  0  0  0  0  0  0  0
    5.0362    8.3564   24.5964 C   0  0  2  0  0  0  0  0  0  0  0  0
    5.9499    7.5966   23.8036 O   0  0  0  0  0  0  0  0  0  0  0  0
   -3.3772   -1.0093   24.6568 C   0  0  2  0  0  0  0  0  0  0  0  0
   -2.6771   -1.6939   25.7390 O   0  0  0  0  0  0  0  0  0  0  0  0
   -0.5051    1.6616   28.3976 C   0  0  2  0  0  0  0  0  0  0  0  0
    0.8842    1.5452   27.9944 O   0  0  0  0  0  0  0  0  0  0  0  0
    4.6607    2.6641   27.8368 C   0  0  0  0  0  0  0  0  0  0  0  0
    5.5179    3.7414   28.1718 O   0  0  0  0  0  0  0  0  0  0  0  0
    5.0211    7.8219   26.0621 C   0  0  1  0  0  0  0  0  0  0  0  0
    4.4221    6.4904   26.0925 O   0  0  0  0  0  0  0  0  0  0  0  0
   -4.7618   -1.6830   24.5301 C   0  0  0  0  0  0  0  0  0  0  0  0
   -5.5241   -1.5198   25.7140 O   0  0  0  0  0  0  0  0  0  0  0  0
   -0.5468    2.0885   29.8978 C   0  0  1  0  0  0  0  0  0  0  0  0
   -0.0425    3.4183   30.0110 O   0  0  0  0  0  0  0  0  0  0  0  0
    6.4375    7.7535   26.6884 C   0  0  0  0  0  0  0  0  0  0  0  0
    7.3030    6.7668   26.0173 N   0  0  0  0  0  0  0  0  0  0  0  0
  1  2  1  6  0  0  0
  1  7  1  0  0  0  0
  1 30  1  0  0  0  0
  3  4  1  1  0  0  0
  3  9  1  0  0  0  0
  3 39  1  0  0  0  0
  5 10  1  0  0  0  0
  5 26  1  0  0  0  0
  5 32  1  1  0  0  0
  6 12  1  0  0  0  0
  6 36  1  0  0  0  0
  6 19  1  6  0  0  0
  7  8  1  1  0  0  0
  7 14  1  0  0  0  0
  9 16  1  0  0  0  0
 10 11  1  6  0  0  0
 10 18  1  0  0  0  0
 12 13  1  6  0  0  0
 12 20  1  0  0  0  0
 14 15  1  6  0  0  0
 14 22  1  0  0  0  0
 16 17  1  1  0  0  0
 16 24  1  0  0  0  0
 18 19  1  6  0  0  0
 18 25  1  0  0  0  0
 20 21  1  1  0  0  0
 20 27  1  0  0  0  0
 22 23  1  6  0  0  0
 22 29  1  0  0  0  0
 24  2  1  6  0  0  0
 24 31  1  0  0  0  0
 25 26  1  0  0  0  0
 25 33  1  1  0  0  0
 27 28  1  6  0  0  0
 27 35  1  0  0  0  0
 29 30  1  0  0  0  0
 29 37  1  6  0  0  0
 31 32  1  1  0  0  0
 31 39  1  0  0  0  0
 33 34  1  0  0  0  0
 35 36  1  0  0  0  0
 35 41  1  6  0  0  0
 37 38  1  0  0  0  0
 39 40  1  6  0  0  0
 41 42  1  0  0  0  0
M  END
>  <CHROM.1>
-129.18861614,-91.77197104,-44.03919470,177.83680706,53.76310308,156.43624533
-171.27825370,65.62288261,125.16262348,163.46785774,-171.28402278,-176.82340882
-52.35783211,-177.30369474,-176.44038702,125.96372083,76.59716155,76.63898952
-65.65797218,-172.66661170,-44.50887828,-15.98466770,0.87130526,2.74991243
26.39191564,-3.13355625,0.79841787,1.45199769

>  <Name>
1fyp_lig

>  <RI>
0

>  <Rbt.Current_Directory>
/home/itssahil/PROJECTS/Mol_Feturizer/New_Systems/rnas/1fyp

>  <Rbt.Executable>
rbdock ($Id: //depot/dev/client3/rdock/2013.1/src/exe/rbdock.cxx#4 $)

>  <Rbt.Library>
libRbt.so (2013.1, Build901 2013/11/27)

>  <Rbt.Parameter_File>
/export/apps/rDock/src/rDock_2013.1_src/data/scripts/dock_solv.prm

>  <Rbt.Receptor>
prm/blind_docking_40.prm

>  <SCORE>
-45.7276

>  <SCORE.INTER>
-40.7486

>  <SCORE.INTER.CONST>
1

>  <SCORE.INTER.POLAR>
-5.83798

>  <SCORE.INTER.ROT>
14

>  <SCORE.INTER.SOLV>
15.9805

>  <SCORE.INTER.VDW>
-25.966

>  <SCORE.INTER.norm>
-0.970205

>  <SCORE.INTRA>
-4.97902

>  <SCORE.INTRA.DIHEDRAL>
-13.7152

>  <SCORE.INTRA.DIHEDRAL.0>
48.7173

>  <SCORE.INTRA.POLAR>
-0.321073

>  <SCORE.INTRA.POLAR.0>
-1.54691

>  <SCORE.INTRA.REPUL>
0

>  <SCORE.INTRA.REPUL.0>
0

>  <SCORE.INTRA.SOLV>
-0.24814

>  <SCORE.INTRA.SOLV.lig_0>
-64.052

>  <SCORE.INTRA.VDW>
3.09428

>  <SCORE.INTRA.VDW.0>
-7.0667

>  <SCORE.INTRA.norm>
-0.118548

>  <SCORE.RESTR>
0

>  <SCORE.RESTR.CAVITY>
0

>  <SCORE.RESTR.norm>
0

>  <SCORE.SYSTEM>
0

>  <SCORE.SYSTEM.CONST>
0

>  <SCORE.SYSTEM.DIHEDRAL>
0

>  <SCORE.SYSTEM.SOLV>
0

>  <SCORE.SYSTEM.norm>
0

>  <SCORE.heavy>
42

>  <SCORE.norm>
-1.08875

>  <RMSD>
10.525

$$$$
1fyp_lig
 OpenBabel11021811393D
libRbt.so/2013.1/901 2013/11/27
 42 45  0  0  0  0  0  0  0  0999 V2000
   -2.0182    0.7143   25.5637 C   0  0  2  0  0  0  0  0  0  0  0  0
   -2.7311    0.2292   26.7379 O   0  0  0  0  0  0  0  0  0  0  0  0
   -1.9577    1.4766   30.7487 C   0  0  2  0  0  0  0  0  0  0  0  0
   -1.4937    1.6250   32.1405 N   0  0  0  0  0  0  0  0  0  0  0  0
    0.6582    2.7806   27.2944 C   0  0  1  0  0  0  0  0  0  0  0  0
    3.6670    5.8161   26.6456 C   0  0  1  0  0  0  0  0  0  0  0  0
   -3.0006    1.0497   24.3956 C   0  0  2  0  0  0  0  0  0  0  0  0
   -4.0980    1.9283   24.8534 N   0  0  0  0  0  0  0  0  0  0  0  0
   -2.5708    0.0748   30.5592 C   0  0  0  0  0  0  0  0  0  0  0  0
    2.0894    2.5322   27.7780 C   0  0  2  0  0  0  0  0  0  0  0  0
    2.2006    2.9065   29.1517 O   0  0  0  0  0  0  0  0  0  0  0  0
    3.7338    7.1789   27.4002 C   0  0  2  0  0  0  0  0  0  0  0  0
    2.4080    7.6238   27.8950 N   0  0  0  0  0  0  0  0  0  0  0  0
   -3.5793   -0.2549   23.7636 C   0  0  1  0  0  0  0  0  0  0  0  0
   -4.3454    0.0588   22.6033 O   0  0  0  0  0  0  0  0  0  0  0  0
   -3.1071   -0.1422   29.1178 C   0  0  2  0  0  0  0  0  0  0  0  0
   -3.5952   -1.5337   29.0224 N   0  0  0  0  0  0  0  0  0  0  0  0
    2.8926    3.4751   26.8780 C   0  0  2  0  0  0  0  0  0  0  0  0
    2.8939    4.8375   27.3882 O   0  0  0  0  0  0  0  0  0  0  0  0
    4.4045    8.2728   26.5133 C   0  0  1  0  0  0  0  0  0  0  0  0
    5.8041    8.0075   26.4471 O   0  0  0  0  0  0  0  0  0  0  0  0
   -2.4588   -1.2462   23.3610 C   0  0  2  0  0  0  0  0  0  0  0  0
   -3.0523   -2.4483   22.8798 O   0  0  0  0  0  0  0  0  0  0  0  0
   -2.0322    0.1659   28.0142 C   0  0  2  0  0  0  0  0  0  0  0  0
    2.1180    3.3950   25.5551 C   0  0  2  0  0  0  0  0  0  0  0  0
    0.7403    3.1764   25.9159 O   0  0  0  0  0  0  0  0  0  0  0  0
    3.8513    8.3393   25.0575 C   0  0  2  0  0  0  0  0  0  0  0  0
    2.5481    8.9234   25.0931 O   0  0  0  0  0  0  0  0  0  0  0  0
   -1.5352   -1.5404   24.5770 C   0  0  2  0  0  0  0  0  0  0  0  0
   -1.0358   -0.2788   25.1146 O   0  0  0  0  0  0  0  0  0  0  0  0
   -1.2744    1.5207   28.2599 C   0  0  2  0  0  0  0  0  0  0  0  0
   -0.1024    1.5440   27.4041 O   0  0  0  0  0  0  0  0  0  0  0  0
    2.6101    2.2630   24.6357 C   0  0  0  0  0  0  0  0  0  0  0  0
    4.0241    2.2641   24.5458 O   0  0  0  0  0  0  0  0  0  0  0  0
    3.7861    6.9148   24.4241 C   0  0  1  0  0  0  0  0  0  0  0  0
    3.0680    6.0122   25.3197 O   0  0  0  0  0  0  0  0  0  0  0  0
   -0.2960   -2.4056   24.2560 C   0  0  0  0  0  0  0  0  0  0  0  0
   -0.6702   -3.6551   23.7008 O   0  0  0  0  0  0  0  0  0  0  0  0
   -0.8066    1.6970   29.7379 C   0  0  1  0  0  0  0  0  0  0  0  0
   -0.2868    3.0158   29.9008 O   0  0  0  0  0  0  0  0  0  0  0  0
    3.0933    6.9081   23.0374 C   0  0  0  0  0  0  0  0  0  0  0  0
    3.8043    7.7386   22.0486 N   0  0  0  0  0  0  0  0  0  0  0  0
  1  2  1  1  0  0  0
  1  7  1  0  0  0  0
  1 30  1  0  0  0  0
  3  4  1  1  0  0  0
  3  9  1  0  0  0  0
  3 39  1  0  0  0  0
  5 10  1  0  0  0  0
  5 26  1  0  0  0  0
  5 32  1  6  0  0  0
  6 12  1  0  0  0  0
  6 36  1  0  0  0  0
  6 19  1  1  0  0  0
  7  8  1  1  0  0  0
  7 14  1  0  0  0  0
  9 16  1  0  0  0  0
 10 11  1  1  0  0  0
 10 18  1  0  0  0  0
 12 13  1  6  0  0  0
 12 20  1  0  0  0  0
 14 15  1  6  0  0  0
 14 22  1  0  0  0  0
 16 17  1  1  0  0  0
 16 24  1  0  0  0  0
 18 19  1  1  0  0  0
 18 25  1  0  0  0  0
 20 21  1  6  0  0  0
 20 27  1  0  0  0  0
 22 23  1  1  0  0  0
 22 29  1  0  0  0  0
 24  2  1  6  0  0  0
 24 31  1  0  0  0  0
 25 26  1  0  0  0  0
 25 33  1  6  0  0  0
 27 28  1  1  0  0  0
 27 35  1  0  0  0  0
 29 30  1  0  0  0  0
 29 37  1  6  0  0  0
 31 32  1  6  0  0  0
 31 39  1  0  0  0  0
 33 34  1  0  0  0  0
 35 36  1  0  0  0  0
 35 41  1  6  0  0  0
 37 38  1  0  0  0  0
 39 40  1  6  0  0  0
 41 42  1  0  0  0  0
M  END
>  <CHROM.1>
-165.68078658,170.14652654,-55.80813686,-112.13794738,-59.24910039,49.95744897
-179.29334457,-61.42946976,177.73394278,-172.52274442,-59.08375771,-173.67863665
-46.78403918,-41.80468797,-57.94341042,170.77435179,119.56849637,89.44559107
61.29161852,-80.17358190,-55.58215704,160.39343873,0.34594543,2.63496472
26.31154725,-3.03315671,0.88815149,1.39074272

>  <Name>
1fyp_lig

>  <RI>
0

>  <Rbt.Current_Directory>
/home/itssahil/PROJECTS/Mol_Feturizer/New_Systems/rnas/1fyp

>  <Rbt.Executable>
rbdock ($Id: //depot/dev/client3/rdock/2013.1/src/exe/rbdock.cxx#4 $)

>  <Rbt.Library>
libRbt.so (2013.1, Build901 2013/11/27)

>  <Rbt.Parameter_File>
/export/apps/rDock/src/rDock_2013.1_src/data/scripts/dock_solv.prm

>  <Rbt.Receptor>
prm/blind_docking_60.prm

>  <SCORE>
-55.6724

>  <SCORE.INTER>
-45.7848

>  <SCORE.INTER.CONST>
1

>  <SCORE.INTER.POLAR>
-5.48163

>  <SCORE.INTER.ROT>
14

>  <SCORE.INTER.SOLV>
20.9935

>  <SCORE.INTER.VDW>
-32.1823

>  <SCORE.INTER.norm>
-1.09011

>  <SCORE.INTRA>
-9.88759

>  <SCORE.INTRA.DIHEDRAL>
-27.9414

>  <SCORE.INTRA.DIHEDRAL.0>
48.7173

>  <SCORE.INTRA.POLAR>
0.0944139

>  <SCORE.INTRA.POLAR.0>
-1.54691

>  <SCORE.INTRA.REPUL>
0

>  <SCORE.INTRA.REPUL.0>
0

>  <SCORE.INTRA.SOLV>
-1.94053

>  <SCORE.INTRA.SOLV.lig_0>
-64.052

>  <SCORE.INTRA.VDW>
4.73237

>  <SCORE.INTRA.VDW.0>
-7.0667

>  <SCORE.INTRA.norm>
-0.235419

>  <SCORE.RESTR>
0

>  <SCORE.RESTR.CAVITY>
0

>  <SCORE.RESTR.norm>
0

>  <SCORE.SYSTEM>
0

>  <SCORE.SYSTEM.CONST>
0

>  <SCORE.SYSTEM.DIHEDRAL>
0

>  <SCORE.SYSTEM.SOLV>
0

>  <SCORE.SYSTEM.norm>
0

>  <SCORE.heavy>
42

>  <SCORE.norm>
-1.32553

>  <RMSD>
10.538

$$$$
1fyp_lig
 OpenBabel11021811393D
libRbt.so/2013.1/901 2013/11/27
 42 45  0  0  0  0  0  0  0  0999 V2000
   -2.3634    1.0252   24.8077 C   0  0  2  0  0  0  0  0  0  0  0  0
   -3.1589    1.2766   26.0020 O   0  0  0  0  0  0  0  0  0  0  0  0
   -3.5969    0.2291   30.1192 C   0  0  2  0  0  0  0  0  0  0  0  0
   -3.6524   -0.4441   31.4300 N   0  0  0  0  0  0  0  0  0  0  0  0
    0.0303    2.1578   27.4221 C   0  0  1  0  0  0  0  0  0  0  0  0
    2.6840    5.5326   27.3785 C   0  0  1  0  0  0  0  0  0  0  0  0
   -3.2673    0.6857   23.5789 C   0  0  2  0  0  0  0  0  0  0  0  0
   -4.3350    1.6932   23.4039 N   0  0  0  0  0  0  0  0  0  0  0  0
   -4.4552   -0.5524   29.1045 C   0  0  0  0  0  0  0  0  0  0  0  0
    0.1943    2.9670   28.7113 C   0  0  2  0  0  0  0  0  0  0  0  0
   -0.8473    3.9399   28.7998 O   0  0  0  0  0  0  0  0  0  0  0  0
    2.4126    6.8407   26.5746 C   0  0  2  0  0  0  0  0  0  0  0  0
    1.4766    6.6322   25.4429 N   0  0  0  0  0  0  0  0  0  0  0  0
   -3.8862   -0.7401   23.7208 C   0  0  1  0  0  0  0  0  0  0  0  0
   -4.5760   -1.0978   22.5258 O   0  0  0  0  0  0  0  0  0  0  0  0
   -4.4648    0.1177   27.7034 C   0  0  2  0  0  0  0  0  0  0  0  0
   -5.2433   -0.7486   26.7940 N   0  0  0  0  0  0  0  0  0  0  0  0
    1.5573    3.6299   28.4941 C   0  0  2  0  0  0  0  0  0  0  0  0
    1.4494    4.8329   27.6830 O   0  0  0  0  0  0  0  0  0  0  0  0
    3.7493    7.4849   26.0938 C   0  0  1  0  0  0  0  0  0  0  0  0
    4.4019    8.0688   27.2194 O   0  0  0  0  0  0  0  0  0  0  0  0
   -2.8045   -1.8122   24.0050 C   0  0  2  0  0  0  0  0  0  0  0  0
   -3.4399   -3.0694   24.2158 O   0  0  0  0  0  0  0  0  0  0  0  0
   -3.0207    0.3848   27.1452 C   0  0  2  0  0  0  0  0  0  0  0  0
    2.3297    2.5383   27.7403 C   0  0  2  0  0  0  0  0  0  0  0  0
    1.3496    1.8277   26.9591 O   0  0  0  0  0  0  0  0  0  0  0  0
    4.7358    6.4800   25.4253 C   0  0  2  0  0  0  0  0  0  0  0  0
    4.2333    6.1430   24.1313 O   0  0  0  0  0  0  0  0  0  0  0  0
   -1.9593   -1.4108   25.2471 C   0  0  2  0  0  0  0  0  0  0  0  0
   -1.4172   -0.0711   25.0441 O   0  0  0  0  0  0  0  0  0  0  0  0
   -2.0669    1.0437   28.2065 C   0  0  2  0  0  0  0  0  0  0  0  0
   -0.7047    0.9361   27.7175 O   0  0  0  0  0  0  0  0  0  0  0  0
    3.0665    1.5647   28.6772 C   0  0  0  0  0  0  0  0  0  0  0  0
    2.6843    0.2256   28.4160 O   0  0  0  0  0  0  0  0  0  0  0  0
    4.8903    5.1939   26.2950 C   0  0  1  0  0  0  0  0  0  0  0  0
    3.5709    4.6521   26.6081 O   0  0  0  0  0  0  0  0  0  0  0  0
   -0.7561   -2.3351   25.5391 C   0  0  0  0  0  0  0  0  0  0  0  0
   -0.1618   -2.0273   26.7887 O   0  0  0  0  0  0  0  0  0  0  0  0
   -2.1428    0.3543   29.6041 C   0  0  1  0  0  0  0  0  0  0  0  0
   -1.3806    1.1201   30.5359 O   0  0  0  0  0  0  0  0  0  0  0  0
    5.7344    4.0973   25.5963 C   0  0  0  0  0  0  0  0  0  0  0  0
    4.9670    3.3609   24.5756 N   0  0  0  0  0  0  0  0  0  0  0  0
  1  2  1  1  0  0  0
  1  7  1  0  0  0  0
  1 30  1  0  0  0  0
  3  4  1  1  0  0  0
  3  9  1  0  0  0  0
  3 39  1  0  0  0  0
  5 10  1  0  0  0  0
  5 26  1  0  0  0  0
  5 32  1  1  0  0  0
  6 12  1  0  0  0  0
  6 36  1  0  0  0  0
  6 19  1  6  0  0  0
  7  8  1  1  0  0  0
  7 14  1  0  0  0  0
  9 16  1  0  0  0  0
 10 11  1  6  0  0  0
 10 18  1  0  0  0  0
 12 13  1  6  0  0  0
 12 20  1  0  0  0  0
 14 15  1  6  0  0  0
 14 22  1  0  0  0  0
 16 17  1  6  0  0  0
 16 24  1  0  0  0  0
 18 19  1  6  0  0  0
 18 25  1  0  0  0  0
 20 21  1  1  0  0  0
 20 27  1  0  0  0  0
 22 23  1  1  0  0  0
 22 29  1  0  0  0  0
 24  2  1  6  0  0  0
 24 31  1  0  0  0  0
 25 26  1  0  0  0  0
 25 33  1  1  0  0  0
 27 28  1  6  0  0  0
 27 35  1  0  0  0  0
 29 30  1  0  0  0  0
 29 37  1  6  0  0  0
 31 32  1  6  0  0  0
 31 39  1  0  0  0  0
 33 34  1  0  0  0  0
 35 36  1  0  0  0  0
 35 41  1  6  0  0  0
 37 38  1  0  0  0  0
 39 40  1  1  0  0  0
 41 42  1  0  0  0  0
M  END
>  <CHROM.1>
116.35839537,-137.96376294,-64.93703628,-178.66717260,-173.50569804,166.26226700
61.67130826,-8.84972544,-178.45017589,-176.79397922,-54.47404975,-177.96256738
124.52863216,-173.81585359,-171.13941935,116.48431814,62.79067258,-67.13084299
-78.28522334,-37.83397091,-56.41529635,-64.53012753,-0.19400999,1.95506540
26.68927100,-3.07725269,0.71833140,1.49531536

>  <Name>
1fyp_lig

>  <RI>
0

>  <Rbt.Current_Directory>
/home/itssahil/PROJECTS/Mol_Feturizer/New_Systems/rnas/1fyp

>  <Rbt.Executable>
rbdock ($Id: //depot/dev/client3/rdock/2013.1/src/exe/rbdock.cxx#4 $)

>  <Rbt.Library>
libRbt.so (2013.1, Build901 2013/11/27)

>  <Rbt.Parameter_File>
/export/apps/rDock/src/rDock_2013.1_src/data/scripts/dock_solv.prm

>  <Rbt.Receptor>
prm/pocket_docking_5.prm

>  <SCORE>
-54.1314

>  <SCORE.INTER>
-49.9974

>  <SCORE.INTER.CONST>
1

>  <SCORE.INTER.POLAR>
-6.59942

>  <SCORE.INTER.ROT>
14

>  <SCORE.INTER.SOLV>
18.1432

>  <SCORE.INTER.VDW>
-30.3146

>  <SCORE.INTER.norm>
-1.19041

>  <SCORE.INTRA>
-4.17975

>  <SCORE.INTRA.DIHEDRAL>
-15.7567

>  <SCORE.INTRA.DIHEDRAL.0>
48.7173

>  <SCORE.INTRA.POLAR>
-0.0110226

>  <SCORE.INTRA.POLAR.0>
-1.54691

>  <SCORE.INTRA.REPUL>
0.0366619

>  <SCORE.INTRA.REPUL.0>
0

>  <SCORE.INTRA.SOLV>
0.178887

>  <SCORE.INTRA.SOLV.lig_0>
-64.052

>  <SCORE.INTRA.VDW>
3.4633

>  <SCORE.INTRA.VDW.0>
-7.0667

>  <SCORE.INTRA.norm>
-0.099518

>  <SCORE.RESTR>
0.0457738

>  <SCORE.RESTR.CAVITY>
0.0457738

>  <SCORE.RESTR.norm>
0.00108985

>  <SCORE.SYSTEM>
0

>  <SCORE.SYSTEM.CONST>
0

>  <SCORE.SYSTEM.DIHEDRAL>
0

>  <SCORE.SYSTEM.SOLV>
0

>  <SCORE.SYSTEM.norm>
0

>  <SCORE.heavy>
42

>  <SCORE.norm>
-1.28884

>  <RMSD>
10.553

$$$$
1fyp_lig
 OpenBabel11021811393D
libRbt.so/2013.1/901 2013/11/27
 42 45  0  0  0  0  0  0  0  0999 V2000
    5.1682    4.7089   32.9771 C   0  0  2  0  0  0  0  0  0  0  0  0
    5.1226    4.2883   31.5831 O   0  0  0  0  0  0  0  0  0  0  0  0
    3.0885    5.5094   28.0317 C   0  0  2  0  0  0  0  0  0  0  0  0
    2.4853    6.2453   26.9052 N   0  0  0  0  0  0  0  0  0  0  0  0
    7.1886    6.4138   29.2577 C   0  0  1  0  0  0  0  0  0  0  0  0
   10.2206    9.2059   30.0384 C   0  0  1  0  0  0  0  0  0  0  0  0
    6.5195    5.4160   33.3178 C   0  0  2  0  0  0  0  0  0  0  0  0
    6.8256    6.4854   32.3440 N   0  0  0  0  0  0  0  0  0  0  0  0
    2.5958    6.1137   29.3617 C   0  0  0  0  0  0  0  0  0  0  0  0
    8.7159    6.4315   29.1537 C   0  0  2  0  0  0  0  0  0  0  0  0
    9.2836    6.4147   30.4640 O   0  0  0  0  0  0  0  0  0  0  0  0
   10.9036   10.4315   29.3583 C   0  0  2  0  0  0  0  0  0  0  0  0
   10.9237   10.3264   27.8788 N   0  0  0  0  0  0  0  0  0  0  0  0
    7.6887    4.3835   33.3736 C   0  0  1  0  0  0  0  0  0  0  0  0
    8.8794    5.0138   33.8392 O   0  0  0  0  0  0  0  0  0  0  0  0
    3.1722    5.3673   30.5958 C   0  0  2  0  0  0  0  0  0  0  0  0
    2.7057    6.0719   31.8080 N   0  0  0  0  0  0  0  0  0  0  0  0
    8.9672    7.7710   28.4560 C   0  0  2  0  0  0  0  0  0  0  0  0
    8.9597    8.8799   29.3976 O   0  0  0  0  0  0  0  0  0  0  0  0
   12.3371   10.6570   29.9305 C   0  0  1  0  0  0  0  0  0  0  0  0
   12.2208   11.1927   31.2469 O   0  0  0  0  0  0  0  0  0  0  0  0
    7.3625    3.1936   34.3105 C   0  0  2  0  0  0  0  0  0  0  0  0
    8.4238    2.2459   34.2453 O   0  0  0  0  0  0  0  0  0  0  0  0
    4.7390    5.2556   30.5641 C   0  0  2  0  0  0  0  0  0  0  0  0
    7.7694    7.8660   27.5007 C   0  0  2  0  0  0  0  0  0  0  0  0
    6.6811    7.1926   28.1624 O   0  0  0  0  0  0  0  0  0  0  0  0
   13.2033    9.3631   30.0052 C   0  0  2  0  0  0  0  0  0  0  0  0
   13.6021    9.0064   28.6807 O   0  0  0  0  0  0  0  0  0  0  0  0
    6.0150    2.5355   33.8989 C   0  0  2  0  0  0  0  0  0  0  0  0
    4.9739    3.5577   33.8660 O   0  0  0  0  0  0  0  0  0  0  0  0
    5.2906    4.7877   29.1688 C   0  0  2  0  0  0  0  0  0  0  0  0
    6.7195    5.0405   29.1405 O   0  0  0  0  0  0  0  0  0  0  0  0
    8.0378    7.2180   26.1307 C   0  0  0  0  0  0  0  0  0  0  0  0
    7.9716    5.8054   26.2185 O   0  0  0  0  0  0  0  0  0  0  0  0
   12.4004    8.1960   30.6590 C   0  0  1  0  0  0  0  0  0  0  0  0
   11.1161    8.0439   29.9808 O   0  0  0  0  0  0  0  0  0  0  0  0
    5.5164    1.4270   34.8527 C   0  0  0  0  0  0  0  0  0  0  0  0
    4.3424    0.8084   34.3542 O   0  0  0  0  0  0  0  0  0  0  0  0
    4.6347    5.5421   27.9708 C   0  0  1  0  0  0  0  0  0  0  0  0
    5.0680    4.9361   26.7539 O   0  0  0  0  0  0  0  0  0  0  0  0
   13.1609    6.8460   30.6102 C   0  0  0  0  0  0  0  0  0  0  0  0
   12.3025    5.7027   30.9693 N   0  0  0  0  0  0  0  0  0  0  0  0
  1  2  1  6  0  0  0
  1  7  1  0  0  0  0
  1 30  1  0  0  0  0
  3  4  1  6  0  0  0
  3  9  1  0  0  0  0
  3 39  1  0  0  0  0
  5 10  1  0  0  0  0
  5 26  1  0  0  0  0
  5 32  1  6  0  0  0
  6 12  1  0  0  0  0
  6 36  1  0  0  0  0
  6 19  1  6  0  0  0
  7  8  1  6  0  0  0
  7 14  1  0  0  0  0
  9 16  1  0  0  0  0
 10 11  1  1  0  0  0
 10 18  1  0  0  0  0
 12 13  1  6  0  0  0
 12 20  1  0  0  0  0
 14 15  1  1  0  0  0
 14 22  1  0  0  0  0
 16 17  1  1  0  0  0
 16 24  1  0  0  0  0
 18 19  1  1  0  0  0
 18 25  1  0  0  0  0
 20 21  1  1  0  0  0
 20 27  1  0  0  0  0
 22 23  1  6  0  0  0
 22 29  1  0  0  0  0
 24  2  1  1  0  0  0
 24 31  1  0  0  0  0
 25 26  1  0  0  0  0
 25 33  1  6  0  0  0
 27 28  1  6  0  0  0
 27 35  1  0  0  0  0
 29 30  1  0  0  0  0
 29 37  1  1  0  0  0
 31 32  1  1  0  0  0
 31 39  1  0  0  0  0
 33 34  1  0  0  0  0
 35 36  1  0  0  0  0
 35 41  1  6  0  0  0
 37 38  1  0  0  0  0
 39 40  1  6  0  0  0
 41 42  1  0  0  0  0
M  END
>  <CHROM.1>
-83.06346252,-79.48358631,-63.17240430,68.94601499,58.27930548,-30.12005160
58.97754479,49.97992015,87.92791927,100.38141014,-61.80168713,178.62014345
76.30659572,-50.32122408,-175.40840732,-62.22689302,-178.07215438,58.69386135
-168.19102436,63.69612799,-58.66158434,32.63783495,7.70969653,6.21591026
30.41949752,-2.54962287,-0.40555975,-0.99485999

>  <Name>
1fyp_lig

>  <RI>
0

>  <Rbt.Current_Directory>
/home/itssahil/PROJECTS/Mol_Feturizer/New_Systems/rnas/1fyp

>  <Rbt.Executable>
rbdock ($Id: //depot/dev/client3/rdock/2013.1/src/exe/rbdock.cxx#4 $)

>  <Rbt.Library>
libRbt.so (2013.1, Build901 2013/11/27)

>  <Rbt.Parameter_File>
/export/apps/rDock/src/rDock_2013.1_src/data/scripts/dock_solv.prm

>  <Rbt.Receptor>
prm/pocket_docking_8.prm

>  <SCORE>
-28.5267

>  <SCORE.INTER>
-14.6947

>  <SCORE.INTER.CONST>
1

>  <SCORE.INTER.POLAR>
-1.99936

>  <SCORE.INTER.ROT>
14

>  <SCORE.INTER.SOLV>
8.59377

>  <SCORE.INTER.VDW>
-18.9299

>  <SCORE.INTER.norm>
-0.349874

>  <SCORE.INTRA>
-13.832

>  <SCORE.INTRA.DIHEDRAL>
-31.0919

>  <SCORE.INTRA.DIHEDRAL.0>
48.7173

>  <SCORE.INTRA.POLAR>
-0.900501

>  <SCORE.INTRA.POLAR.0>
-1.54691

>  <SCORE.INTRA.REPUL>
0.1346

>  <SCORE.INTRA.REPUL.0>
0

>  <SCORE.INTRA.SOLV>
1.96137

>  <SCORE.INTRA.SOLV.lig_0>
-64.052

>  <SCORE.INTRA.VDW>
3.12197

>  <SCORE.INTRA.VDW.0>
-7.0667

>  <SCORE.INTRA.norm>
-0.329334

>  <SCORE.RESTR>
0

>  <SCORE.RESTR.CAVITY>
0

>  <SCORE.RESTR.norm>
0

>  <SCORE.SYSTEM>
0

>  <SCORE.SYSTEM.CONST>
0

>  <SCORE.SYSTEM.DIHEDRAL>
0

>  <SCORE.SYSTEM.SOLV>
0

>  <SCORE.SYSTEM.norm>
0

>  <SCORE.heavy>
42

>  <SCORE.norm>
-0.679207

>  <RMSD>
10.565

$$$$
1fyp_lig
 OpenBabel11021811393D
libRbt.so/2013.1/901 2013/11/27
 42 45  0  0  0  0  0  0  0  0999 V2000
    3.1322    3.2919   30.4224 C   0  0  2  0  0  0  0  0  0  0  0  0
    1.7715    3.6957   30.7509 O   0  0  0  0  0  0  0  0  0  0  0  0
   -2.0281    2.3836   32.1938 C   0  0  2  0  0  0  0  0  0  0  0  0
   -3.2052    1.6175   32.6433 N   0  0  0  0  0  0  0  0  0  0  0  0
    2.7582    3.4433   33.4870 C   0  0  1  0  0  0  0  0  0  0  0  0
    6.0738    6.1706   34.1530 C   0  0  1  0  0  0  0  0  0  0  0  0
    4.0059    4.5161   29.9979 C   0  0  2  0  0  0  0  0  0  0  0  0
    3.9127    5.6104   30.9876 N   0  0  0  0  0  0  0  0  0  0  0  0
   -1.6123    1.9069   30.7877 C   0  0  0  0  0  0  0  0  0  0  0  0
    2.4960    4.8591   34.0068 C   0  0  2  0  0  0  0  0  0  0  0  0
    2.1975    5.7228   32.9093 O   0  0  0  0  0  0  0  0  0  0  0  0
    5.8814    7.2654   35.2464 C   0  0  2  0  0  0  0  0  0  0  0  0
    4.8959    8.3011   34.8508 N   0  0  0  0  0  0  0  0  0  0  0  0
    3.5937    5.0294   28.5827 C   0  0  1  0  0  0  0  0  0  0  0  0
    4.4988    6.0389   28.1430 O   0  0  0  0  0  0  0  0  0  0  0  0
   -0.3904    2.6926   30.2382 C   0  0  2  0  0  0  0  0  0  0  0  0
   -0.0274    2.1063   28.9313 N   0  0  0  0  0  0  0  0  0  0  0  0
    3.8426    5.2139   34.6433 C   0  0  2  0  0  0  0  0  0  0  0  0
    4.7980    5.6903   33.6549 O   0  0  0  0  0  0  0  0  0  0  0  0
    7.2489    7.9044   35.6396 C   0  0  1  0  0  0  0  0  0  0  0  0
    7.9816    6.9627   36.4206 O   0  0  0  0  0  0  0  0  0  0  0  0
    3.5832    3.8872   27.5360 C   0  0  2  0  0  0  0  0  0  0  0  0
    3.1111    4.3994   26.2936 O   0  0  0  0  0  0  0  0  0  0  0  0
    0.8305    2.6911   31.2269 C   0  0  2  0  0  0  0  0  0  0  0  0
    4.2912    3.8642   35.2207 C   0  0  2  0  0  0  0  0  0  0  0  0
    3.7577    2.8588   34.3373 O   0  0  0  0  0  0  0  0  0  0  0  0
    8.1305    8.3200   34.4231 C   0  0  2  0  0  0  0  0  0  0  0  0
    7.5614    9.4870   33.8274 O   0  0  0  0  0  0  0  0  0  0  0  0
    2.6830    2.7164   28.0230 C   0  0  2  0  0  0  0  0  0  0  0  0
    3.1246    2.2928   29.3479 O   0  0  0  0  0  0  0  0  0  0  0  0
    0.4194    3.0235   32.7070 C   0  0  2  0  0  0  0  0  0  0  0  0
    1.5282    2.6691   33.5739 O   0  0  0  0  0  0  0  0  0  0  0  0
    3.7907    3.6263   36.6566 C   0  0  0  0  0  0  0  0  0  0  0  0
    4.3252    4.5926   37.5444 O   0  0  0  0  0  0  0  0  0  0  0  0
    8.2103    7.1653   33.3768 C   0  0  1  0  0  0  0  0  0  0  0  0
    6.8628    6.7140   33.0405 O   0  0  0  0  0  0  0  0  0  0  0  0
    2.7111    1.4597   27.1247 C   0  0  0  0  0  0  0  0  0  0  0  0
    2.1215    1.7164   25.8614 O   0  0  0  0  0  0  0  0  0  0  0  0
   -0.8434    2.2379   33.1790 C   0  0  1  0  0  0  0  0  0  0  0  0
   -1.2369    2.7280   34.4598 O   0  0  0  0  0  0  0  0  0  0  0  0
    8.9418    7.5862   32.0764 C   0  0  0  0  0  0  0  0  0  0  0  0
    8.0391    8.2320   31.1063 N   0  0  0  0  0  0  0  0  0  0  0  0
  1  2  1  6  0  0  0
  1  7  1  0  0  0  0
  1 30  1  0  0  0  0
  3  4  1  1  0  0  0
  3  9  1  0  0  0  0
  3 39  1  0  0  0  0
  5 10  1  0  0  0  0
  5 26  1  0  0  0  0
  5 32  1  1  0  0  0
  6 12  1  0  0  0  0
  6 36  1  0  0  0  0
  6 19  1  6  0  0  0
  7  8  1  1  0  0  0
  7 14  1  0  0  0  0
  9 16  1  0  0  0  0
 10 11  1  6  0  0  0
 10 18  1  0  0  0  0
 12 13  1  6  0  0  0
 12 20  1  0  0  0  0
 14 15  1  6  0  0  0
 14 22  1  0  0  0  0
 16 17  1  6  0  0  0
 16 24  1  0  0  0  0
 18 19  1  6  0  0  0
 18 25  1  0  0  0  0
 20 21  1  6  0  0  0
 20 27  1  0  0  0  0
 22 23  1  6  0  0  0
 22 29  1  0  0  0  0
 24  2  1  6  0  0  0
 24 31  1  0  0  0  0
 25 26  1  0  0  0  0
 25 33  1  1  0  0  0
 27 28  1  6  0  0  0
 27 35  1  0  0  0  0
 29 30  1  0  0  0  0
 29 37  1  6  0  0  0
 31 32  1  1  0  0  0
 31 39  1  0  0  0  0
 33 34  1  0  0  0  0
 35 36  1  0  0  0  0
 35 41  1  6  0  0  0
 37 38  1  0  0  0  0
 39 40  1  1  0  0  0
 41 42  1  0  0  0  0
M  END
>  <CHROM.1>
-177.25638353,-121.84491585,174.62832724,55.77311189,36.96654789,-105.00811034
-61.54817468,-54.04612850,174.68720518,-53.62652375,-57.50299948,57.95785729
-62.76553686,169.60334597,-67.24081941,67.87467930,67.99878594,62.77400374
-85.85248575,50.25382934,-60.41901849,78.21804930,3.42996762,4.61820607,32.11745274
-2.56514356,0.57997196,1.44256535

>  <Name>
1fyp_lig

>  <RI>
0

>  <Rbt.Current_Directory>
/home/itssahil/PROJECTS/Mol_Feturizer/New_Systems/rnas/1fyp

>  <Rbt.Executable>
rbdock ($Id: //depot/dev/client3/rdock/2013.1/src/exe/rbdock.cxx#4 $)

>  <Rbt.Library>
libRbt.so (2013.1, Build901 2013/11/27)

>  <Rbt.Parameter_File>
/export/apps/rDock/src/rDock_2013.1_src/data/scripts/dock_solv.prm

>  <Rbt.Receptor>
prm/pocket_docking_8.prm

>  <SCORE>
-38.236

>  <SCORE.INTER>
-20.0661

>  <SCORE.INTER.CONST>
1

>  <SCORE.INTER.POLAR>
-3.13155

>  <SCORE.INTER.ROT>
14

>  <SCORE.INTER.SOLV>
7.34201

>  <SCORE.INTER.VDW>
-18.3196

>  <SCORE.INTER.norm>
-0.477765

>  <SCORE.INTRA>
-18.1717

>  <SCORE.INTRA.DIHEDRAL>
-31.4952

>  <SCORE.INTRA.DIHEDRAL.0>
48.7173

>  <SCORE.INTRA.POLAR>
-1.51246

>  <SCORE.INTRA.POLAR.0>
-1.54691

>  <SCORE.INTRA.REPUL>
0

>  <SCORE.INTRA.REPUL.0>
0

>  <SCORE.INTRA.SOLV>
1.65925

>  <SCORE.INTRA.SOLV.lig_0>
-64.052

>  <SCORE.INTRA.VDW>
1.88868

>  <SCORE.INTRA.VDW.0>
-7.0667

>  <SCORE.INTRA.norm>
-0.432659

>  <SCORE.RESTR>
0.00185365

>  <SCORE.RESTR.CAVITY>
0.00185365

>  <SCORE.RESTR.norm>
4.41345e-05

>  <SCORE.SYSTEM>
0

>  <SCORE.SYSTEM.CONST>
0

>  <SCORE.SYSTEM.DIHEDRAL>
0

>  <SCORE.SYSTEM.SOLV>
0

>  <SCORE.SYSTEM.norm>
0

>  <SCORE.heavy>
42

>  <SCORE.norm>
-0.91038

>  <RMSD>
10.607

$$$$
1fyp_lig
 OpenBabel11021811393D
libRbt.so/2013.1/901 2013/11/27
 42 45  0  0  0  0  0  0  0  0999 V2000
   -1.5686   -0.9598   26.2577 C   0  0  2  0  0  0  0  0  0  0  0  0
   -1.4181    0.3609   26.8539 O   0  0  0  0  0  0  0  0  0  0  0  0
   -2.2835    1.8658   30.7561 C   0  0  2  0  0  0  0  0  0  0  0  0
   -2.3582    2.1436   32.2023 N   0  0  0  0  0  0  0  0  0  0  0  0
    0.8897    3.2846   27.3771 C   0  0  1  0  0  0  0  0  0  0  0  0
    2.1910    7.1960   25.8358 C   0  0  1  0  0  0  0  0  0  0  0  0
   -0.9874   -1.0029   24.8077 C   0  0  2  0  0  0  0  0  0  0  0  0
    0.3886   -0.4639   24.7654 N   0  0  0  0  0  0  0  0  0  0  0  0
   -2.5655    0.3710   30.5056 C   0  0  0  0  0  0  0  0  0  0  0  0
    0.7839    4.5730   28.1972 C   0  0  2  0  0  0  0  0  0  0  0  0
   -0.5125    5.1456   28.0211 O   0  0  0  0  0  0  0  0  0  0  0  0
    2.0777    7.3040   24.2845 C   0  0  2  0  0  0  0  0  0  0  0  0
    2.2379    5.9941   23.6072 N   0  0  0  0  0  0  0  0  0  0  0  0
   -1.9058   -0.2214   23.8170 C   0  0  1  0  0  0  0  0  0  0  0  0
   -1.4511   -0.4022   22.4782 O   0  0  0  0  0  0  0  0  0  0  0  0
   -2.5298    0.0111   28.9951 C   0  0  2  0  0  0  0  0  0  0  0  0
   -2.7302   -1.4479   28.8738 N   0  0  0  0  0  0  0  0  0  0  0  0
    1.8680    5.4432   27.5555 C   0  0  2  0  0  0  0  0  0  0  0  0
    1.3884    6.1014   26.3500 O   0  0  0  0  0  0  0  0  0  0  0  0
    3.0827    8.3581   23.7260 C   0  0  1  0  0  0  0  0  0  0  0  0
    2.6045    9.6602   24.0567 O   0  0  0  0  0  0  0  0  0  0  0  0
   -3.3795   -0.6916   23.9044 C   0  0  2  0  0  0  0  0  0  0  0  0
   -4.1780    0.1198   23.0484 O   0  0  0  0  0  0  0  0  0  0  0  0
   -1.2024    0.4686   28.2903 C   0  0  2  0  0  0  0  0  0  0  0  0
    2.9492    4.4091   27.2120 C   0  0  2  0  0  0  0  0  0  0  0  0
    2.2476    3.1853   26.9187 O   0  0  0  0  0  0  0  0  0  0  0  0
    4.5312    8.2142   24.2837 C   0  0  2  0  0  0  0  0  0  0  0  0
    5.1365    7.0670   23.6853 O   0  0  0  0  0  0  0  0  0  0  0  0
   -3.8880   -0.6053   25.3714 C   0  0  2  0  0  0  0  0  0  0  0  0
   -2.9818   -1.3540   26.2364 O   0  0  0  0  0  0  0  0  0  0  0  0
   -0.7985    1.9452   28.6462 C   0  0  2  0  0  0  0  0  0  0  0  0
    0.5778    2.1488   28.2330 O   0  0  0  0  0  0  0  0  0  0  0  0
    3.9524    4.1824   28.3570 C   0  0  0  0  0  0  0  0  0  0  0  0
    3.3125    3.6066   29.4824 O   0  0  0  0  0  0  0  0  0  0  0  0
    4.5146    8.0662   25.8369 C   0  0  1  0  0  0  0  0  0  0  0  0
    3.5946    6.9981   26.2180 O   0  0  0  0  0  0  0  0  0  0  0  0
   -5.3010   -1.1856   25.6034 C   0  0  0  0  0  0  0  0  0  0  0  0
   -5.6833   -1.0815   26.9644 O   0  0  0  0  0  0  0  0  0  0  0  0
   -0.9038    2.2541   30.1720 C   0  0  1  0  0  0  0  0  0  0  0  0
   -0.6860    3.6496   30.3741 O   0  0  0  0  0  0  0  0  0  0  0  0
    5.9164    7.7593   26.4234 C   0  0  0  0  0  0  0  0  0  0  0  0
    6.4771    6.4960   25.9107 N   0  0  0  0  0  0  0  0  0  0  0  0
  1  2  1  6  0  0  0
  1  7  1  0  0  0  0
  1 30  1  0  0  0  0
  3  4  1  1  0  0  0
  3  9  1  0  0  0  0
  3 39  1  0  0  0  0
  5 10  1  0  0  0  0
  5 26  1  0  0  0  0
  5 32  1  1  0  0  0
  6 12  1  0  0  0  0
  6 36  1  0  0  0  0
  6 19  1  6  0  0  0
  7  8  1  1  0  0  0
  7 14  1  0  0  0  0
  9 16  1  0  0  0  0
 10 11  1  6  0  0  0
 10 18  1  0  0  0  0
 12 13  1  6  0  0  0
 12 20  1  0  0  0  0
 14 15  1  6  0  0  0
 14 22  1  0  0  0  0
 16 17  1  1  0  0  0
 16 24  1  0  0  0  0
 18 19  1  6  0  0  0
 18 25  1  0  0  0  0
 20 21  1  1  0  0  0
 20 27  1  0  0  0  0
 22 23  1  6  0  0  0
 22 29  1  0  0  0  0
 24  2  1  6  0  0  0
 24 31  1  0  0  0  0
 25 26  1  0  0  0  0
 25 33  1  1  0  0  0
 27 28  1  6  0  0  0
 27 35  1  0  0  0  0
 29 30  1  0  0  0  0
 29 37  1  6  0  0  0
 31 32  1  1  0  0  0
 31 39  1  0  0  0  0
 33 34  1  0  0  0  0
 35 36  1  0  0  0  0
 35 41  1  6  0  0  0
 37 38  1  0  0  0  0
 39 40  1  6  0  0  0
 41 42  1  0  0  0  0
M  END
>  <CHROM.1>
-147.25311064,-68.09784097,52.52218243,7.52437869,-104.17945631,64.27667593
55.29323093,45.77218415,165.22301801,149.40276137,-176.81489979,-164.90355405
65.11277803,-169.05357086,179.38408981,127.32576156,71.95462924,178.76507389
-60.77507545,-74.52477308,154.34528184,-59.56537682,0.27631723,3.06720521
26.66666679,3.03106393,0.83706383,1.55172237

>  <Name>
1fyp_lig

>  <RI>
0

>  <Rbt.Current_Directory>
/home/itssahil/PROJECTS/Mol_Feturizer/New_Systems/rnas/1fyp

>  <Rbt.Executable>
rbdock ($Id: //depot/dev/client3/rdock/2013.1/src/exe/rbdock.cxx#4 $)

>  <Rbt.Library>
libRbt.so (2013.1, Build901 2013/11/27)

>  <Rbt.Parameter_File>
/export/apps/rDock/src/rDock_2013.1_src/data/scripts/dock_solv.prm

>  <Rbt.Receptor>
prm/blind_docking_80.prm

>  <SCORE>
-44.4537

>  <SCORE.INTER>
-39.3651

>  <SCORE.INTER.CONST>
1

>  <SCORE.INTER.POLAR>
-6.15865

>  <SCORE.INTER.ROT>
14

>  <SCORE.INTER.SOLV>
18.3049

>  <SCORE.INTER.VDW>
-24.7495

>  <SCORE.INTER.norm>
-0.937264

>  <SCORE.INTRA>
-5.08857

>  <SCORE.INTRA.DIHEDRAL>
-17.1383

>  <SCORE.INTRA.DIHEDRAL.0>
48.7173

>  <SCORE.INTRA.POLAR>
-0.625345

>  <SCORE.INTRA.POLAR.0>
-1.54691

>  <SCORE.INTRA.REPUL>
0

>  <SCORE.INTRA.REPUL.0>
0

>  <SCORE.INTRA.SOLV>
0.484941

>  <SCORE.INTRA.SOLV.lig_0>
-64.052

>  <SCORE.INTRA.VDW>
5.3643

>  <SCORE.INTRA.VDW.0>
-7.0667

>  <SCORE.INTRA.norm>
-0.121156

>  <SCORE.RESTR>
0

>  <SCORE.RESTR.CAVITY>
0

>  <SCORE.RESTR.norm>
0

>  <SCORE.SYSTEM>
0

>  <SCORE.SYSTEM.CONST>
0

>  <SCORE.SYSTEM.DIHEDRAL>
0

>  <SCORE.SYSTEM.SOLV>
0

>  <SCORE.SYSTEM.norm>
0

>  <SCORE.heavy>
42

>  <SCORE.norm>
-1.05842

>  <RMSD>
10.609

$$$$
1fyp_lig
 OpenBabel11021811393D
libRbt.so/2013.1/901 2013/11/27
 42 45  0  0  0  0  0  0  0  0999 V2000
   -1.5860   -1.3058   25.9954 C   0  0  2  0  0  0  0  0  0  0  0  0
   -1.2982    0.0050   26.5622 O   0  0  0  0  0  0  0  0  0  0  0  0
   -1.8583    2.0100   30.2914 C   0  0  2  0  0  0  0  0  0  0  0  0
   -1.9374    2.4051   31.7099 N   0  0  0  0  0  0  0  0  0  0  0  0
    2.0488    2.1583   27.8728 C   0  0  1  0  0  0  0  0  0  0  0  0
    5.2189    4.7895   26.5883 C   0  0  1  0  0  0  0  0  0  0  0  0
   -1.1457   -1.3913   24.4984 C   0  0  2  0  0  0  0  0  0  0  0  0
    0.2515   -0.9407   24.3238 N   0  0  0  0  0  0  0  0  0  0  0  0
   -2.6378    0.6967   30.0806 C   0  0  0  0  0  0  0  0  0  0  0  0
    3.4317    1.5688   27.5833 C   0  0  2  0  0  0  0  0  0  0  0  0
    4.1761    1.4789   28.7987 O   0  0  0  0  0  0  0  0  0  0  0  0
    5.8132    5.9057   27.5005 C   0  0  2  0  0  0  0  0  0  0  0  0
    4.8677    6.3452   28.5556 N   0  0  0  0  0  0  0  0  0  0  0  0
   -2.1013   -0.5570   23.5892 C   0  0  1  0  0  0  0  0  0  0  0  0
   -1.7850   -0.7714   22.2159 O   0  0  0  0  0  0  0  0  0  0  0  0
   -2.6197    0.2339   28.5980 C   0  0  2  0  0  0  0  0  0  0  0  0
   -3.3201   -1.0650   28.5219 N   0  0  0  0  0  0  0  0  0  0  0  0
    4.0291    2.6180   26.6417 C   0  0  2  0  0  0  0  0  0  0  0  0
    4.5958    3.7402   27.3740 O   0  0  0  0  0  0  0  0  0  0  0  0
    6.3128    7.1126   26.6479 C   0  0  1  0  0  0  0  0  0  0  0  0
    7.5151    6.7311   25.9827 O   0  0  0  0  0  0  0  0  0  0  0  0
   -3.5871   -0.9325   23.8169 C   0  0  2  0  0  0  0  0  0  0  0  0
   -4.4092   -0.0754   23.0306 O   0  0  0  0  0  0  0  0  0  0  0  0
   -1.1673    0.1382   28.0067 C   0  0  2  0  0  0  0  0  0  0  0  0
    2.8008    3.0642   25.8363 C   0  0  2  0  0  0  0  0  0  0  0  0
    1.6770    2.9457   26.7302 O   0  0  0  0  0  0  0  0  0  0  0  0
    5.2935    7.5977   25.5730 C   0  0  2  0  0  0  0  0  0  0  0  0
    4.2289    8.2840   26.2335 O   0  0  0  0  0  0  0  0  0  0  0  0
   -3.9508   -0.8085   25.3238 C   0  0  2  0  0  0  0  0  0  0  0  0
   -3.0171   -1.6097   26.1086 O   0  0  0  0  0  0  0  0  0  0  0  0
   -0.2889    1.3994   28.3351 C   0  0  2  0  0  0  0  0  0  0  0  0
    1.0959    1.0718   28.0496 O   0  0  0  0  0  0  0  0  0  0  0  0
    2.5654    2.2144   24.5750 C   0  0  0  0  0  0  0  0  0  0  0  0
    1.5473    2.7796   23.7678 O   0  0  0  0  0  0  0  0  0  0  0  0
    4.7328    6.3917   24.7571 C   0  0  1  0  0  0  0  0  0  0  0  0
    4.2297    5.3715   25.6729 O   0  0  0  0  0  0  0  0  0  0  0  0
   -5.3698   -1.2971   25.6909 C   0  0  0  0  0  0  0  0  0  0  0  0
   -5.8022   -0.7442   26.9225 O   0  0  0  0  0  0  0  0  0  0  0  0
   -0.3913    1.8404   29.8283 C   0  0  1  0  0  0  0  0  0  0  0  0
    0.2965    3.0801   29.9892 O   0  0  0  0  0  0  0  0  0  0  0  0
    3.5972    6.8032   23.7854 C   0  0  0  0  0  0  0  0  0  0  0  0
    2.7295    5.6688   23.4206 N   0  0  0  0  0  0  0  0  0  0  0  0
  1  2  1  6  0  0  0
  1  7  1  0  0  0  0
  1 30  1  0  0  0  0
  3  4  1  1  0  0  0
  3  9  1  0  0  0  0
  3 39  1  0  0  0  0
  5 10  1  0  0  0  0
  5 26  1  0  0  0  0
  5 32  1  6  0  0  0
  6 12  1  0  0  0  0
  6 36  1  0  0  0  0
  6 19  1  1  0  0  0
  7  8  1  1  0  0  0
  7 14  1  0  0  0  0
  9 16  1  0  0  0  0
 10 11  1  1  0  0  0
 10 18  1  0  0  0  0
 12 13  1  1  0  0  0
 12 20  1  0  0  0  0
 14 15  1  6  0  0  0
 14 22  1  0  0  0  0
 16 17  1  1  0  0  0
 16 24  1  0  0  0  0
 18 19  1  1  0  0  0
 18 25  1  0  0  0  0
 20 21  1  6  0  0  0
 20 27  1  0  0  0  0
 22 23  1  6  0  0  0
 22 29  1  0  0  0  0
 24  2  1  6  0  0  0
 24 31  1  0  0  0  0
 25 26  1  0  0  0  0
 25 33  1  6  0  0  0
 27 28  1  1  0  0  0
 27 35  1  0  0  0  0
 29 30  1  0  0  0  0
 29 37  1  6  0  0  0
 31 32  1  1  0  0  0
 31 39  1  0  0  0  0
 33 34  1  0  0  0  0
 35 36  1  0  0  0  0
 35 41  1  6  0  0  0
 37 38  1  0  0  0  0
 39 40  1  6  0  0  0
 41 42  1  0  0  0  0
M  END
>  <CHROM.1>
-157.56537258,-81.38322008,-172.42798346,-28.82102159,-63.72498332,-151.90579563
-73.93616167,-17.74974229,178.74319173,-178.54164737,-57.68242589,66.60370112
-171.48780035,74.18634455,-159.45101620,161.34764777,-179.97963647,61.43100789
-157.62225349,72.39104166,70.80828850,-138.94259499,0.81730586,2.28139681
26.54481556,-3.08539375,0.67234021,1.49118195

>  <Name>
1fyp_lig

>  <RI>
0

>  <Rbt.Current_Directory>
/home/itssahil/PROJECTS/Mol_Feturizer/New_Systems/rnas/1fyp

>  <Rbt.Executable>
rbdock ($Id: //depot/dev/client3/rdock/2013.1/src/exe/rbdock.cxx#4 $)

>  <Rbt.Library>
libRbt.so (2013.1, Build901 2013/11/27)

>  <Rbt.Parameter_File>
/export/apps/rDock/src/rDock_2013.1_src/data/scripts/dock_solv.prm

>  <Rbt.Receptor>
prm/pocket_docking_5.prm

>  <SCORE>
-54.948

>  <SCORE.INTER>
-39.9674

>  <SCORE.INTER.CONST>
1

>  <SCORE.INTER.POLAR>
-5.57442

>  <SCORE.INTER.ROT>
14

>  <SCORE.INTER.SOLV>
17.7167

>  <SCORE.INTER.VDW>
-26.9024

>  <SCORE.INTER.norm>
-0.951606

>  <SCORE.INTRA>
-14.9806

>  <SCORE.INTRA.DIHEDRAL>
-29.6367

>  <SCORE.INTRA.DIHEDRAL.0>
48.7173

>  <SCORE.INTRA.POLAR>
-0.680374

>  <SCORE.INTRA.POLAR.0>
-1.54691

>  <SCORE.INTRA.REPUL>
0

>  <SCORE.INTRA.REPUL.0>
0

>  <SCORE.INTRA.SOLV>
-0.673823

>  <SCORE.INTRA.SOLV.lig_0>
-64.052

>  <SCORE.INTRA.VDW>
2.48794

>  <SCORE.INTRA.VDW.0>
-7.0667

>  <SCORE.INTRA.norm>
-0.356681

>  <SCORE.RESTR>
0

>  <SCORE.RESTR.CAVITY>
0

>  <SCORE.RESTR.norm>
0

>  <SCORE.SYSTEM>
0

>  <SCORE.SYSTEM.CONST>
0

>  <SCORE.SYSTEM.DIHEDRAL>
0

>  <SCORE.SYSTEM.SOLV>
0

>  <SCORE.SYSTEM.norm>
0

>  <SCORE.heavy>
42

>  <SCORE.norm>
-1.30829

>  <RMSD>
10.636

$$$$
1fyp_lig
 OpenBabel11021811393D
libRbt.so/2013.1/901 2013/11/27
 42 45  0  0  0  0  0  0  0  0999 V2000
   -2.7573    1.3989   30.8609 C   0  0  2  0  0  0  0  0  0  0  0  0
   -1.9557    0.6103   29.9346 O   0  0  0  0  0  0  0  0  0  0  0  0
   -1.2125   -0.2962   25.8277 C   0  0  2  0  0  0  0  0  0  0  0  0
   -1.2391   -0.4203   24.3586 N   0  0  0  0  0  0  0  0  0  0  0  0
    0.3886    3.1688   28.9127 C   0  0  1  0  0  0  0  0  0  0  0  0
    4.3460    4.5331   30.1996 C   0  0  1  0  0  0  0  0  0  0  0  0
   -2.1770    1.3430   32.3109 C   0  0  2  0  0  0  0  0  0  0  0  0
   -0.7335    1.6620   32.3234 N   0  0  0  0  0  0  0  0  0  0  0  0
   -2.5742   -0.7328   26.4040 C   0  0  0  0  0  0  0  0  0  0  0  0
    1.6695    2.6522   28.2523 C   0  0  2  0  0  0  0  0  0  0  0  0
    2.0724    1.4345   28.8803 O   0  0  0  0  0  0  0  0  0  0  0  0
    5.4869    4.3914   29.1464 C   0  0  2  0  0  0  0  0  0  0  0  0
    5.8123    2.9763   28.8432 N   0  0  0  0  0  0  0  0  0  0  0  0
   -2.4281   -0.0555   32.9568 C   0  0  1  0  0  0  0  0  0  0  0  0
   -2.0379   -0.0411   34.3277 O   0  0  0  0  0  0  0  0  0  0  0  0
   -2.6089   -0.6533   27.9548 C   0  0  2  0  0  0  0  0  0  0  0  0
   -3.9732   -1.0121   28.3948 N   0  0  0  0  0  0  0  0  0  0  0  0
    2.6554    3.7849   28.5516 C   0  0  2  0  0  0  0  0  0  0  0  0
    3.2249    3.6664   29.8851 O   0  0  0  0  0  0  0  0  0  0  0  0
    6.7555    5.1824   29.5917 C   0  0  1  0  0  0  0  0  0  0  0  0
    6.5007    6.5761   29.4303 O   0  0  0  0  0  0  0  0  0  0  0  0
   -3.9187   -0.4696   32.8731 C   0  0  2  0  0  0  0  0  0  0  0  0
   -4.0650   -1.7878   33.3926 O   0  0  0  0  0  0  0  0  0  0  0  0
   -2.1810    0.7555   28.5030 C   0  0  2  0  0  0  0  0  0  0  0  0
    1.7577    5.0264   28.4565 C   0  0  2  0  0  0  0  0  0  0  0  0
    0.4505    4.6039   28.8907 O   0  0  0  0  0  0  0  0  0  0  0  0
    7.1749    4.9314   31.0719 C   0  0  2  0  0  0  0  0  0  0  0  0
    7.7456    3.6253   31.1671 O   0  0  0  0  0  0  0  0  0  0  0  0
   -4.4162   -0.4029   31.4013 C   0  0  2  0  0  0  0  0  0  0  0  0
   -4.1468    0.9275   30.8653 O   0  0  0  0  0  0  0  0  0  0  0  0
   -0.8744    1.3049   27.8240 C   0  0  2  0  0  0  0  0  0  0  0  0
   -0.7603    2.7166   28.1411 O   0  0  0  0  0  0  0  0  0  0  0  0
    1.6803    5.6070   27.0332 C   0  0  0  0  0  0  0  0  0  0  0  0
    1.5227    7.0147   27.0698 O   0  0  0  0  0  0  0  0  0  0  0  0
    5.9450    5.0528   32.0243 C   0  0  1  0  0  0  0  0  0  0  0  0
    4.8605    4.2060   31.5352 O   0  0  0  0  0  0  0  0  0  0  0  0
   -5.9289   -0.6564   31.2158 C   0  0  0  0  0  0  0  0  0  0  0  0
   -6.6950    0.4490   31.6638 O   0  0  0  0  0  0  0  0  0  0  0  0
   -0.8837    1.1496   26.2715 C   0  0  1  0  0  0  0  0  0  0  0  0
    0.3998    1.5139   25.7658 O   0  0  0  0  0  0  0  0  0  0  0  0
    6.2782    4.6543   33.4849 C   0  0  0  0  0  0  0  0  0  0  0  0
    5.0997    4.7164   34.3684 N   0  0  0  0  0  0  0  0  0  0  0  0
  1  2  1  6  0  0  0
  1  7  1  0  0  0  0
  1 30  1  0  0  0  0
  3  4  1  6  0  0  0
  3  9  1  0  0  0  0
  3 39  1  0  0  0  0
  5 10  1  0  0  0  0
  5 26  1  0  0  0  0
  5 32  1  6  0  0  0
  6 12  1  0  0  0  0
  6 36  1  0  0  0  0
  6 19  1  6  0  0  0
  7  8  1  6  0  0  0
  7 14  1  0  0  0  0
  9 16  1  0  0  0  0
 10 11  1  1  0  0  0
 10 18  1  0  0  0  0
 12 13  1  1  0  0  0
 12 20  1  0  0  0  0
 14 15  1  1  0  0  0
 14 22  1  0  0  0  0
 16 17  1  6  0  0  0
 16 24  1  0  0  0  0
 18 19  1  1  0  0  0
 18 25  1  0  0  0  0
 20 21  1  1  0  0  0
 20 27  1  0  0  0  0
 22 23  1  6  0  0  0
 22 29  1  0  0  0  0
 24  2  1  1  0  0  0
 24 31  1  0  0  0  0
 25 26  1  0  0  0  0
 25 33  1  6  0  0  0
 27 28  1  6  0  0  0
 27 35  1  0  0  0  0
 29 30  1  0  0  0  0
 29 37  1  1  0  0  0
 31 32  1  6  0  0  0
 31 39  1  0  0  0  0
 33 34  1  0  0  0  0
 35 36  1  0  0  0  0
 35 41  1  1  0  0  0
 37 38  1  0  0  0  0
 39 40  1  1  0  0  0
 41 42  1  0  0  0  0
M  END
>  <CHROM.1>
-167.83257393,-119.70298977,174.18627553,153.73675788,177.84128195,-30.34263530
179.15658477,38.70310500,169.20306853,-53.82403918,-55.29815609,-44.23758407
-147.78871749,49.95745267,73.13937244,117.60325208,51.73526262,-76.92263517
-177.59387774,58.28520326,-56.83978827,-144.61218569,0.58316965,2.25870625
29.79159482,-3.12018101,-0.49503145,-1.51761084

>  <Name>
1fyp_lig

>  <RI>
0

>  <Rbt.Current_Directory>
/home/itssahil/PROJECTS/Mol_Feturizer/New_Systems/rnas/1fyp

>  <Rbt.Executable>
rbdock ($Id: //depot/dev/client3/rdock/2013.1/src/exe/rbdock.cxx#4 $)

>  <Rbt.Library>
libRbt.so (2013.1, Build901 2013/11/27)

>  <Rbt.Parameter_File>
/export/apps/rDock/src/rDock_2013.1_src/data/scripts/dock_solv.prm

>  <Rbt.Receptor>
prm/pocket_docking_8.prm

>  <SCORE>
-32.447

>  <SCORE.INTER>
-29.1726

>  <SCORE.INTER.CONST>
1

>  <SCORE.INTER.POLAR>
-3.81317

>  <SCORE.INTER.ROT>
14

>  <SCORE.INTER.SOLV>
10.6028

>  <SCORE.INTER.VDW>
-23.2055

>  <SCORE.INTER.norm>
-0.694586

>  <SCORE.INTRA>
-3.2744

>  <SCORE.INTRA.DIHEDRAL>
-20.6614

>  <SCORE.INTRA.DIHEDRAL.0>
48.7173

>  <SCORE.INTRA.POLAR>
1.46997

>  <SCORE.INTRA.POLAR.0>
-1.54691

>  <SCORE.INTRA.REPUL>
0.000896442

>  <SCORE.INTRA.REPUL.0>
0

>  <SCORE.INTRA.SOLV>
-2.06676

>  <SCORE.INTRA.SOLV.lig_0>
-64.052

>  <SCORE.INTRA.VDW>
3.08728

>  <SCORE.INTRA.VDW.0>
-7.0667

>  <SCORE.INTRA.norm>
-0.077962

>  <SCORE.RESTR>
0

>  <SCORE.RESTR.CAVITY>
0

>  <SCORE.RESTR.norm>
0

>  <SCORE.SYSTEM>
0

>  <SCORE.SYSTEM.CONST>
0

>  <SCORE.SYSTEM.DIHEDRAL>
0

>  <SCORE.SYSTEM.SOLV>
0

>  <SCORE.SYSTEM.norm>
0

>  <SCORE.heavy>
42

>  <SCORE.norm>
-0.772548

>  <RMSD>
10.641

$$$$
1fyp_lig
 OpenBabel11021811393D
libRbt.so/2013.1/901 2013/11/27
 42 45  0  0  0  0  0  0  0  0999 V2000
   -2.4290   -0.7506   27.9293 C   0  0  2  0  0  0  0  0  0  0  0  0
   -1.9432    0.3573   28.7411 O   0  0  0  0  0  0  0  0  0  0  0  0
   -3.3399    1.8816   32.4783 C   0  0  2  0  0  0  0  0  0  0  0  0
   -3.7299    2.0969   33.8840 N   0  0  0  0  0  0  0  0  0  0  0  0
    0.9383    2.1582   30.1349 C   0  0  1  0  0  0  0  0  0  0  0  0
    3.0619    3.8815   26.6687 C   0  0  1  0  0  0  0  0  0  0  0  0
   -1.6310   -0.8727   26.5912 C   0  0  2  0  0  0  0  0  0  0  0  0
   -0.1730   -0.8842   26.8355 N   0  0  0  0  0  0  0  0  0  0  0  0
   -4.0190    0.6032   31.9477 C   0  0  0  0  0  0  0  0  0  0  0  0
    0.8952    1.8655   28.6329 C   0  0  2  0  0  0  0  0  0  0  0  0
    1.9734    0.9961   28.2850 O   0  0  0  0  0  0  0  0  0  0  0  0
    4.6145    4.0102   26.7322 C   0  0  2  0  0  0  0  0  0  0  0  0
    5.0696    4.9038   27.8252 N   0  0  0  0  0  0  0  0  0  0  0  0
   -2.0069    0.2833   25.6121 C   0  0  1  0  0  0  0  0  0  0  0  0
   -1.3946    0.0709   24.3426 O   0  0  0  0  0  0  0  0  0  0  0  0
   -3.6731    0.3286   30.4586 C   0  0  2  0  0  0  0  0  0  0  0  0
   -4.3041   -0.9520   30.0773 N   0  0  0  0  0  0  0  0  0  0  0  0
    1.0917    3.2616   28.0355 C   0  0  2  0  0  0  0  0  0  0  0  0
    2.4974    3.6330   27.9826 O   0  0  0  0  0  0  0  0  0  0  0  0
    5.1916    4.4596   25.3546 C   0  0  1  0  0  0  0  0  0  0  0  0
    5.1148    3.3596   24.4502 O   0  0  0  0  0  0  0  0  0  0  0  0
   -3.5389    0.3906   25.4084 C   0  0  2  0  0  0  0  0  0  0  0  0
   -3.8205    1.5169   24.5832 O   0  0  0  0  0  0  0  0  0  0  0  0
   -2.1261    0.3100   30.1853 C   0  0  2  0  0  0  0  0  0  0  0  0
    0.3364    4.1486   29.0351 C   0  0  2  0  0  0  0  0  0  0  0  0
    0.4726    3.5050   30.3169 O   0  0  0  0  0  0  0  0  0  0  0  0
    4.4445    5.6693   24.7157 C   0  0  2  0  0  0  0  0  0  0  0  0
    4.7909    6.8510   25.4398 O   0  0  0  0  0  0  0  0  0  0  0  0
   -4.2584    0.5239   26.7806 C   0  0  2  0  0  0  0  0  0  0  0  0
   -3.8580   -0.5855   27.6402 O   0  0  0  0  0  0  0  0  0  0  0  0
   -1.3739    1.5222   30.8447 C   0  0  2  0  0  0  0  0  0  0  0  0
    0.0487    1.2353   30.8253 O   0  0  0  0  0  0  0  0  0  0  0  0
   -1.1524    4.3195   28.6844 C   0  0  0  0  0  0  0  0  0  0  0  0
   -1.7919    3.0603   28.5691 O   0  0  0  0  0  0  0  0  0  0  0  0
    2.9004    5.4486   24.7517 C   0  0  1  0  0  0  0  0  0  0  0  0
    2.4848    5.1105   26.1103 O   0  0  0  0  0  0  0  0  0  0  0  0
   -5.8015    0.4936   26.7096 C   0  0  0  0  0  0  0  0  0  0  0  0
   -6.2688   -0.7371   26.1837 O   0  0  0  0  0  0  0  0  0  0  0  0
   -1.8038    1.7737   32.3234 C   0  0  1  0  0  0  0  0  0  0  0  0
   -1.2015    2.9850   32.7770 O   0  0  0  0  0  0  0  0  0  0  0  0
    2.1071    6.6923   24.2751 C   0  0  0  0  0  0  0  0  0  0  0  0
    2.3207    6.9826   22.8457 N   0  0  0  0  0  0  0  0  0  0  0  0
  1  2  1  6  0  0  0
  1  7  1  0  0  0  0
  1 30  1  0  0  0  0
  3  4  1  1  0  0  0
  3  9  1  0  0  0  0
  3 39  1  0  0  0  0
  5 10  1  0  0  0  0
  5 26  1  0  0  0  0
  5 32  1  1  0  0  0
  6 12  1  0  0  0  0
  6 36  1  0  0  0  0
  6 19  1  1  0  0  0
  7  8  1  1  0  0  0
  7 14  1  0  0  0  0
  9 16  1  0  0  0  0
 10 11  1  6  0  0  0
 10 18  1  0  0  0  0
 12 13  1  1  0  0  0
 12 20  1  0  0  0  0
 14 15  1  6  0  0  0
 14 22  1  0  0  0  0
 16 17  1  1  0  0  0
 16 24  1  0  0  0  0
 18 19  1  1  0  0  0
 18 25  1  0  0  0  0
 20 21  1  6  0  0  0
 20 27  1  0  0  0  0
 22 23  1  6  0  0  0
 22 29  1  0  0  0  0
 24  2  1  6  0  0  0
 24 31  1  0  0  0  0
 25 26  1  0  0  0  0
 25 33  1  6  0  0  0
 27 28  1  1  0  0  0
 27 35  1  0  0  0  0
 29 30  1  0  0  0  0
 29 37  1  6  0  0  0
 31 32  1  1  0  0  0
 31 39  1  0  0  0  0
 33 34  1  0  0  0  0
 35 36  1  0  0  0  0
 35 41  1  1  0  0  0
 37 38  1  0  0  0  0
 39 40  1  6  0  0  0
 41 42  1  0  0  0  0
M  END
>  <CHROM.1>
-154.26700495,-63.99212885,-179.64159556,-97.52215611,69.82483925,-160.20793553
-55.83312955,152.96434988,118.20087692,-169.57680358,22.18845537,-57.12053033
55.72879809,-75.05668619,61.63592691,121.29792420,-80.73543720,179.34133269
66.42328220,-77.38523711,-24.26507970,160.44344574,-0.36240313,2.29189472
27.87933729,2.75268246,0.58795132,1.51669952

>  <Name>
1fyp_lig

>  <RI>
0

>  <Rbt.Current_Directory>
/home/itssahil/PROJECTS/Mol_Feturizer/New_Systems/rnas/1fyp

>  <Rbt.Executable>
rbdock ($Id: //depot/dev/client3/rdock/2013.1/src/exe/rbdock.cxx#4 $)

>  <Rbt.Library>
libRbt.so (2013.1, Build901 2013/11/27)

>  <Rbt.Parameter_File>
/export/apps/rDock/src/rDock_2013.1_src/data/scripts/dock_solv.prm

>  <Rbt.Receptor>
prm/blind_docking_80.prm

>  <SCORE>
-34.1548

>  <SCORE.INTER>
-40.8207

>  <SCORE.INTER.CONST>
1

>  <SCORE.INTER.POLAR>
-5.6755

>  <SCORE.INTER.ROT>
14

>  <SCORE.INTER.SOLV>
17.8627

>  <SCORE.INTER.VDW>
-27.183

>  <SCORE.INTER.norm>
-0.971921

>  <SCORE.INTRA>
4.85875

>  <SCORE.INTRA.DIHEDRAL>
-12.0743

>  <SCORE.INTRA.DIHEDRAL.0>
48.7173

>  <SCORE.INTRA.POLAR>
0.779429

>  <SCORE.INTRA.POLAR.0>
-1.54691

>  <SCORE.INTRA.REPUL>
0.875888

>  <SCORE.INTRA.REPUL.0>
0

>  <SCORE.INTRA.SOLV>
1.52003

>  <SCORE.INTRA.SOLV.lig_0>
-64.052

>  <SCORE.INTRA.VDW>
3.10641

>  <SCORE.INTRA.VDW.0>
-7.0667

>  <SCORE.INTRA.norm>
0.115685

>  <SCORE.RESTR>
1.80712

>  <SCORE.RESTR.CAVITY>
1.80712

>  <SCORE.RESTR.norm>
0.0430266

>  <SCORE.SYSTEM>
0

>  <SCORE.SYSTEM.CONST>
0

>  <SCORE.SYSTEM.DIHEDRAL>
0

>  <SCORE.SYSTEM.SOLV>
0

>  <SCORE.SYSTEM.norm>
0

>  <SCORE.heavy>
42

>  <SCORE.norm>
-0.813209

>  <RMSD>
10.655

$$$$
1fyp_lig
 OpenBabel11021811393D
libRbt.so/2013.1/901 2013/11/27
 42 45  0  0  0  0  0  0  0  0999 V2000
   -4.7294   -0.6459   27.2022 C   0  0  2  0  0  0  0  0  0  0  0  0
   -4.3547    0.7081   26.8167 O   0  0  0  0  0  0  0  0  0  0  0  0
   -0.7870   -0.5867   24.8582 C   0  0  2  0  0  0  0  0  0  0  0  0
    0.4784   -0.6989   24.1094 N   0  0  0  0  0  0  0  0  0  0  0  0
   -0.8876    2.3792   27.9321 C   0  0  1  0  0  0  0  0  0  0  0  0
    1.6466    5.8556   28.3552 C   0  0  1  0  0  0  0  0  0  0  0  0
   -6.2627   -0.7577   27.4825 C   0  0  2  0  0  0  0  0  0  0  0  0
   -7.0541   -0.1963   26.3670 N   0  0  0  0  0  0  0  0  0  0  0  0
   -1.8311    0.1479   23.9937 C   0  0  0  0  0  0  0  0  0  0  0  0
   -1.1089    3.3281   29.1129 C   0  0  2  0  0  0  0  0  0  0  0  0
   -2.1243    4.2755   28.7799 O   0  0  0  0  0  0  0  0  0  0  0  0
    2.2513    6.0611   26.9328 C   0  0  2  0  0  0  0  0  0  0  0  0
    2.2721    4.8110   26.1346 N   0  0  0  0  0  0  0  0  0  0  0  0
   -6.6364   -0.0489   28.8219 C   0  0  1  0  0  0  0  0  0  0  0  0
   -8.0031   -0.2944   29.1435 O   0  0  0  0  0  0  0  0  0  0  0  0
   -3.2020    0.2783   24.7120 C   0  0  2  0  0  0  0  0  0  0  0  0
   -4.0976    1.0624   23.8364 N   0  0  0  0  0  0  0  0  0  0  0  0
    0.2609    4.0012   29.2354 C   0  0  2  0  0  0  0  0  0  0  0  0
    0.4054    5.1053   28.2992 O   0  0  0  0  0  0  0  0  0  0  0  0
    3.6706    6.7023   27.0197 C   0  0  1  0  0  0  0  0  0  0  0  0
    3.5270    8.0744   27.3806 O   0  0  0  0  0  0  0  0  0  0  0  0
   -5.7573   -0.5409   29.9990 C   0  0  2  0  0  0  0  0  0  0  0  0
   -6.0823    0.2073   31.1666 O   0  0  0  0  0  0  0  0  0  0  0  0
   -3.0839    0.9250   26.1389 C   0  0  2  0  0  0  0  0  0  0  0  0
    1.2159    2.8559   28.8710 C   0  0  2  0  0  0  0  0  0  0  0  0
    0.5077    2.0376   27.9198 O   0  0  0  0  0  0  0  0  0  0  0  0
    4.6141    6.0213   28.0570 C   0  0  2  0  0  0  0  0  0  0  0  0
    5.0287    4.7585   27.5335 O   0  0  0  0  0  0  0  0  0  0  0  0
   -4.2500   -0.3838   29.6501 C   0  0  2  0  0  0  0  0  0  0  0  0
   -3.9771   -1.0669   28.3897 O   0  0  0  0  0  0  0  0  0  0  0  0
   -1.9237    0.3036   26.9979 C   0  0  2  0  0  0  0  0  0  0  0  0
   -1.6841    1.1770   28.1320 O   0  0  0  0  0  0  0  0  0  0  0  0
    1.6358    2.0109   30.0868 C   0  0  0  0  0  0  0  0  0  0  0  0
    0.5197    1.7215   30.9105 O   0  0  0  0  0  0  0  0  0  0  0  0
    3.8861    5.8254   29.4231 C   0  0  1  0  0  0  0  0  0  0  0  0
    2.6109    5.1478   29.2065 O   0  0  0  0  0  0  0  0  0  0  0  0
   -3.2773   -0.9766   30.6939 C   0  0  0  0  0  0  0  0  0  0  0  0
   -3.4477   -0.3658   31.9618 O   0  0  0  0  0  0  0  0  0  0  0  0
   -0.5897    0.1549   26.2023 C   0  0  1  0  0  0  0  0  0  0  0  0
    0.3443   -0.5679   27.0028 O   0  0  0  0  0  0  0  0  0  0  0  0
    4.7271    5.0083   30.4372 C   0  0  0  0  0  0  0  0  0  0  0  0
    5.8728    5.7722   30.9634 N   0  0  0  0  0  0  0  0  0  0  0  0
  1  2  1  1  0  0  0
  1  7  1  0  0  0  0
  1 30  1  0  0  0  0
  3  4  1  6  0  0  0
  3  9  1  0  0  0  0
  3 39  1  0  0  0  0
  5 10  1  0  0  0  0
  5 26  1  0  0  0  0
  5 32  1  1  0  0  0
  6 12  1  0  0  0  0
  6 36  1  0  0  0  0
  6 19  1  6  0  0  0
  7  8  1  6  0  0  0
  7 14  1  0  0  0  0
  9 16  1  0  0  0  0
 10 11  1  6  0  0  0
 10 18  1  0  0  0  0
 12 13  1  1  0  0  0
 12 20  1  0  0  0  0
 14 15  1  1  0  0  0
 14 22  1  0  0  0  0
 16 17  1  6  0  0  0
 16 24  1  0  0  0  0
 18 19  1  6  0  0  0
 18 25  1  0  0  0  0
 20 21  1  1  0  0  0
 20 27  1  0  0  0  0
 22 23  1  1  0  0  0
 22 29  1  0  0  0  0
 24  2  1  1  0  0  0
 24 31  1  0  0  0  0
 25 26  1  0  0  0  0
 25 33  1  1  0  0  0
 27 28  1  6  0  0  0
 27 35  1  0  0  0  0
 29 30  1  0  0  0  0
 29 37  1  1  0  0  0
 31 32  1  1  0  0  0
 31 39  1  0  0  0  0
 33 34  1  0  0  0  0
 35 36  1  0  0  0  0
 35 41  1  1  0  0  0
 37 38  1  0  0  0  0
 39 40  1  1  0  0  0
 41 42  1  0  0  0  0
M  END
>  <CHROM.1>
-161.72026425,68.55503977,-144.63997450,172.55281591,178.06450105,-151.40640894
64.01472432,164.70591308,177.75679371,132.47216831,-52.61551085,-48.40496000
44.28917735,-63.98721169,-59.73916219,-79.84781575,163.50040806,-177.52514101
72.07060568,174.74551851,-173.30912040,-171.08897130,-0.94845268,2.13588140
28.04172647,-2.97988725,0.57452559,1.36686275

>  <Name>
1fyp_lig

>  <RI>
0

>  <Rbt.Current_Directory>
/home/itssahil/PROJECTS/Mol_Feturizer/New_Systems/rnas/1fyp

>  <Rbt.Executable>
rbdock ($Id: //depot/dev/client3/rdock/2013.1/src/exe/rbdock.cxx#4 $)

>  <Rbt.Library>
libRbt.so (2013.1, Build901 2013/11/27)

>  <Rbt.Parameter_File>
/export/apps/rDock/src/rDock_2013.1_src/data/scripts/dock_solv.prm

>  <Rbt.Receptor>
prm/pocket_docking_7.prm

>  <SCORE>
-49.6328

>  <SCORE.INTER>
-42.7102

>  <SCORE.INTER.CONST>
1

>  <SCORE.INTER.POLAR>
-4.63787

>  <SCORE.INTER.ROT>
14

>  <SCORE.INTER.SOLV>
19.3563

>  <SCORE.INTER.VDW>
-32.3993

>  <SCORE.INTER.norm>
-1.01691

>  <SCORE.INTRA>
-6.92267

>  <SCORE.INTRA.DIHEDRAL>
-30.6888

>  <SCORE.INTRA.DIHEDRAL.0>
48.7173

>  <SCORE.INTRA.POLAR>
1.20338

>  <SCORE.INTRA.POLAR.0>
-1.54691

>  <SCORE.INTRA.REPUL>
0

>  <SCORE.INTRA.REPUL.0>
0

>  <SCORE.INTRA.SOLV>
-0.880461

>  <SCORE.INTRA.SOLV.lig_0>
-64.052

>  <SCORE.INTRA.VDW>
4.77045

>  <SCORE.INTRA.VDW.0>
-7.0667

>  <SCORE.INTRA.norm>
-0.164826

>  <SCORE.RESTR>
0

>  <SCORE.RESTR.CAVITY>
0

>  <SCORE.RESTR.norm>
0

>  <SCORE.SYSTEM>
0

>  <SCORE.SYSTEM.CONST>
0

>  <SCORE.SYSTEM.DIHEDRAL>
0

>  <SCORE.SYSTEM.SOLV>
0

>  <SCORE.SYSTEM.norm>
0

>  <SCORE.heavy>
42

>  <SCORE.norm>
-1.18173

>  <RMSD>
10.667

$$$$
1fyp_lig
 OpenBabel11021811393D
libRbt.so/2013.1/901 2013/11/27
 42 45  0  0  0  0  0  0  0  0999 V2000
   -1.4324   -0.6049   23.6699 C   0  0  2  0  0  0  0  0  0  0  0  0
   -2.0116   -1.3228   24.7975 O   0  0  0  0  0  0  0  0  0  0  0  0
   -2.9036    0.3114   28.6412 C   0  0  2  0  0  0  0  0  0  0  0  0
   -2.8947    0.7645   30.0445 N   0  0  0  0  0  0  0  0  0  0  0  0
    0.2967    1.8487   26.3994 C   0  0  1  0  0  0  0  0  0  0  0  0
    4.2100    2.6858   28.1775 C   0  0  1  0  0  0  0  0  0  0  0  0
   -2.4763    0.3452   22.9991 C   0  0  2  0  0  0  0  0  0  0  0  0
   -3.1380    1.2077   24.0011 N   0  0  0  0  0  0  0  0  0  0  0  0
   -2.5527   -1.1888   28.5844 C   0  0  0  0  0  0  0  0  0  0  0  0
    1.3207    0.7374   26.6448 C   0  0  2  0  0  0  0  0  0  0  0  0
    1.0663    0.1249   27.9095 O   0  0  0  0  0  0  0  0  0  0  0  0
    4.2597    3.5309   29.4869 C   0  0  2  0  0  0  0  0  0  0  0  0
    3.1157    4.4676   29.6064 N   0  0  0  0  0  0  0  0  0  0  0  0
   -3.5399   -0.4722   22.2012 C   0  0  1  0  0  0  0  0  0  0  0  0
   -4.3875    0.4082   21.4675 O   0  0  0  0  0  0  0  0  0  0  0  0
   -2.5701   -1.7420   27.1332 C   0  0  2  0  0  0  0  0  0  0  0  0
   -2.1442   -3.1561   27.1840 N   0  0  0  0  0  0  0  0  0  0  0  0
    2.6360    1.5210   26.6610 C   0  0  2  0  0  0  0  0  0  0  0  0
    2.8898    2.1228   27.9610 O   0  0  0  0  0  0  0  0  0  0  0  0
    5.6219    4.2801   29.6133 C   0  0  1  0  0  0  0  0  0  0  0  0
    6.6327    3.3304   29.9449 O   0  0  0  0  0  0  0  0  0  0  0  0
   -2.8803   -1.4620   21.2086 C   0  0  2  0  0  0  0  0  0  0  0  0
   -3.8965   -2.2394   20.5827 O   0  0  0  0  0  0  0  0  0  0  0  0
   -1.6718   -0.9069   26.1514 C   0  0  2  0  0  0  0  0  0  0  0  0
    2.3777    2.6053   25.6055 C   0  0  2  0  0  0  0  0  0  0  0  0
    0.9656    2.8851   25.6629 O   0  0  0  0  0  0  0  0  0  0  0  0
    6.0604    5.0265   28.3170 C   0  0  2  0  0  0  0  0  0  0  0  0
    5.2411    6.1864   28.1616 O   0  0  0  0  0  0  0  0  0  0  0  0
   -1.8690   -2.3797   21.9525 C   0  0  2  0  0  0  0  0  0  0  0  0
   -0.9111   -1.5489   22.6749 O   0  0  0  0  0  0  0  0  0  0  0  0
   -1.8917    0.6431   26.2898 C   0  0  2  0  0  0  0  0  0  0  0  0
   -0.8024    1.3164   25.6067 O   0  0  0  0  0  0  0  0  0  0  0  0
    2.7733    2.1691   24.1836 C   0  0  0  0  0  0  0  0  0  0  0  0
    4.1824    2.1420   24.0372 O   0  0  0  0  0  0  0  0  0  0  0  0
    5.9229    4.0987   27.0701 C   0  0  1  0  0  0  0  0  0  0  0  0
    4.5805    3.5250   27.0313 O   0  0  0  0  0  0  0  0  0  0  0  0
   -1.0440   -3.3118   21.0372 C   0  0  0  0  0  0  0  0  0  0  0  0
    0.0105   -3.9336   21.7517 O   0  0  0  0  0  0  0  0  0  0  0  0
   -1.9128    1.1247   27.7738 C   0  0  1  0  0  0  0  0  0  0  0  0
   -2.2853    2.5017   27.8044 O   0  0  0  0  0  0  0  0  0  0  0  0
    6.1931    4.8435   25.7377 C   0  0  0  0  0  0  0  0  0  0  0  0
    5.3950    4.3068   24.6206 N   0  0  0  0  0  0  0  0  0  0  0  0
  1  2  1  1  0  0  0
  1  7  1  0  0  0  0
  1 30  1  0  0  0  0
  3  4  1  1  0  0  0
  3  9  1  0  0  0  0
  3 39  1  0  0  0  0
  5 10  1  0  0  0  0
  5 26  1  0  0  0  0
  5 32  1  6  0  0  0
  6 12  1  0  0  0  0
  6 36  1  0  0  0  0
  6 19  1  6  0  0  0
  7  8  1  1  0  0  0
  7 14  1  0  0  0  0
  9 16  1  0  0  0  0
 10 11  1  1  0  0  0
 10 18  1  0  0  0  0
 12 13  1  6  0  0  0
 12 20  1  0  0  0  0
 14 15  1  6  0  0  0
 14 22  1  0  0  0  0
 16 17  1  1  0  0  0
 16 24  1  0  0  0  0
 18 19  1  1  0  0  0
 18 25  1  0  0  0  0
 20 21  1  6  0  0  0
 20 27  1  0  0  0  0
 22 23  1  1  0  0  0
 22 29  1  0  0  0  0
 24  2  1  6  0  0  0
 24 31  1  0  0  0  0
 25 26  1  0  0  0  0
 25 33  1  6  0  0  0
 27 28  1  6  0  0  0
 27 35  1  0  0  0  0
 29 30  1  0  0  0  0
 29 37  1  6  0  0  0
 31 32  1  6  0  0  0
 31 39  1  0  0  0  0
 33 34  1  0  0  0  0
 35 36  1  0  0  0  0
 35 41  1  6  0  0  0
 37 38  1  0  0  0  0
 39 40  1  6  0  0  0
 41 42  1  0  0  0  0
M  END
>  <CHROM.1>
-104.47245109,173.34184121,-44.27219010,68.47783079,-70.11582408,122.82392110
-84.30439131,-59.56042440,169.24251382,169.02023514,159.44308451,-49.80396500
-73.13208621,-65.30917403,169.45048161,-100.62252469,85.36441780,49.40128781
-147.92161790,158.91859655,101.59466893,-147.74513708,0.63751922,1.12168486
25.85566201,-2.53413532,0.48720548,1.30074166

>  <Name>
1fyp_lig

>  <RI>
0

>  <Rbt.Current_Directory>
/home/itssahil/PROJECTS/Mol_Feturizer/New_Systems/rnas/1fyp

>  <Rbt.Executable>
rbdock ($Id: //depot/dev/client3/rdock/2013.1/src/exe/rbdock.cxx#4 $)

>  <Rbt.Library>
libRbt.so (2013.1, Build901 2013/11/27)

>  <Rbt.Parameter_File>
/export/apps/rDock/src/rDock_2013.1_src/data/scripts/dock_solv.prm

>  <Rbt.Receptor>
prm/blind_docking_80.prm

>  <SCORE>
-39.5481

>  <SCORE.INTER>
-43.4465

>  <SCORE.INTER.CONST>
1

>  <SCORE.INTER.POLAR>
-6.67173

>  <SCORE.INTER.ROT>
14

>  <SCORE.INTER.SOLV>
23.3725

>  <SCORE.INTER.VDW>
-27.4494

>  <SCORE.INTER.norm>
-1.03444

>  <SCORE.INTRA>
3.8984

>  <SCORE.INTRA.DIHEDRAL>
-10.779

>  <SCORE.INTRA.DIHEDRAL.0>
48.7173

>  <SCORE.INTRA.POLAR>
0.764067

>  <SCORE.INTRA.POLAR.0>
-1.54691

>  <SCORE.INTRA.REPUL>
0

>  <SCORE.INTRA.REPUL.0>
0

>  <SCORE.INTRA.SOLV>
-0.0601221

>  <SCORE.INTRA.SOLV.lig_0>
-64.052

>  <SCORE.INTRA.VDW>
6.72014

>  <SCORE.INTRA.VDW.0>
-7.0667

>  <SCORE.INTRA.norm>
0.0928191

>  <SCORE.RESTR>
0

>  <SCORE.RESTR.CAVITY>
0

>  <SCORE.RESTR.norm>
0

>  <SCORE.SYSTEM>
0

>  <SCORE.SYSTEM.CONST>
0

>  <SCORE.SYSTEM.DIHEDRAL>
0

>  <SCORE.SYSTEM.SOLV>
0

>  <SCORE.SYSTEM.norm>
0

>  <SCORE.heavy>
42

>  <SCORE.norm>
-0.941622

>  <RMSD>
10.672

$$$$
1fyp_lig
 OpenBabel11021811393D
libRbt.so/2013.1/901 2013/11/27
 42 45  0  0  0  0  0  0  0  0999 V2000
   -1.8997    0.1753   24.7037 C   0  0  2  0  0  0  0  0  0  0  0  0
   -2.6316   -0.1687   25.9154 O   0  0  0  0  0  0  0  0  0  0  0  0
   -2.3157    1.0028   30.0104 C   0  0  2  0  0  0  0  0  0  0  0  0
   -1.9282    1.2049   31.4188 N   0  0  0  0  0  0  0  0  0  0  0  0
    0.5651    2.5139   27.3649 C   0  0  1  0  0  0  0  0  0  0  0  0
    4.6218    3.5629   28.7091 C   0  0  1  0  0  0  0  0  0  0  0  0
   -2.8652    0.6224   23.5592 C   0  0  2  0  0  0  0  0  0  0  0  0
   -3.8036    1.6651   24.0259 N   0  0  0  0  0  0  0  0  0  0  0  0
   -2.4362   -0.5072   29.7232 C   0  0  0  0  0  0  0  0  0  0  0  0
    1.6696    1.4702   27.5502 C   0  0  2  0  0  0  0  0  0  0  0  0
    1.5826    0.9110   28.8614 O   0  0  0  0  0  0  0  0  0  0  0  0
    4.6789    4.7444   29.7250 C   0  0  2  0  0  0  0  0  0  0  0  0
    3.5661    5.7083   29.5437 N   0  0  0  0  0  0  0  0  0  0  0  0
   -3.6525   -0.5979   22.9874 C   0  0  1  0  0  0  0  0  0  0  0  0
   -4.4071   -0.2042   21.8440 O   0  0  0  0  0  0  0  0  0  0  0  0
   -2.8696   -0.7943   28.2596 C   0  0  2  0  0  0  0  0  0  0  0  0
   -2.8754   -2.2598   28.0698 N   0  0  0  0  0  0  0  0  0  0  0  0
    2.9336    2.3196   27.3908 C   0  0  2  0  0  0  0  0  0  0  0  0
    3.2868    2.9992   28.6277 O   0  0  0  0  0  0  0  0  0  0  0  0
    6.0639    5.4596   29.6681 C   0  0  1  0  0  0  0  0  0  0  0  0
    7.0357    4.6155   30.2819 O   0  0  0  0  0  0  0  0  0  0  0  0
   -2.7058   -1.7541   22.5785 C   0  0  2  0  0  0  0  0  0  0  0  0
   -3.4871   -2.8671   22.1546 O   0  0  0  0  0  0  0  0  0  0  0  0
   -1.9527   -0.0822   27.2011 C   0  0  2  0  0  0  0  0  0  0  0  0
    2.5068    3.3339   26.3205 C   0  0  2  0  0  0  0  0  0  0  0  0
    1.0947    3.5440   26.5150 O   0  0  0  0  0  0  0  0  0  0  0  0
    6.5493    5.7928   28.2248 C   0  0  2  0  0  0  0  0  0  0  0  0
    5.7732    6.8830   27.7250 O   0  0  0  0  0  0  0  0  0  0  0  0
   -1.7905   -2.1505   23.7716 C   0  0  2  0  0  0  0  0  0  0  0  0
   -1.0914   -0.9634   24.2530 O   0  0  0  0  0  0  0  0  0  0  0  0
   -1.6801    1.4270   27.5448 C   0  0  2  0  0  0  0  0  0  0  0  0
   -0.5788    1.8864   26.7186 O   0  0  0  0  0  0  0  0  0  0  0  0
    2.7765    2.8462   24.8859 C   0  0  0  0  0  0  0  0  0  0  0  0
    4.1630    2.8737   24.5953 O   0  0  0  0  0  0  0  0  0  0  0  0
    6.4006    4.5524   27.2901 C   0  0  1  0  0  0  0  0  0  0  0  0
    5.0400    4.0298   27.3815 O   0  0  0  0  0  0  0  0  0  0  0  0
   -0.7049   -3.1975   23.4363 C   0  0  0  0  0  0  0  0  0  0  0  0
   -1.2819   -4.4126   22.9892 O   0  0  0  0  0  0  0  0  0  0  0  0
   -1.2983    1.6512   29.0410 C   0  0  1  0  0  0  0  0  0  0  0  0
   -1.2388    3.0540   29.2945 O   0  0  0  0  0  0  0  0  0  0  0  0
    6.7184    4.8786   25.8083 C   0  0  0  0  0  0  0  0  0  0  0  0
    5.5774    5.4988   25.1109 N   0  0  0  0  0  0  0  0  0  0  0  0
  1  2  1  1  0  0  0
  1  7  1  0  0  0  0
  1 30  1  0  0  0  0
  3  4  1  1  0  0  0
  3  9  1  0  0  0  0
  3 39  1  0  0  0  0
  5 10  1  0  0  0  0
  5 26  1  0  0  0  0
  5 32  1  6  0  0  0
  6 12  1  0  0  0  0
  6 36  1  0  0  0  0
  6 19  1  6  0  0  0
  7  8  1  1  0  0  0
  7 14  1  0  0  0  0
  9 16  1  0  0  0  0
 10 11  1  1  0  0  0
 10 18  1  0  0  0  0
 12 13  1  6  0  0  0
 12 20  1  0  0  0  0
 14 15  1  6  0  0  0
 14 22  1  0  0  0  0
 16 17  1  6  0  0  0
 16 24  1  0  0  0  0
 18 19  1  1  0  0  0
 18 25  1  0  0  0  0
 20 21  1  6  0  0  0
 20 27  1  0  0  0  0
 22 23  1  1  0  0  0
 22 29  1  0  0  0  0
 24  2  1  6  0  0  0
 24 31  1  0  0  0  0
 25 26  1  0  0  0  0
 25 33  1  6  0  0  0
 27 28  1  6  0  0  0
 27 35  1  0  0  0  0
 29 30  1  0  0  0  0
 29 37  1  6  0  0  0
 31 32  1  6  0  0  0
 31 39  1  0  0  0  0
 33 34  1  0  0  0  0
 35 36  1  0  0  0  0
 35 41  1  6  0  0  0
 37 38  1  0  0  0  0
 39 40  1  1  0  0  0
 41 42  1  0  0  0  0
M  END
>  <CHROM.1>
-155.41594481,-168.09109178,64.51610536,71.02526026,72.32641575,60.02050367
-165.35261150,157.65806121,165.29615201,154.87837257,-64.55735587,63.27922596
-72.67871582,159.86871701,-60.56268599,-126.66557099,97.34211565,64.80613161
-81.59193700,179.64798918,-57.29688998,46.68882930,0.78697427,1.69626997
26.66881012,-2.63672684,0.54632865,1.29664916

>  <Name>
1fyp_lig

>  <RI>
0

>  <Rbt.Current_Directory>
/home/itssahil/PROJECTS/Mol_Feturizer/New_Systems/rnas/1fyp

>  <Rbt.Executable>
rbdock ($Id: //depot/dev/client3/rdock/2013.1/src/exe/rbdock.cxx#4 $)

>  <Rbt.Library>
libRbt.so (2013.1, Build901 2013/11/27)

>  <Rbt.Parameter_File>
/export/apps/rDock/src/rDock_2013.1_src/data/scripts/dock_solv.prm

>  <Rbt.Receptor>
prm/pocket_docking_5.prm

>  <SCORE>
-38.9897

>  <SCORE.INTER>
-33.7424

>  <SCORE.INTER.CONST>
1

>  <SCORE.INTER.POLAR>
-3.50524

>  <SCORE.INTER.ROT>
14

>  <SCORE.INTER.SOLV>
17.4386

>  <SCORE.INTER.VDW>
-29.557

>  <SCORE.INTER.norm>
-0.80339

>  <SCORE.INTRA>
-5.24736

>  <SCORE.INTRA.DIHEDRAL>
-22.1716

>  <SCORE.INTRA.DIHEDRAL.0>
48.7173

>  <SCORE.INTRA.POLAR>
0.457346

>  <SCORE.INTRA.POLAR.0>
-1.54691

>  <SCORE.INTRA.REPUL>
0.00544339

>  <SCORE.INTRA.REPUL.0>
0

>  <SCORE.INTRA.SOLV>
0.335179

>  <SCORE.INTRA.SOLV.lig_0>
-64.052

>  <SCORE.INTRA.VDW>
4.08865

>  <SCORE.INTRA.VDW.0>
-7.0667

>  <SCORE.INTRA.norm>
-0.124937

>  <SCORE.RESTR>
0

>  <SCORE.RESTR.CAVITY>
0

>  <SCORE.RESTR.norm>
0

>  <SCORE.SYSTEM>
0

>  <SCORE.SYSTEM.CONST>
0

>  <SCORE.SYSTEM.DIHEDRAL>
0

>  <SCORE.SYSTEM.SOLV>
0

>  <SCORE.SYSTEM.norm>
0

>  <SCORE.heavy>
42

>  <SCORE.norm>
-0.928327

>  <RMSD>
10.715

$$$$
1fyp_lig
 OpenBabel11021811393D
libRbt.so/2013.1/901 2013/11/27
 42 45  0  0  0  0  0  0  0  0999 V2000
   -3.1915    0.2900   27.1295 C   0  0  2  0  0  0  0  0  0  0  0  0
   -3.8368   -0.0649   28.3864 O   0  0  0  0  0  0  0  0  0  0  0  0
   -2.4714    1.9557   31.8926 C   0  0  2  0  0  0  0  0  0  0  0  0
   -1.8778    2.3423   33.1859 N   0  0  0  0  0  0  0  0  0  0  0  0
    0.1775    1.5520   28.3047 C   0  0  1  0  0  0  0  0  0  0  0  0
    3.2922    3.7471   26.5691 C   0  0  1  0  0  0  0  0  0  0  0  0
   -4.1516    0.0818   25.9142 C   0  0  2  0  0  0  0  0  0  0  0  0
   -5.4554    0.7407   26.1419 N   0  0  0  0  0  0  0  0  0  0  0  0
   -3.4206    0.7589   32.1012 C   0  0  0  0  0  0  0  0  0  0  0  0
    1.3673    0.7172   27.8238 C   0  0  2  0  0  0  0  0  0  0  0  0
    2.2560    0.4796   28.9162 O   0  0  0  0  0  0  0  0  0  0  0  0
    4.7740    3.5841   26.1120 C   0  0  2  0  0  0  0  0  0  0  0  0
    5.6788    3.2138   27.2276 N   0  0  0  0  0  0  0  0  0  0  0  0
   -4.3565   -1.4375   25.6213 C   0  0  1  0  0  0  0  0  0  0  0  0
   -5.1025   -1.6101   24.4190 O   0  0  0  0  0  0  0  0  0  0  0  0
   -4.1047    0.3140   30.7797 C   0  0  2  0  0  0  0  0  0  0  0  0
   -4.9232   -0.8804   31.0749 N   0  0  0  0  0  0  0  0  0  0  0  0
    2.0009    1.6446   26.7832 C   0  0  2  0  0  0  0  0  0  0  0  0
    2.8697    2.6349   27.4005 O   0  0  0  0  0  0  0  0  0  0  0  0
    5.2734    4.8669   25.3784 C   0  0  1  0  0  0  0  0  0  0  0  0
    4.6665    4.9172   24.0890 O   0  0  0  0  0  0  0  0  0  0  0  0
   -3.0065   -2.1833   25.4749 C   0  0  2  0  0  0  0  0  0  0  0  0
   -3.2600   -3.5743   25.3029 O   0  0  0  0  0  0  0  0  0  0  0  0
   -3.0769    0.0342   29.6250 C   0  0  2  0  0  0  0  0  0  0  0  0
    0.7701    2.3190   26.1614 C   0  0  2  0  0  0  0  0  0  0  0  0
   -0.2089    2.4046   27.2150 O   0  0  0  0  0  0  0  0  0  0  0  0
    4.9446    6.1954   26.1245 C   0  0  2  0  0  0  0  0  0  0  0  0
    5.8036    6.3029   27.2608 O   0  0  0  0  0  0  0  0  0  0  0  0
   -2.1162   -1.9397   26.7264 C   0  0  2  0  0  0  0  0  0  0  0  0
   -1.9718   -0.5030   26.9383 O   0  0  0  0  0  0  0  0  0  0  0  0
   -1.9947    1.1650   29.4821 C   0  0  2  0  0  0  0  0  0  0  0  0
   -0.9231    0.6609   28.6430 O   0  0  0  0  0  0  0  0  0  0  0  0
    0.1943    1.5388   24.9662 C   0  0  0  0  0  0  0  0  0  0  0  0
    1.0962    1.5508   23.8735 O   0  0  0  0  0  0  0  0  0  0  0  0
    3.4507    6.2232   26.5738 C   0  0  1  0  0  0  0  0  0  0  0  0
    3.1381    5.0033   27.3131 O   0  0  0  0  0  0  0  0  0  0  0  0
   -0.6869   -2.5181   26.6281 C   0  0  0  0  0  0  0  0  0  0  0  0
    0.0167   -2.3622   27.8488 O   0  0  0  0  0  0  0  0  0  0  0  0
   -1.3839    1.5994   30.8506 C   0  0  1  0  0  0  0  0  0  0  0  0
   -0.5472    2.7358   30.6400 O   0  0  0  0  0  0  0  0  0  0  0  0
    3.1152    7.4509   27.4590 C   0  0  0  0  0  0  0  0  0  0  0  0
    3.6511    8.7076   26.9055 N   0  0  0  0  0  0  0  0  0  0  0  0
  1  2  1  1  0  0  0
  1  7  1  0  0  0  0
  1 30  1  0  0  0  0
  3  4  1  1  0  0  0
  3  9  1  0  0  0  0
  3 39  1  0  0  0  0
  5 10  1  0  0  0  0
  5 26  1  0  0  0  0
  5 32  1  6  0  0  0
  6 12  1  0  0  0  0
  6 36  1  0  0  0  0
  6 19  1  1  0  0  0
  7  8  1  1  0  0  0
  7 14  1  0  0  0  0
  9 16  1  0  0  0  0
 10 11  1  1  0  0  0
 10 18  1  0  0  0  0
 12 13  1  1  0  0  0
 12 20  1  0  0  0  0
 14 15  1  6  0  0  0
 14 22  1  0  0  0  0
 16 17  1  1  0  0  0
 16 24  1  0  0  0  0
 18 19  1  1  0  0  0
 18 25  1  0  0  0  0
 20 21  1  6  0  0  0
 20 27  1  0  0  0  0
 22 23  1  1  0  0  0
 22 29  1  0  0  0  0
 24  2  1  6  0  0  0
 24 31  1  0  0  0  0
 25 26  1  0  0  0  0
 25 33  1  6  0  0  0
 27 28  1  1  0  0  0
 27 35  1  0  0  0  0
 29 30  1  0  0  0  0
 29 37  1  6  0  0  0
 31 32  1  6  0  0  0
 31 39  1  0  0  0  0
 33 34  1  0  0  0  0
 35 36  1  0  0  0  0
 35 41  1  1  0  0  0
 37 38  1  0  0  0  0
 39 40  1  6  0  0  0
 41 42  1  0  0  0  0
M  END
>  <CHROM.1>
178.43398467,151.95921034,81.41513330,56.74508758,-174.01436603,53.50495678
58.73526394,-43.34595211,-166.72380975,-104.43594728,72.63059367,-168.03881375
-67.14070560,-43.42430031,-174.64948621,177.02863496,161.86885639,71.32116566
46.35928720,-44.63347312,-64.33637982,-40.48439763,-0.05750944,1.67916178
27.54030519,-2.99242093,0.66488760,1.10345336

>  <Name>
1fyp_lig

>  <RI>
0

>  <Rbt.Current_Directory>
/home/itssahil/PROJECTS/Mol_Feturizer/New_Systems/rnas/1fyp

>  <Rbt.Executable>
rbdock ($Id: //depot/dev/client3/rdock/2013.1/src/exe/rbdock.cxx#4 $)

>  <Rbt.Library>
libRbt.so (2013.1, Build901 2013/11/27)

>  <Rbt.Parameter_File>
/export/apps/rDock/src/rDock_2013.1_src/data/scripts/dock_solv.prm

>  <Rbt.Receptor>
prm/blind_docking_40.prm

>  <SCORE>
-43.4078

>  <SCORE.INTER>
-38.1715

>  <SCORE.INTER.CONST>
1

>  <SCORE.INTER.POLAR>
-5.16986

>  <SCORE.INTER.ROT>
14

>  <SCORE.INTER.SOLV>
20.5368

>  <SCORE.INTER.VDW>
-27.9937

>  <SCORE.INTER.norm>
-0.908845

>  <SCORE.INTRA>
-7.32606

>  <SCORE.INTRA.DIHEDRAL>
-29.0265

>  <SCORE.INTRA.DIHEDRAL.0>
48.7173

>  <SCORE.INTRA.POLAR>
0.232599

>  <SCORE.INTRA.POLAR.0>
-1.54691

>  <SCORE.INTRA.REPUL>
0.176189

>  <SCORE.INTRA.REPUL.0>
0

>  <SCORE.INTRA.SOLV>
-2.23153

>  <SCORE.INTRA.SOLV.lig_0>
-64.052

>  <SCORE.INTRA.VDW>
6.63116

>  <SCORE.INTRA.VDW.0>
-7.0667

>  <SCORE.INTRA.norm>
-0.17443

>  <SCORE.RESTR>
2.08976

>  <SCORE.RESTR.CAVITY>
2.08976

>  <SCORE.RESTR.norm>
0.0497561

>  <SCORE.SYSTEM>
0

>  <SCORE.SYSTEM.CONST>
0

>  <SCORE.SYSTEM.DIHEDRAL>
0

>  <SCORE.SYSTEM.SOLV>
0

>  <SCORE.SYSTEM.norm>
0

>  <SCORE.heavy>
42

>  <SCORE.norm>
-1.03352

>  <RMSD>
10.737

$$$$
1fyp_lig
 OpenBabel11021811393D
libRbt.so/2013.1/901 2013/11/27
 42 45  0  0  0  0  0  0  0  0999 V2000
   -1.7026   -0.2711   26.1583 C   0  0  2  0  0  0  0  0  0  0  0  0
   -2.5748    0.2515   27.2016 O   0  0  0  0  0  0  0  0  0  0  0  0
   -2.2611    1.7697   31.1812 C   0  0  2  0  0  0  0  0  0  0  0  0
   -2.0195    1.9833   32.6202 N   0  0  0  0  0  0  0  0  0  0  0  0
    0.7654    2.1898   27.4868 C   0  0  1  0  0  0  0  0  0  0  0  0
    3.3596    5.2402   25.9593 C   0  0  1  0  0  0  0  0  0  0  0  0
   -1.9058    0.4895   24.8083 C   0  0  2  0  0  0  0  0  0  0  0  0
   -1.8244    1.9531   24.9999 N   0  0  0  0  0  0  0  0  0  0  0  0
   -3.0974    0.4893   30.9861 C   0  0  0  0  0  0  0  0  0  0  0  0
    1.2303    3.2856   28.4494 C   0  0  2  0  0  0  0  0  0  0  0  0
    0.2450    4.3176   28.5094 O   0  0  0  0  0  0  0  0  0  0  0  0
    4.4634    5.8136   26.8996 C   0  0  2  0  0  0  0  0  0  0  0  0
    3.9151    6.7187   27.9390 N   0  0  0  0  0  0  0  0  0  0  0  0
   -3.2687    0.1041   24.1526 C   0  0  1  0  0  0  0  0  0  0  0  0
   -3.3689    0.6796   22.8524 O   0  0  0  0  0  0  0  0  0  0  0  0
   -3.4141    0.2164   29.4902 C   0  0  2  0  0  0  0  0  0  0  0  0
   -4.1435   -1.0662   29.4099 N   0  0  0  0  0  0  0  0  0  0  0  0
    2.5106    3.7782   27.7692 C   0  0  2  0  0  0  0  0  0  0  0  0
    2.2263    4.7414   26.7166 O   0  0  0  0  0  0  0  0  0  0  0  0
    5.5879    6.5123   26.0748 C   0  0  1  0  0  0  0  0  0  0  0  0
    6.3694    5.5076   25.4317 O   0  0  0  0  0  0  0  0  0  0  0  0
   -3.4336   -1.4312   24.0259 C   0  0  2  0  0  0  0  0  0  0  0  0
   -4.7294   -1.7187   23.5093 O   0  0  0  0  0  0  0  0  0  0  0  0
   -2.1285    0.2030   28.5872 C   0  0  2  0  0  0  0  0  0  0  0  0
    3.0787    2.4816   27.1752 C   0  0  2  0  0  0  0  0  0  0  0  0
    1.9387    1.6647   26.8453 O   0  0  0  0  0  0  0  0  0  0  0  0
    5.0611    7.4932   24.9838 C   0  0  2  0  0  0  0  0  0  0  0  0
    4.5675    8.6680   25.6295 O   0  0  0  0  0  0  0  0  0  0  0  0
   -3.2323   -2.1122   25.4093 C   0  0  2  0  0  0  0  0  0  0  0  0
   -1.9436   -1.7048   25.9599 O   0  0  0  0  0  0  0  0  0  0  0  0
   -1.1712    1.4174   28.8680 C   0  0  2  0  0  0  0  0  0  0  0  0
    0.1100    1.1352   28.2472 O   0  0  0  0  0  0  0  0  0  0  0  0
    4.0056    1.7290   28.1463 C   0  0  0  0  0  0  0  0  0  0  0  0
    4.9527    2.6096   28.7253 O   0  0  0  0  0  0  0  0  0  0  0  0
    3.9307    6.8272   24.1394 C   0  0  1  0  0  0  0  0  0  0  0  0
    2.9089    6.2834   25.0298 O   0  0  0  0  0  0  0  0  0  0  0  0
   -3.2313   -3.6569   25.3779 C   0  0  0  0  0  0  0  0  0  0  0  0
   -4.5312   -4.1678   25.1354 O   0  0  0  0  0  0  0  0  0  0  0  0
   -0.9349    1.6670   30.3900 C   0  0  1  0  0  0  0  0  0  0  0  0
   -0.2006    2.8801   30.5478 O   0  0  0  0  0  0  0  0  0  0  0  0
    3.2637    7.8149   23.1481 C   0  0  0  0  0  0  0  0  0  0  0  0
    2.4357    7.1283   22.1403 N   0  0  0  0  0  0  0  0  0  0  0  0
  1  2  1  1  0  0  0
  1  7  1  0  0  0  0
  1 30  1  0  0  0  0
  3  4  1  1  0  0  0
  3  9  1  0  0  0  0
  3 39  1  0  0  0  0
  5 10  1  0  0  0  0
  5 26  1  0  0  0  0
  5 32  1  1  0  0  0
  6 12  1  0  0  0  0
  6 36  1  0  0  0  0
  6 19  1  1  0  0  0
  7  8  1  1  0  0  0
  7 14  1  0  0  0  0
  9 16  1  0  0  0  0
 10 11  1  6  0  0  0
 10 18  1  0  0  0  0
 12 13  1  1  0  0  0
 12 20  1  0  0  0  0
 14 15  1  6  0  0  0
 14 22  1  0  0  0  0
 16 17  1  1  0  0  0
 16 24  1  0  0  0  0
 18 19  1  6  0  0  0
 18 25  1  0  0  0  0
 20 21  1  6  0  0  0
 20 27  1  0  0  0  0
 22 23  1  1  0  0  0
 22 29  1  0  0  0  0
 24  2  1  6  0  0  0
 24 31  1  0  0  0  0
 25 26  1  0  0  0  0
 25 33  1  1  0  0  0
 27 28  1  1  0  0  0
 27 35  1  0  0  0  0
 29 30  1  0  0  0  0
 29 37  1  6  0  0  0
 31 32  1  6  0  0  0
 31 39  1  0  0  0  0
 33 34  1  0  0  0  0
 35 36  1  0  0  0  0
 35 41  1  6  0  0  0
 37 38  1  0  0  0  0
 39 40  1  6  0  0  0
 41 42  1  0  0  0  0
M  END
>  <CHROM.1>
-149.37765448,-155.69043908,79.17683395,93.58227415,167.58217962,75.84008608
-172.91669929,157.91075262,-177.51696044,-53.31569861,98.42263960,-43.12088642
-47.98790660,173.14321652,-71.69246857,135.16493183,69.01903054,174.54561739
166.33181151,-68.39339608,76.49734155,-103.85366784,0.27767451,2.38967414
26.81859912,3.01801000,0.77602088,1.62791325

>  <Name>
1fyp_lig

>  <RI>
0

>  <Rbt.Current_Directory>
/home/itssahil/PROJECTS/Mol_Feturizer/New_Systems/rnas/1fyp

>  <Rbt.Executable>
rbdock ($Id: //depot/dev/client3/rdock/2013.1/src/exe/rbdock.cxx#4 $)

>  <Rbt.Library>
libRbt.so (2013.1, Build901 2013/11/27)

>  <Rbt.Parameter_File>
/export/apps/rDock/src/rDock_2013.1_src/data/scripts/dock_solv.prm

>  <Rbt.Receptor>
prm/blind_docking_40.prm

>  <SCORE>
-46.1008

>  <SCORE.INTER>
-45.1847

>  <SCORE.INTER.CONST>
1

>  <SCORE.INTER.POLAR>
-6.44187

>  <SCORE.INTER.ROT>
14

>  <SCORE.INTER.SOLV>
15.643

>  <SCORE.INTER.VDW>
-26.7979

>  <SCORE.INTER.norm>
-1.07583

>  <SCORE.INTRA>
-0.966808

>  <SCORE.INTRA.DIHEDRAL>
-19.4176

>  <SCORE.INTRA.DIHEDRAL.0>
48.7173

>  <SCORE.INTRA.POLAR>
1.54177

>  <SCORE.INTRA.POLAR.0>
-1.54691

>  <SCORE.INTRA.REPUL>
0

>  <SCORE.INTRA.REPUL.0>
0

>  <SCORE.INTRA.SOLV>
-1.46852

>  <SCORE.INTRA.SOLV.lig_0>
-64.052

>  <SCORE.INTRA.VDW>
4.23424

>  <SCORE.INTRA.VDW.0>
-7.0667

>  <SCORE.INTRA.norm>
-0.0230192

>  <SCORE.RESTR>
0.0507726

>  <SCORE.RESTR.CAVITY>
0.0507726

>  <SCORE.RESTR.norm>
0.00120887

>  <SCORE.SYSTEM>
0

>  <SCORE.SYSTEM.CONST>
0

>  <SCORE.SYSTEM.DIHEDRAL>
0

>  <SCORE.SYSTEM.SOLV>
0

>  <SCORE.SYSTEM.norm>
0

>  <SCORE.heavy>
42

>  <SCORE.norm>
-1.09764

>  <RMSD>
10.754

$$$$
1fyp_lig
 OpenBabel11021811393D
libRbt.so/2013.1/901 2013/11/27
 42 45  0  0  0  0  0  0  0  0999 V2000
   -2.0425   -1.5690   26.2396 C   0  0  2  0  0  0  0  0  0  0  0  0
   -2.1915   -0.2099   26.7426 O   0  0  0  0  0  0  0  0  0  0  0  0
   -1.8542    2.0835   30.3296 C   0  0  2  0  0  0  0  0  0  0  0  0
   -1.5046    2.6362   31.6513 N   0  0  0  0  0  0  0  0  0  0  0  0
    0.8911    2.8594   26.9117 C   0  0  1  0  0  0  0  0  0  0  0  0
    3.7634    5.9603   26.1155 C   0  0  1  0  0  0  0  0  0  0  0  0
   -0.9856   -1.6415   25.0908 C   0  0  2  0  0  0  0  0  0  0  0  0
    0.2819   -0.9913   25.4863 N   0  0  0  0  0  0  0  0  0  0  0  0
   -2.2547    0.6026   30.4826 C   0  0  0  0  0  0  0  0  0  0  0  0
    2.2517    2.7920   27.6103 C   0  0  2  0  0  0  0  0  0  0  0  0
    2.1533    3.3868   28.9049 O   0  0  0  0  0  0  0  0  0  0  0  0
    4.0581    7.3017   26.8538 C   0  0  2  0  0  0  0  0  0  0  0  0
    2.8535    7.8724   27.5046 N   0  0  0  0  0  0  0  0  0  0  0  0
   -1.5406   -0.9952   23.7829 C   0  0  1  0  0  0  0  0  0  0  0  0
   -0.6327   -1.2093   22.7051 O   0  0  0  0  0  0  0  0  0  0  0  0
   -2.6633   -0.0386   29.1282 C   0  0  2  0  0  0  0  0  0  0  0  0
   -2.9476   -1.4679   29.3730 N   0  0  0  0  0  0  0  0  0  0  0  0
    3.1256    3.6339   26.6766 C   0  0  2  0  0  0  0  0  0  0  0  0
    2.9907    5.0568   26.9480 O   0  0  0  0  0  0  0  0  0  0  0  0
    4.7241    8.3317   25.8902 C   0  0  1  0  0  0  0  0  0  0  0  0
    6.0714    7.9277   25.6555 O   0  0  0  0  0  0  0  0  0  0  0  0
   -2.9192   -1.5827   23.3899 C   0  0  2  0  0  0  0  0  0  0  0  0
   -3.4116   -0.8893   22.2474 O   0  0  0  0  0  0  0  0  0  0  0  0
   -1.5732    0.1467   28.0122 C   0  0  2  0  0  0  0  0  0  0  0  0
    2.5466    3.2903   25.2970 C   0  0  2  0  0  0  0  0  0  0  0  0
    1.1444    3.0358   25.5086 O   0  0  0  0  0  0  0  0  0  0  0  0
    4.0088    8.4685   24.5119 C   0  0  2  0  0  0  0  0  0  0  0  0
    2.7852    9.1803   24.7039 O   0  0  0  0  0  0  0  0  0  0  0  0
   -3.9168   -1.4602   24.5766 C   0  0  2  0  0  0  0  0  0  0  0  0
   -3.3310   -2.0817   25.7600 O   0  0  0  0  0  0  0  0  0  0  0  0
   -1.0266    1.6179   27.9294 C   0  0  2  0  0  0  0  0  0  0  0  0
    0.1829    1.6057   27.1273 O   0  0  0  0  0  0  0  0  0  0  0  0
    3.2153    2.0640   24.6508 C   0  0  0  0  0  0  0  0  0  0  0  0
    4.6014    2.2869   24.4592 O   0  0  0  0  0  0  0  0  0  0  0  0
    3.7241    7.0645   23.8938 C   0  0  1  0  0  0  0  0  0  0  0  0
    3.0318    6.2294   24.8714 O   0  0  0  0  0  0  0  0  0  0  0  0
   -5.2833   -2.1442   24.3485 C   0  0  0  0  0  0  0  0  0  0  0  0
   -6.2365   -1.7234   25.3096 O   0  0  0  0  0  0  0  0  0  0  0  0
   -0.6825    2.2190   29.3275 C   0  0  1  0  0  0  0  0  0  0  0  0
   -0.3611    3.5999   29.1672 O   0  0  0  0  0  0  0  0  0  0  0  0
    2.8720    7.1418   22.6011 C   0  0  0  0  0  0  0  0  0  0  0  0
    3.1944    8.3255   21.7839 N   0  0  0  0  0  0  0  0  0  0  0  0
  1  2  1  6  0  0  0
  1  7  1  0  0  0  0
  1 30  1  0  0  0  0
  3  4  1  1  0  0  0
  3  9  1  0  0  0  0
  3 39  1  0  0  0  0
  5 10  1  0  0  0  0
  5 26  1  0  0  0  0
  5 32  1  6  0  0  0
  6 12  1  0  0  0  0
  6 36  1  0  0  0  0
  6 19  1  1  0  0  0
  7  8  1  1  0  0  0
  7 14  1  0  0  0  0
  9 16  1  0  0  0  0
 10 11  1  1  0  0  0
 10 18  1  0  0  0  0
 12 13  1  6  0  0  0
 12 20  1  0  0  0  0
 14 15  1  6  0  0  0
 14 22  1  0  0  0  0
 16 17  1  1  0  0  0
 16 24  1  0  0  0  0
 18 19  1  1  0  0  0
 18 25  1  0  0  0  0
 20 21  1  6  0  0  0
 20 27  1  0  0  0  0
 22 23  1  6  0  0  0
 22 29  1  0  0  0  0
 24  2  1  6  0  0  0
 24 31  1  0  0  0  0
 25 26  1  0  0  0  0
 25 33  1  1  0  0  0
 27 28  1  1  0  0  0
 27 35  1  0  0  0  0
 29 30  1  0  0  0  0
 29 37  1  6  0  0  0
 31 32  1  6  0  0  0
 31 39  1  0  0  0  0
 33 34  1  0  0  0  0
 35 36  1  0  0  0  0
 35 41  1  6  0  0  0
 37 38  1  0  0  0  0
 39 40  1  6  0  0  0
 41 42  1  0  0  0  0
M  END
>  <CHROM.1>
-103.29646576,-94.29204897,101.29127054,-178.68050633,-59.11919208,28.62940329
-171.73349636,-46.40693255,-179.41671636,-154.13860447,-65.68882531,64.54349458
-60.57092808,175.09051600,-165.75746442,-179.43729251,113.60484971,70.08820478
35.94243179,71.69963396,66.39918420,-110.16463520,0.41071903,2.61054515,26.15951773
-3.07667241,0.87630715,1.38255687

>  <Name>
1fyp_lig

>  <RI>
0

>  <Rbt.Current_Directory>
/home/itssahil/PROJECTS/Mol_Feturizer/New_Systems/rnas/1fyp

>  <Rbt.Executable>
rbdock ($Id: //depot/dev/client3/rdock/2013.1/src/exe/rbdock.cxx#4 $)

>  <Rbt.Library>
libRbt.so (2013.1, Build901 2013/11/27)

>  <Rbt.Parameter_File>
/export/apps/rDock/src/rDock_2013.1_src/data/scripts/dock_solv.prm

>  <Rbt.Receptor>
prm/pocket_docking_8.prm

>  <SCORE>
-54.3211

>  <SCORE.INTER>
-49.5863

>  <SCORE.INTER.CONST>
1

>  <SCORE.INTER.POLAR>
-7.15116

>  <SCORE.INTER.ROT>
14

>  <SCORE.INTER.SOLV>
19.4352

>  <SCORE.INTER.VDW>
-28.6321

>  <SCORE.INTER.norm>
-1.18063

>  <SCORE.INTRA>
-4.7348

>  <SCORE.INTRA.DIHEDRAL>
-17.883

>  <SCORE.INTRA.DIHEDRAL.0>
48.7173

>  <SCORE.INTRA.POLAR>
0.390883

>  <SCORE.INTRA.POLAR.0>
-1.54691

>  <SCORE.INTRA.REPUL>
0.0168042

>  <SCORE.INTRA.REPUL.0>
0

>  <SCORE.INTRA.SOLV>
-1.32399

>  <SCORE.INTRA.SOLV.lig_0>
-64.052

>  <SCORE.INTRA.VDW>
3.45568

>  <SCORE.INTRA.VDW.0>
-7.0667

>  <SCORE.INTRA.norm>
-0.112733

>  <SCORE.RESTR>
0

>  <SCORE.RESTR.CAVITY>
0

>  <SCORE.RESTR.norm>
0

>  <SCORE.SYSTEM>
0

>  <SCORE.SYSTEM.CONST>
0

>  <SCORE.SYSTEM.DIHEDRAL>
0

>  <SCORE.SYSTEM.SOLV>
0

>  <SCORE.SYSTEM.norm>
0

>  <SCORE.heavy>
42

>  <SCORE.norm>
-1.29336

>  <RMSD>
10.762

$$$$
1fyp_lig
 OpenBabel11021811393D
libRbt.so/2013.1/901 2013/11/27
 42 45  0  0  0  0  0  0  0  0999 V2000
   -1.5516   -0.7733   26.4404 C   0  0  2  0  0  0  0  0  0  0  0  0
   -1.2950    0.4658   27.1624 O   0  0  0  0  0  0  0  0  0  0  0  0
   -2.9773    1.4484   30.9631 C   0  0  2  0  0  0  0  0  0  0  0  0
   -3.3201    1.5682   32.3922 N   0  0  0  0  0  0  0  0  0  0  0  0
    0.4957    3.3437   27.9808 C   0  0  1  0  0  0  0  0  0  0  0  0
    3.0105    6.2951   25.8593 C   0  0  1  0  0  0  0  0  0  0  0  0
   -1.0200   -0.7012   24.9727 C   0  0  2  0  0  0  0  0  0  0  0  0
    0.3868   -0.2484   24.9335 N   0  0  0  0  0  0  0  0  0  0  0  0
   -2.9973   -0.0378   30.5536 C   0  0  0  0  0  0  0  0  0  0  0  0
    1.9532    3.7812   28.1484 C   0  0  2  0  0  0  0  0  0  0  0  0
    2.0067    4.9702   28.9376 O   0  0  0  0  0  0  0  0  0  0  0  0
    3.2965    7.3586   26.9631 C   0  0  2  0  0  0  0  0  0  0  0  0
    2.0577    7.9763   27.4961 N   0  0  0  0  0  0  0  0  0  0  0  0
   -1.9148    0.2359   24.1025 C   0  0  1  0  0  0  0  0  0  0  0  0
   -1.5150    0.1677   22.7360 O   0  0  0  0  0  0  0  0  0  0  0  0
   -2.6706   -0.2372   29.0483 C   0  0  2  0  0  0  0  0  0  0  0  0
   -2.6365   -1.6904   28.7824 N   0  0  0  0  0  0  0  0  0  0  0  0
    2.3667    4.0562   26.7000 C   0  0  2  0  0  0  0  0  0  0  0  0
    1.9570    5.3824   26.2642 O   0  0  0  0  0  0  0  0  0  0  0  0
    4.2934    8.4413   26.4465 C   0  0  1  0  0  0  0  0  0  0  0  0
    5.5952    7.8632   26.3780 O   0  0  0  0  0  0  0  0  0  0  0  0
   -3.4130   -0.1471   24.1971 C   0  0  2  0  0  0  0  0  0  0  0  0
   -4.1821    0.7980   23.4594 O   0  0  0  0  0  0  0  0  0  0  0  0
   -1.3281    0.4564   28.6185 C   0  0  2  0  0  0  0  0  0  0  0  0
    1.5939    2.9736   25.9337 C   0  0  2  0  0  0  0  0  0  0  0  0
    0.3783    2.7549   26.6756 O   0  0  0  0  0  0  0  0  0  0  0  0
    3.9392    9.0134   25.0404 C   0  0  2  0  0  0  0  0  0  0  0  0
    2.8061    9.8733   25.1722 O   0  0  0  0  0  0  0  0  0  0  0  0
   -3.8687   -0.1827   25.6835 C   0  0  2  0  0  0  0  0  0  0  0  0
   -2.9879   -1.0733   26.4325 O   0  0  0  0  0  0  0  0  0  0  0  0
   -1.2031    1.9299   29.1510 C   0  0  2  0  0  0  0  0  0  0  0  0
    0.1774    2.3502   28.9963 O   0  0  0  0  0  0  0  0  0  0  0  0
    2.3762    1.6551   25.7994 C   0  0  0  0  0  0  0  0  0  0  0  0
    3.6046    1.8631   25.1246 O   0  0  0  0  0  0  0  0  0  0  0  0
    3.6270    7.8610   24.0360 C   0  0  1  0  0  0  0  0  0  0  0  0
    2.6264    6.9664   24.6114 O   0  0  0  0  0  0  0  0  0  0  0  0
   -5.3093   -0.6938   25.9082 C   0  0  0  0  0  0  0  0  0  0  0  0
   -5.6042   -1.7917   25.0613 O   0  0  0  0  0  0  0  0  0  0  0  0
   -1.5930    2.0684   30.6554 C   0  0  1  0  0  0  0  0  0  0  0  0
   -1.6136    3.4531   30.9988 O   0  0  0  0  0  0  0  0  0  0  0  0
    3.1134    8.3817   22.6692 C   0  0  0  0  0  0  0  0  0  0  0  0
    4.2118    8.7622   21.7627 N   0  0  0  0  0  0  0  0  0  0  0  0
  1  2  1  6  0  0  0
  1  7  1  0  0  0  0
  1 30  1  0  0  0  0
  3  4  1  1  0  0  0
  3  9  1  0  0  0  0
  3 39  1  0  0  0  0
  5 10  1  0  0  0  0
  5 26  1  0  0  0  0
  5 32  1  1  0  0  0
  6 12  1  0  0  0  0
  6 36  1  0  0  0  0
  6 19  1  1  0  0  0
  7  8  1  1  0  0  0
  7 14  1  0  0  0  0
  9 16  1  0  0  0  0
 10 11  1  1  0  0  0
 10 18  1  0  0  0  0
 12 13  1  6  0  0  0
 12 20  1  0  0  0  0
 14 15  1  6  0  0  0
 14 22  1  0  0  0  0
 16 17  1  1  0  0  0
 16 24  1  0  0  0  0
 18 19  1  6  0  0  0
 18 25  1  0  0  0  0
 20 21  1  6  0  0  0
 20 27  1  0  0  0  0
 22 23  1  6  0  0  0
 22 29  1  0  0  0  0
 24  2  1  6  0  0  0
 24 31  1  0  0  0  0
 25 26  1  0  0  0  0
 25 33  1  1  0  0  0
 27 28  1  1  0  0  0
 27 35  1  0  0  0  0
 29 30  1  0  0  0  0
 29 37  1  6  0  0  0
 31 32  1  1  0  0  0
 31 39  1  0  0  0  0
 33 34  1  0  0  0  0
 35 36  1  0  0  0  0
 35 41  1  6  0  0  0
 37 38  1  0  0  0  0
 39 40  1  6  0  0  0
 41 42  1  0  0  0  0
M  END
>  <CHROM.1>
-161.00748267,-50.22188526,-168.18763274,116.88710579,53.83393773,-14.62393868
-54.35979883,34.98937527,119.27372075,-103.44774485,-174.96269879,179.59806973
-59.06553226,62.08138204,40.30572269,109.00288236,171.39979835,-54.04127484
83.85670262,-80.88918862,-179.63887609,-104.74729926,0.06810341,3.04092601
26.61922902,3.07453616,0.89149989,1.41061354

>  <Name>
1fyp_lig

>  <RI>
0

>  <Rbt.Current_Directory>
/home/itssahil/PROJECTS/Mol_Feturizer/New_Systems/rnas/1fyp

>  <Rbt.Executable>
rbdock ($Id: //depot/dev/client3/rdock/2013.1/src/exe/rbdock.cxx#4 $)

>  <Rbt.Library>
libRbt.so (2013.1, Build901 2013/11/27)

>  <Rbt.Parameter_File>
/export/apps/rDock/src/rDock_2013.1_src/data/scripts/dock_solv.prm

>  <Rbt.Receptor>
prm/blind_docking_60.prm

>  <SCORE>
-28.9108

>  <SCORE.INTER>
-35.1944

>  <SCORE.INTER.CONST>
1

>  <SCORE.INTER.POLAR>
-5.6812

>  <SCORE.INTER.ROT>
14

>  <SCORE.INTER.SOLV>
19.3947

>  <SCORE.INTER.VDW>
-23.9238

>  <SCORE.INTER.norm>
-0.837962

>  <SCORE.INTRA>
6.0605

>  <SCORE.INTRA.DIHEDRAL>
-13.1964

>  <SCORE.INTRA.DIHEDRAL.0>
48.7173

>  <SCORE.INTRA.POLAR>
0.905103

>  <SCORE.INTRA.POLAR.0>
-1.54691

>  <SCORE.INTRA.REPUL>
0.871712

>  <SCORE.INTRA.REPUL.0>
0

>  <SCORE.INTRA.SOLV>
-1.12307

>  <SCORE.INTRA.SOLV.lig_0>
-64.052

>  <SCORE.INTRA.VDW>
5.78433

>  <SCORE.INTRA.VDW.0>
-7.0667

>  <SCORE.INTRA.norm>
0.144298

>  <SCORE.RESTR>
0.22309

>  <SCORE.RESTR.CAVITY>
0.22309

>  <SCORE.RESTR.norm>
0.00531166

>  <SCORE.SYSTEM>
0

>  <SCORE.SYSTEM.CONST>
0

>  <SCORE.SYSTEM.DIHEDRAL>
0

>  <SCORE.SYSTEM.SOLV>
0

>  <SCORE.SYSTEM.norm>
0

>  <SCORE.heavy>
42

>  <SCORE.norm>
-0.688353

>  <RMSD>
10.777

$$$$
1fyp_lig
 OpenBabel11021811393D
libRbt.so/2013.1/901 2013/11/27
 42 45  0  0  0  0  0  0  0  0999 V2000
   -3.9130   -1.1163   26.3500 C   0  0  2  0  0  0  0  0  0  0  0  0
   -3.5830    0.0743   27.1220 O   0  0  0  0  0  0  0  0  0  0  0  0
   -3.2350    1.4469   31.1513 C   0  0  2  0  0  0  0  0  0  0  0  0
   -3.0344    1.5920   32.6050 N   0  0  0  0  0  0  0  0  0  0  0  0
    0.2635    1.4431   28.2111 C   0  0  1  0  0  0  0  0  0  0  0  0
    4.0927    3.3702   27.0862 C   0  0  1  0  0  0  0  0  0  0  0  0
   -2.7515   -2.1611   26.3847 C   0  0  2  0  0  0  0  0  0  0  0  0
   -2.3137   -2.4305   27.7709 N   0  0  0  0  0  0  0  0  0  0  0  0
   -4.2484    0.3163   30.8837 C   0  0  0  0  0  0  0  0  0  0  0  0
    1.5092    0.6886   27.7392 C   0  0  2  0  0  0  0  0  0  0  0  0
    2.2916    0.3046   28.8705 O   0  0  0  0  0  0  0  0  0  0  0  0
    5.4654    3.0572   27.7562 C   0  0  2  0  0  0  0  0  0  0  0  0
    5.4120    3.1439   29.2360 N   0  0  0  0  0  0  0  0  0  0  0  0
   -1.5447   -1.6800   25.5196 C   0  0  1  0  0  0  0  0  0  0  0  0
   -0.5620   -2.7087   25.4313 O   0  0  0  0  0  0  0  0  0  0  0  0
   -4.5293    0.1254   29.3681 C   0  0  2  0  0  0  0  0  0  0  0  0
   -5.4432   -1.0263   29.2199 N   0  0  0  0  0  0  0  0  0  0  0  0
    2.2242    1.7547   26.9047 C   0  0  2  0  0  0  0  0  0  0  0  0
    3.0110    2.6528   27.7358 O   0  0  0  0  0  0  0  0  0  0  0  0
    6.5885    3.9700   27.1746 C   0  0  1  0  0  0  0  0  0  0  0  0
    6.8985    3.5236   25.8562 O   0  0  0  0  0  0  0  0  0  0  0  0
   -1.9825   -1.2926   24.0848 C   0  0  2  0  0  0  0  0  0  0  0  0
   -0.8582   -0.7762   23.3791 O   0  0  0  0  0  0  0  0  0  0  0  0
   -3.2183   -0.0701   28.5247 C   0  0  2  0  0  0  0  0  0  0  0  0
    1.0479    2.5041   26.2637 C   0  0  2  0  0  0  0  0  0  0  0  0
   -0.0303    2.4378   27.2171 O   0  0  0  0  0  0  0  0  0  0  0  0
    6.2073    5.4798   27.1012 C   0  0  2  0  0  0  0  0  0  0  0  0
    6.2195    6.0161   28.4252 O   0  0  0  0  0  0  0  0  0  0  0  0
   -3.1275   -0.2415   24.1346 C   0  0  2  0  0  0  0  0  0  0  0  0
   -4.2150   -0.7577   24.9596 O   0  0  0  0  0  0  0  0  0  0  0  0
   -2.0999    0.9748   28.8816 C   0  0  2  0  0  0  0  0  0  0  0  0
   -0.8487    0.5090   28.3125 O   0  0  0  0  0  0  0  0  0  0  0  0
    0.6050    1.8959   24.9211 C   0  0  0  0  0  0  0  0  0  0  0  0
    1.6874    1.8450   24.0082 O   0  0  0  0  0  0  0  0  0  0  0  0
    4.7979    5.6646   26.4579 C   0  0  1  0  0  0  0  0  0  0  0  0
    3.8300    4.8134   27.1443 O   0  0  0  0  0  0  0  0  0  0  0  0
   -3.7431    0.1127   22.7625 C   0  0  0  0  0  0  0  0  0  0  0  0
   -4.7627   -0.8043   22.4035 O   0  0  0  0  0  0  0  0  0  0  0  0
   -1.9032    1.1547   30.4189 C   0  0  1  0  0  0  0  0  0  0  0  0
   -0.9990    2.2355   30.6428 O   0  0  0  0  0  0  0  0  0  0  0  0
    4.3052    7.1336   26.5091 C   0  0  0  0  0  0  0  0  0  0  0  0
    5.3461    8.0603   26.9895 N   0  0  0  0  0  0  0  0  0  0  0  0
  1  2  1  1  0  0  0
  1  7  1  0  0  0  0
  1 30  1  0  0  0  0
  3  4  1  1  0  0  0
  3  9  1  0  0  0  0
  3 39  1  0  0  0  0
  5 10  1  0  0  0  0
  5 26  1  0  0  0  0
  5 32  1  6  0  0  0
  6 12  1  0  0  0  0
  6 36  1  0  0  0  0
  6 19  1  1  0  0  0
  7  8  1  1  0  0  0
  7 14  1  0  0  0  0
  9 16  1  0  0  0  0
 10 11  1  1  0  0  0
 10 18  1  0  0  0  0
 12 13  1  1  0  0  0
 12 20  1  0  0  0  0
 14 15  1  6  0  0  0
 14 22  1  0  0  0  0
 16 17  1  1  0  0  0
 16 24  1  0  0  0  0
 18 19  1  1  0  0  0
 18 25  1  0  0  0  0
 20 21  1  6  0  0  0
 20 27  1  0  0  0  0
 22 23  1  6  0  0  0
 22 29  1  0  0  0  0
 24  2  1  6  0  0  0
 24 31  1  0  0  0  0
 25 26  1  0  0  0  0
 25 33  1  6  0  0  0
 27 28  1  1  0  0  0
 27 35  1  0  0  0  0
 29 30  1  0  0  0  0
 29 37  1  6  0  0  0
 31 32  1  6  0  0  0
 31 39  1  0  0  0  0
 33 34  1  0  0  0  0
 35 36  1  0  0  0  0
 35 41  1  1  0  0  0
 37 38  1  0  0  0  0
 39 40  1  6  0  0  0
 41 42  1  0  0  0  0
M  END
>  <CHROM.1>
-56.25541294,-93.66594205,78.91586152,108.81138203,-177.80842169,-5.91036500
50.15395222,84.79037109,158.08097358,-121.40845897,61.11156893,57.38387962
-56.56613111,-42.84464240,85.36886951,164.91971835,173.43030522,-171.98548685
7.62000854,67.73505859,68.85989743,-94.96096942,0.23537746,1.50291469,27.17506418
-2.95412088,0.54052759,1.29145350

>  <Name>
1fyp_lig

>  <RI>
0

>  <Rbt.Current_Directory>
/home/itssahil/PROJECTS/Mol_Feturizer/New_Systems/rnas/1fyp

>  <Rbt.Executable>
rbdock ($Id: //depot/dev/client3/rdock/2013.1/src/exe/rbdock.cxx#4 $)

>  <Rbt.Library>
libRbt.so (2013.1, Build901 2013/11/27)

>  <Rbt.Parameter_File>
/export/apps/rDock/src/rDock_2013.1_src/data/scripts/dock_solv.prm

>  <Rbt.Receptor>
prm/pocket_docking_6.prm

>  <SCORE>
-41.5268

>  <SCORE.INTER>
-39.4045

>  <SCORE.INTER.CONST>
1

>  <SCORE.INTER.POLAR>
-5.18715

>  <SCORE.INTER.ROT>
14

>  <SCORE.INTER.SOLV>
19.5015

>  <SCORE.INTER.VDW>
-28.413

>  <SCORE.INTER.norm>
-0.938203

>  <SCORE.INTRA>
-2.13149

>  <SCORE.INTRA.DIHEDRAL>
-16.3255

>  <SCORE.INTRA.DIHEDRAL.0>
48.7173

>  <SCORE.INTRA.POLAR>
0.81527

>  <SCORE.INTRA.POLAR.0>
-1.54691

>  <SCORE.INTRA.REPUL>
0

>  <SCORE.INTRA.REPUL.0>
0

>  <SCORE.INTRA.SOLV>
-1.02547

>  <SCORE.INTRA.SOLV.lig_0>
-64.052

>  <SCORE.INTRA.VDW>
3.77209

>  <SCORE.INTRA.VDW.0>
-7.0667

>  <SCORE.INTRA.norm>
-0.0507498

>  <SCORE.RESTR>
0.0092115

>  <SCORE.RESTR.CAVITY>
0.0092115

>  <SCORE.RESTR.norm>
0.000219321

>  <SCORE.SYSTEM>
0

>  <SCORE.SYSTEM.CONST>
0

>  <SCORE.SYSTEM.DIHEDRAL>
0

>  <SCORE.SYSTEM.SOLV>
0

>  <SCORE.SYSTEM.norm>
0

>  <SCORE.heavy>
42

>  <SCORE.norm>
-0.988734

>  <RMSD>
10.840

$$$$
1fyp_lig
 OpenBabel11021811393D
libRbt.so/2013.1/901 2013/11/27
 42 45  0  0  0  0  0  0  0  0999 V2000
   -2.3680   -0.5621   26.5258 C   0  0  2  0  0  0  0  0  0  0  0  0
   -3.2873   -0.2513   27.6123 O   0  0  0  0  0  0  0  0  0  0  0  0
   -2.5998    1.9261   31.2216 C   0  0  2  0  0  0  0  0  0  0  0  0
   -2.2516    2.3731   32.5830 N   0  0  0  0  0  0  0  0  0  0  0  0
    0.6418    1.4629   28.1564 C   0  0  1  0  0  0  0  0  0  0  0  0
    3.6405    3.9051   26.8968 C   0  0  1  0  0  0  0  0  0  0  0  0
   -2.5306    0.4366   25.3350 C   0  0  2  0  0  0  0  0  0  0  0  0
   -2.4786    1.8389   25.8003 N   0  0  0  0  0  0  0  0  0  0  0  0
   -3.5502    0.7152   31.3067 C   0  0  0  0  0  0  0  0  0  0  0  0
    1.8465    0.6712   27.6411 C   0  0  2  0  0  0  0  0  0  0  0  0
    2.6847    0.3093   28.7392 O   0  0  0  0  0  0  0  0  0  0  0  0
    5.1698    4.1462   26.7111 C   0  0  2  0  0  0  0  0  0  0  0  0
    5.9535    3.8041   27.9232 N   0  0  0  0  0  0  0  0  0  0  0  0
   -3.8615    0.1710   24.5641 C   0  0  1  0  0  0  0  0  0  0  0  0
   -3.9204    0.9794   23.3916 O   0  0  0  0  0  0  0  0  0  0  0  0
   -3.9815    0.2068   29.9039 C   0  0  2  0  0  0  0  0  0  0  0  0
   -4.8187   -0.9955   30.0972 N   0  0  0  0  0  0  0  0  0  0  0  0
    2.5310    1.6969   26.7335 C   0  0  2  0  0  0  0  0  0  0  0  0
    3.3778    2.6066   27.4897 O   0  0  0  0  0  0  0  0  0  0  0  0
    5.4495    5.6095   26.2490 C   0  0  1  0  0  0  0  0  0  0  0  0
    5.0557    5.7371   24.8844 O   0  0  0  0  0  0  0  0  0  0  0  0
   -3.9984   -1.3145   24.1456 C   0  0  2  0  0  0  0  0  0  0  0  0
   -5.2690   -1.5096   23.5323 O   0  0  0  0  0  0  0  0  0  0  0  0
   -2.7607   -0.0896   28.9606 C   0  0  2  0  0  0  0  0  0  0  0  0
    1.3329    2.4469   26.1346 C   0  0  2  0  0  0  0  0  0  0  0  0
    0.3090    2.4306   27.1481 O   0  0  0  0  0  0  0  0  0  0  0  0
    4.6959    6.6936   27.0776 C   0  0  2  0  0  0  0  0  0  0  0  0
    5.3164    6.7978   28.3601 O   0  0  0  0  0  0  0  0  0  0  0  0
   -3.8401   -2.2414   25.3841 C   0  0  2  0  0  0  0  0  0  0  0  0
   -2.5797   -1.9350   26.0529 O   0  0  0  0  0  0  0  0  0  0  0  0
   -1.6900    1.0610   28.9662 C   0  0  2  0  0  0  0  0  0  0  0  0
   -0.4781    0.5529   28.3500 O   0  0  0  0  0  0  0  0  0  0  0  0
    0.8055    1.8043   24.8394 C   0  0  0  0  0  0  0  0  0  0  0  0
    1.8145    1.7704   23.8452 O   0  0  0  0  0  0  0  0  0  0  0  0
    3.1891    6.3211   27.2367 C   0  0  1  0  0  0  0  0  0  0  0  0
    3.0721    4.9580   27.7474 O   0  0  0  0  0  0  0  0  0  0  0  0
   -3.8148   -3.7528   25.0641 C   0  0  0  0  0  0  0  0  0  0  0  0
   -5.0453   -4.1816   24.5062 O   0  0  0  0  0  0  0  0  0  0  0  0
   -1.3389    1.5587   30.4027 C   0  0  1  0  0  0  0  0  0  0  0  0
   -0.4979    2.7066   30.2982 O   0  0  0  0  0  0  0  0  0  0  0  0
    2.4322    7.2839   28.1871 C   0  0  0  0  0  0  0  0  0  0  0  0
    1.0869    6.7909   28.5336 N   0  0  0  0  0  0  0  0  0  0  0  0
  1  2  1  1  0  0  0
  1  7  1  0  0  0  0
  1 30  1  0  0  0  0
  3  4  1  1  0  0  0
  3  9  1  0  0  0  0
  3 39  1  0  0  0  0
  5 10  1  0  0  0  0
  5 26  1  0  0  0  0
  5 32  1  6  0  0  0
  6 12  1  0  0  0  0
  6 36  1  0  0  0  0
  6 19  1  1  0  0  0
  7  8  1  1  0  0  0
  7 14  1  0  0  0  0
  9 16  1  0  0  0  0
 10 11  1  1  0  0  0
 10 18  1  0  0  0  0
 12 13  1  1  0  0  0
 12 20  1  0  0  0  0
 14 15  1  6  0  0  0
 14 22  1  0  0  0  0
 16 17  1  1  0  0  0
 16 24  1  0  0  0  0
 18 19  1  1  0  0  0
 18 25  1  0  0  0  0
 20 21  1  6  0  0  0
 20 27  1  0  0  0  0
 22 23  1  1  0  0  0
 22 29  1  0  0  0  0
 24  2  1  6  0  0  0
 24 31  1  0  0  0  0
 25 26  1  0  0  0  0
 25 33  1  6  0  0  0
 27 28  1  1  0  0  0
 27 35  1  0  0  0  0
 29 30  1  0  0  0  0
 29 37  1  6  0  0  0
 31 32  1  1  0  0  0
 31 39  1  0  0  0  0
 33 34  1  0  0  0  0
 35 36  1  0  0  0  0
 35 41  1  1  0  0  0
 37 38  1  0  0  0  0
 39 40  1  6  0  0  0
 41 42  1  0  0  0  0
M  END
>  <CHROM.1>
-127.41149580,-178.86887297,-154.24365194,-43.88082534,72.79079357,60.85967313
-60.23141117,175.37194995,-155.66317167,-122.05573906,-76.06627523,50.28478029
-59.72287796,64.46041954,-63.75040684,176.04467577,173.72702800,-54.64922549
-169.29553253,179.75566999,-57.06787392,-117.65730291,-0.15305861,1.78649210
27.23166328,-2.84634106,0.62607581,1.24278458

>  <Name>
1fyp_lig

>  <RI>
0

>  <Rbt.Current_Directory>
/home/itssahil/PROJECTS/Mol_Feturizer/New_Systems/rnas/1fyp

>  <Rbt.Executable>
rbdock ($Id: //depot/dev/client3/rdock/2013.1/src/exe/rbdock.cxx#4 $)

>  <Rbt.Library>
libRbt.so (2013.1, Build901 2013/11/27)

>  <Rbt.Parameter_File>
/export/apps/rDock/src/rDock_2013.1_src/data/scripts/dock_solv.prm

>  <Rbt.Receptor>
prm/blind_docking_80.prm

>  <SCORE>
-41.5504

>  <SCORE.INTER>
-32.3033

>  <SCORE.INTER.CONST>
1

>  <SCORE.INTER.POLAR>
-4.50111

>  <SCORE.INTER.ROT>
14

>  <SCORE.INTER.SOLV>
18.3236

>  <SCORE.INTER.VDW>
-25.573

>  <SCORE.INTER.norm>
-0.769126

>  <SCORE.INTRA>
-9.24715

>  <SCORE.INTRA.DIHEDRAL>
-24.5751

>  <SCORE.INTRA.DIHEDRAL.0>
48.7173

>  <SCORE.INTRA.POLAR>
0.482408

>  <SCORE.INTRA.POLAR.0>
-1.54691

>  <SCORE.INTRA.REPUL>
0

>  <SCORE.INTRA.REPUL.0>
0

>  <SCORE.INTRA.SOLV>
-2.53694

>  <SCORE.INTRA.SOLV.lig_0>
-64.052

>  <SCORE.INTRA.VDW>
2.66868

>  <SCORE.INTRA.VDW.0>
-7.0667

>  <SCORE.INTRA.norm>
-0.22017

>  <SCORE.RESTR>
0

>  <SCORE.RESTR.CAVITY>
0

>  <SCORE.RESTR.norm>
0

>  <SCORE.SYSTEM>
0

>  <SCORE.SYSTEM.CONST>
0

>  <SCORE.SYSTEM.DIHEDRAL>
0

>  <SCORE.SYSTEM.SOLV>
0

>  <SCORE.SYSTEM.norm>
0

>  <SCORE.heavy>
42

>  <SCORE.norm>
-0.989296

>  <RMSD>
10.855

$$$$
1fyp_lig
 OpenBabel11021811393D
libRbt.so/2013.1/901 2013/11/27
 42 45  0  0  0  0  0  0  0  0999 V2000
   -2.0974   -1.8212   26.5265 C   0  0  2  0  0  0  0  0  0  0  0  0
   -2.1219   -0.4420   26.9951 O   0  0  0  0  0  0  0  0  0  0  0  0
   -2.0852    1.9767   30.5150 C   0  0  2  0  0  0  0  0  0  0  0  0
   -1.9497    2.5255   31.8769 N   0  0  0  0  0  0  0  0  0  0  0  0
    1.5994    1.6029   28.1401 C   0  0  1  0  0  0  0  0  0  0  0  0
    5.1717    3.9409   27.6915 C   0  0  1  0  0  0  0  0  0  0  0  0
   -1.0794   -2.0099   25.3559 C   0  0  2  0  0  0  0  0  0  0  0  0
    0.2466   -1.4565   25.7038 N   0  0  0  0  0  0  0  0  0  0  0  0
   -2.9257    0.6851   30.5638 C   0  0  0  0  0  0  0  0  0  0  0  0
    2.9086    0.8724   27.8303 C   0  0  2  0  0  0  0  0  0  0  0  0
    3.5019    0.4194   29.0478 O   0  0  0  0  0  0  0  0  0  0  0  0
    5.4892    4.9583   28.8296 C   0  0  2  0  0  0  0  0  0  0  0  0
    4.2938    5.3040   29.6370 N   0  0  0  0  0  0  0  0  0  0  0  0
   -1.6127   -1.3538   24.0440 C   0  0  1  0  0  0  0  0  0  0  0  0
   -0.7531   -1.6696   22.9517 O   0  0  0  0  0  0  0  0  0  0  0  0
   -3.1326    0.0649   29.1549 C   0  0  2  0  0  0  0  0  0  0  0  0
   -3.8752   -1.2014   29.3237 N   0  0  0  0  0  0  0  0  0  0  0  0
    3.7422    1.9828   27.1851 C   0  0  2  0  0  0  0  0  0  0  0  0
    4.3809    2.8273   28.1828 O   0  0  0  0  0  0  0  0  0  0  0  0
    6.1757    6.2364   28.2567 C   0  0  1  0  0  0  0  0  0  0  0  0
    7.5160    5.9084   27.8964 O   0  0  0  0  0  0  0  0  0  0  0  0
   -3.0444   -1.8355   23.6994 C   0  0  2  0  0  0  0  0  0  0  0  0
   -3.5072   -1.1334   22.5499 O   0  0  0  0  0  0  0  0  0  0  0  0
   -1.7827   -0.1599   28.3832 C   0  0  2  0  0  0  0  0  0  0  0  0
    2.6796    2.7734   26.4091 C   0  0  2  0  0  0  0  0  0  0  0  0
    1.4630    2.6555   27.1720 O   0  0  0  0  0  0  0  0  0  0  0  0
    5.4659    6.8327   27.0035 C   0  0  2  0  0  0  0  0  0  0  0  0
    4.2551    7.4631   27.4243 O   0  0  0  0  0  0  0  0  0  0  0  0
   -3.9981   -1.6009   24.9051 C   0  0  2  0  0  0  0  0  0  0  0  0
   -3.4352   -2.2380   26.0913 O   0  0  0  0  0  0  0  0  0  0  0  0
   -0.8293    1.0881   28.4423 C   0  0  2  0  0  0  0  0  0  0  0  0
    0.4904    0.6690   28.0071 O   0  0  0  0  0  0  0  0  0  0  0  0
    2.4607    2.2470   24.9796 C   0  0  0  0  0  0  0  0  0  0  0  0
    2.4913    3.3077   24.0405 O   0  0  0  0  0  0  0  0  0  0  0  0
    5.1570    5.7163   25.9582 C   0  0  1  0  0  0  0  0  0  0  0  0
    4.4476    4.6180   26.6087 O   0  0  0  0  0  0  0  0  0  0  0  0
   -5.4213   -2.1756   24.7277 C   0  0  0  0  0  0  0  0  0  0  0  0
   -5.4240   -3.5885   24.8420 O   0  0  0  0  0  0  0  0  0  0  0  0
   -0.7048    1.6916   29.8758 C   0  0  1  0  0  0  0  0  0  0  0  0
    0.0356    2.9088   29.7988 O   0  0  0  0  0  0  0  0  0  0  0  0
    4.3091    6.2307   24.7667 C   0  0  0  0  0  0  0  0  0  0  0  0
    4.9986    7.2819   23.9970 N   0  0  0  0  0  0  0  0  0  0  0  0
  1  2  1  6  0  0  0
  1  7  1  0  0  0  0
  1 30  1  0  0  0  0
  3  4  1  1  0  0  0
  3  9  1  0  0  0  0
  3 39  1  0  0  0  0
  5 10  1  0  0  0  0
  5 26  1  0  0  0  0
  5 32  1  6  0  0  0
  6 12  1  0  0  0  0
  6 36  1  0  0  0  0
  6 19  1  1  0  0  0
  7  8  1  1  0  0  0
  7 14  1  0  0  0  0
  9 16  1  0  0  0  0
 10 11  1  1  0  0  0
 10 18  1  0  0  0  0
 12 13  1  6  0  0  0
 12 20  1  0  0  0  0
 14 15  1  6  0  0  0
 14 22  1  0  0  0  0
 16 17  1  1  0  0  0
 16 24  1  0  0  0  0
 18 19  1  1  0  0  0
 18 25  1  0  0  0  0
 20 21  1  6  0  0  0
 20 27  1  0  0  0  0
 22 23  1  6  0  0  0
 22 29  1  0  0  0  0
 24  2  1  6  0  0  0
 24 31  1  0  0  0  0
 25 26  1  0  0  0  0
 25 33  1  6  0  0  0
 27 28  1  1  0  0  0
 27 35  1  0  0  0  0
 29 30  1  0  0  0  0
 29 37  1  6  0  0  0
 31 32  1  1  0  0  0
 31 39  1  0  0  0  0
 33 34  1  0  0  0  0
 35 36  1  0  0  0  0
 35 41  1  6  0  0  0
 37 38  1  0  0  0  0
 39 40  1  6  0  0  0
 41 42  1  0  0  0  0
M  END
>  <CHROM.1>
-120.07980500,-101.34487640,-53.48561283,-143.06439439,-75.44904071,174.51784209
58.82739602,-36.08320217,-178.38065300,165.45036513,-53.72851501,-62.17882114
-131.17178972,59.12772859,73.56164361,-171.97150281,171.11734055,-146.63252331
61.98791609,56.00697568,-56.67325946,103.39093198,0.80224972,1.72870820,27.01403623
-2.87079672,0.66221084,1.32060151

>  <Name>
1fyp_lig

>  <RI>
0

>  <Rbt.Current_Directory>
/home/itssahil/PROJECTS/Mol_Feturizer/New_Systems/rnas/1fyp

>  <Rbt.Executable>
rbdock ($Id: //depot/dev/client3/rdock/2013.1/src/exe/rbdock.cxx#4 $)

>  <Rbt.Library>
libRbt.so (2013.1, Build901 2013/11/27)

>  <Rbt.Parameter_File>
/export/apps/rDock/src/rDock_2013.1_src/data/scripts/dock_solv.prm

>  <Rbt.Receptor>
prm/blind_docking_100.prm

>  <SCORE>
-30.2081

>  <SCORE.INTER>
-26.5694

>  <SCORE.INTER.CONST>
1

>  <SCORE.INTER.POLAR>
-3.56042

>  <SCORE.INTER.ROT>
14

>  <SCORE.INTER.SOLV>
16.1244

>  <SCORE.INTER.VDW>
-24.153

>  <SCORE.INTER.norm>
-0.632605

>  <SCORE.INTRA>
-4.17369

>  <SCORE.INTRA.DIHEDRAL>
-18.0815

>  <SCORE.INTRA.DIHEDRAL.0>
48.7173

>  <SCORE.INTRA.POLAR>
0.0165535

>  <SCORE.INTRA.POLAR.0>
-1.54691

>  <SCORE.INTRA.REPUL>
0

>  <SCORE.INTRA.REPUL.0>
0

>  <SCORE.INTRA.SOLV>
-1.94352

>  <SCORE.INTRA.SOLV.lig_0>
-64.052

>  <SCORE.INTRA.VDW>
5.78252

>  <SCORE.INTRA.VDW.0>
-7.0667

>  <SCORE.INTRA.norm>
-0.0993735

>  <SCORE.RESTR>
0.534996

>  <SCORE.RESTR.CAVITY>
0.534996

>  <SCORE.RESTR.norm>
0.012738

>  <SCORE.SYSTEM>
0

>  <SCORE.SYSTEM.CONST>
0

>  <SCORE.SYSTEM.DIHEDRAL>
0

>  <SCORE.SYSTEM.SOLV>
0

>  <SCORE.SYSTEM.norm>
0

>  <SCORE.heavy>
42

>  <SCORE.norm>
-0.71924

>  <RMSD>
10.863

$$$$
1fyp_lig
 OpenBabel11021811393D
libRbt.so/2013.1/901 2013/11/27
 42 45  0  0  0  0  0  0  0  0999 V2000
   -4.0753    0.3950   27.6513 C   0  0  2  0  0  0  0  0  0  0  0  0
   -3.4360   -0.5976   28.5048 O   0  0  0  0  0  0  0  0  0  0  0  0
   -2.2131    2.2288   31.4640 C   0  0  2  0  0  0  0  0  0  0  0  0
   -1.6082    2.9389   32.6061 N   0  0  0  0  0  0  0  0  0  0  0  0
    0.4828    1.4844   28.1794 C   0  0  1  0  0  0  0  0  0  0  0  0
    3.8824    3.6216   26.9155 C   0  0  1  0  0  0  0  0  0  0  0  0
   -5.5492   -0.0020   27.3165 C   0  0  2  0  0  0  0  0  0  0  0  0
   -6.3060   -0.3363   28.5417 N   0  0  0  0  0  0  0  0  0  0  0  0
   -2.9092    0.9483   31.9667 C   0  0  0  0  0  0  0  0  0  0  0  0
    1.6437    0.6336   27.6578 C   0  0  2  0  0  0  0  0  0  0  0  0
    2.4419    0.1907   28.7561 O   0  0  0  0  0  0  0  0  0  0  0  0
    5.4200    3.6953   27.1636 C   0  0  2  0  0  0  0  0  0  0  0  0
    5.7785    3.5042   28.5902 N   0  0  0  0  0  0  0  0  0  0  0  0
   -5.5890   -1.1964   26.3126 C   0  0  1  0  0  0  0  0  0  0  0  0
   -6.9293   -1.4431   25.8949 O   0  0  0  0  0  0  0  0  0  0  0  0
   -3.5943    0.1614   30.8161 C   0  0  2  0  0  0  0  0  0  0  0  0
   -4.1564   -1.0791   31.3897 N   0  0  0  0  0  0  0  0  0  0  0  0
    2.4034    1.6391   26.7882 C   0  0  2  0  0  0  0  0  0  0  0  0
    3.2936    2.4736   27.5804 O   0  0  0  0  0  0  0  0  0  0  0  0
    6.0099    5.0264   26.6038 C   0  0  1  0  0  0  0  0  0  0  0  0
    6.0365    4.9473   25.1803 O   0  0  0  0  0  0  0  0  0  0  0  0
   -4.7241   -0.9227   25.0567 C   0  0  2  0  0  0  0  0  0  0  0  0
   -4.7273   -2.0814   24.2284 O   0  0  0  0  0  0  0  0  0  0  0  0
   -2.6192   -0.1482   29.6238 C   0  0  2  0  0  0  0  0  0  0  0  0
    1.2629    2.4780   26.1950 C   0  0  2  0  0  0  0  0  0  0  0  0
    0.2252    2.4979   27.1943 O   0  0  0  0  0  0  0  0  0  0  0  0
    5.2043    6.2986   27.0067 C   0  0  2  0  0  0  0  0  0  0  0  0
    5.4470    6.5715   28.3877 O   0  0  0  0  0  0  0  0  0  0  0  0
   -3.2724   -0.5501   25.4713 C   0  0  2  0  0  0  0  0  0  0  0  0
   -3.3146    0.5678   26.4085 O   0  0  0  0  0  0  0  0  0  0  0  0
   -1.7760    1.1027   29.1829 C   0  0  2  0  0  0  0  0  0  0  0  0
   -0.6939    0.6408   28.3330 O   0  0  0  0  0  0  0  0  0  0  0  0
    0.7158    1.9048   24.8756 C   0  0  0  0  0  0  0  0  0  0  0  0
    1.6600    2.0548   23.8298 O   0  0  0  0  0  0  0  0  0  0  0  0
    3.6781    6.0894   26.7589 C   0  0  1  0  0  0  0  0  0  0  0  0
    3.2425    4.8513   27.3989 O   0  0  0  0  0  0  0  0  0  0  0  0
   -2.3562   -0.1154   24.3056 C   0  0  0  0  0  0  0  0  0  0  0  0
   -2.2627   -1.1287   23.3187 O   0  0  0  0  0  0  0  0  0  0  0  0
   -1.1574    1.8756   30.3889 C   0  0  1  0  0  0  0  0  0  0  0  0
   -0.5607    3.0784   29.9060 O   0  0  0  0  0  0  0  0  0  0  0  0
    2.8190    7.2641   27.2929 C   0  0  0  0  0  0  0  0  0  0  0  0
    1.7687    7.6714   26.3421 N   0  0  0  0  0  0  0  0  0  0  0  0
  1  2  1  1  0  0  0
  1  7  1  0  0  0  0
  1 30  1  0  0  0  0
  3  4  1  1  0  0  0
  3  9  1  0  0  0  0
  3 39  1  0  0  0  0
  5 10  1  0  0  0  0
  5 26  1  0  0  0  0
  5 32  1  6  0  0  0
  6 12  1  0  0  0  0
  6 36  1  0  0  0  0
  6 19  1  1  0  0  0
  7  8  1  1  0  0  0
  7 14  1  0  0  0  0
  9 16  1  0  0  0  0
 10 11  1  1  0  0  0
 10 18  1  0  0  0  0
 12 13  1  1  0  0  0
 12 20  1  0  0  0  0
 14 15  1  6  0  0  0
 14 22  1  0  0  0  0
 16 17  1  1  0  0  0
 16 24  1  0  0  0  0
 18 19  1  1  0  0  0
 18 25  1  0  0  0  0
 20 21  1  6  0  0  0
 20 27  1  0  0  0  0
 22 23  1  6  0  0  0
 22 29  1  0  0  0  0
 24  2  1  6  0  0  0
 24 31  1  0  0  0  0
 25 26  1  0  0  0  0
 25 33  1  6  0  0  0
 27 28  1  1  0  0  0
 27 35  1  0  0  0  0
 29 30  1  0  0  0  0
 29 37  1  6  0  0  0
 31 32  1  6  0  0  0
 31 39  1  0  0  0  0
 33 34  1  0  0  0  0
 35 36  1  0  0  0  0
 35 41  1  1  0  0  0
 37 38  1  0  0  0  0
 39 40  1  6  0  0  0
 41 42  1  0  0  0  0
M  END
>  <CHROM.1>
-136.91340494,82.72612311,-55.32737408,79.00064050,177.35549075,177.78918263
72.30306265,64.85117355,-169.02458889,-131.68369350,66.38398516,-175.39333077
-70.16408938,67.66707096,-58.02350424,-158.36698156,161.19988305,74.94398780
136.16033577,-68.68827546,-54.60887580,136.44226577,-0.24335590,1.88273340
27.53089853,3.05710899,-0.55048699,-1.80209121

>  <Name>
1fyp_lig

>  <RI>
0

>  <Rbt.Current_Directory>
/home/itssahil/PROJECTS/Mol_Feturizer/New_Systems/rnas/1fyp

>  <Rbt.Executable>
rbdock ($Id: //depot/dev/client3/rdock/2013.1/src/exe/rbdock.cxx#4 $)

>  <Rbt.Library>
libRbt.so (2013.1, Build901 2013/11/27)

>  <Rbt.Parameter_File>
/export/apps/rDock/src/rDock_2013.1_src/data/scripts/dock_solv.prm

>  <Rbt.Receptor>
prm/blind_docking_60.prm

>  <SCORE>
-36.26

>  <SCORE.INTER>
-34.6075

>  <SCORE.INTER.CONST>
1

>  <SCORE.INTER.POLAR>
-4.28462

>  <SCORE.INTER.ROT>
14

>  <SCORE.INTER.SOLV>
17.3131

>  <SCORE.INTER.VDW>
-27.494

>  <SCORE.INTER.norm>
-0.823988

>  <SCORE.INTRA>
-1.84575

>  <SCORE.INTRA.DIHEDRAL>
-19.1285

>  <SCORE.INTRA.DIHEDRAL.0>
48.7173

>  <SCORE.INTRA.POLAR>
1.04001

>  <SCORE.INTRA.POLAR.0>
-1.54691

>  <SCORE.INTRA.REPUL>
0

>  <SCORE.INTRA.REPUL.0>
0

>  <SCORE.INTRA.SOLV>
-2.67182

>  <SCORE.INTRA.SOLV.lig_0>
-64.052

>  <SCORE.INTRA.VDW>
5.51839

>  <SCORE.INTRA.VDW.0>
-7.0667

>  <SCORE.INTRA.norm>
-0.0439463

>  <SCORE.RESTR>
0.193243

>  <SCORE.RESTR.CAVITY>
0.193243

>  <SCORE.RESTR.norm>
0.00460101

>  <SCORE.SYSTEM>
0

>  <SCORE.SYSTEM.CONST>
0

>  <SCORE.SYSTEM.DIHEDRAL>
0

>  <SCORE.SYSTEM.SOLV>
0

>  <SCORE.SYSTEM.norm>
0

>  <SCORE.heavy>
42

>  <SCORE.norm>
-0.863334

>  <RMSD>
10.891

$$$$
1fyp_lig
 OpenBabel11021811393D
libRbt.so/2013.1/901 2013/11/27
 42 45  0  0  0  0  0  0  0  0999 V2000
    2.5916    5.3568   28.5739 C   0  0  2  0  0  0  0  0  0  0  0  0
    2.2611    5.1495   29.9776 O   0  0  0  0  0  0  0  0  0  0  0  0
    2.7770    2.5590   33.3337 C   0  0  2  0  0  0  0  0  0  0  0  0
    3.0068    1.4263   34.2495 N   0  0  0  0  0  0  0  0  0  0  0  0
    6.2007    4.9307   31.3849 C   0  0  1  0  0  0  0  0  0  0  0  0
   10.1899    6.5570   32.1881 C   0  0  1  0  0  0  0  0  0  0  0  0
    1.4556    4.8363   27.6355 C   0  0  2  0  0  0  0  0  0  0  0  0
    0.1381    5.3705   28.0410 N   0  0  0  0  0  0  0  0  0  0  0  0
    1.6643    2.1910   32.3320 C   0  0  0  0  0  0  0  0  0  0  0  0
    7.4685    4.2496   30.8629 C   0  0  2  0  0  0  0  0  0  0  0  0
    7.8824    3.2409   31.7852 O   0  0  0  0  0  0  0  0  0  0  0  0
   10.6264    6.8402   33.6579 C   0  0  2  0  0  0  0  0  0  0  0  0
    9.4809    7.1703   34.5407 N   0  0  0  0  0  0  0  0  0  0  0  0
    1.4238    3.2759   27.6136 C   0  0  1  0  0  0  0  0  0  0  0  0
    0.4929    2.8169   26.6366 O   0  0  0  0  0  0  0  0  0  0  0  0
    1.3497    3.3527   31.3502 C   0  0  2  0  0  0  0  0  0  0  0  0
    0.3357    2.8700   30.3898 N   0  0  0  0  0  0  0  0  0  0  0  0
    8.4606    5.4153   30.8316 C   0  0  2  0  0  0  0  0  0  0  0  0
    9.0554    5.6532   32.1378 O   0  0  0  0  0  0  0  0  0  0  0  0
   11.7201    7.9512   33.7085 C   0  0  1  0  0  0  0  0  0  0  0  0
   12.9472    7.4014   33.2336 O   0  0  0  0  0  0  0  0  0  0  0  0
    2.8147    2.6757   27.2890 C   0  0  2  0  0  0  0  0  0  0  0  0
    2.7403    1.2560   27.3760 O   0  0  0  0  0  0  0  0  0  0  0  0
    2.6281    3.8912   30.6127 C   0  0  2  0  0  0  0  0  0  0  0  0
    7.5621    6.5918   30.4253 C   0  0  2  0  0  0  0  0  0  0  0  0
    6.2631    6.3077   30.9801 O   0  0  0  0  0  0  0  0  0  0  0  0
   11.3871    9.2115   32.8537 C   0  0  2  0  0  0  0  0  0  0  0  0
   10.3607    9.9517   33.5165 O   0  0  0  0  0  0  0  0  0  0  0  0
    3.8847    3.2291   28.2724 C   0  0  2  0  0  0  0  0  0  0  0  0
    3.8543    4.6878   28.2409 O   0  0  0  0  0  0  0  0  0  0  0  0
    3.8388    4.1332   31.5852 C   0  0  2  0  0  0  0  0  0  0  0  0
    5.0371    4.2959   30.7826 O   0  0  0  0  0  0  0  0  0  0  0  0
    7.4581    6.7727   28.9005 C   0  0  0  0  0  0  0  0  0  0  0  0
    6.6896    7.9188   28.5791 O   0  0  0  0  0  0  0  0  0  0  0  0
   10.9180    8.8023   31.4230 C   0  0  1  0  0  0  0  0  0  0  0  0
    9.8433    7.8185   31.5218 O   0  0  0  0  0  0  0  0  0  0  0  0
    5.3372    2.8101   27.9535 C   0  0  0  0  0  0  0  0  0  0  0  0
    5.7416    3.2827   26.6798 O   0  0  0  0  0  0  0  0  0  0  0  0
    4.0689    2.9507   32.5768 C   0  0  1  0  0  0  0  0  0  0  0  0
    5.0678    3.3315   33.5217 O   0  0  0  0  0  0  0  0  0  0  0  0
   10.4222   10.0105   30.5878 C   0  0  0  0  0  0  0  0  0  0  0  0
    9.9473    9.6135   29.2500 N   0  0  0  0  0  0  0  0  0  0  0  0
  1  2  1  1  0  0  0
  1  7  1  0  0  0  0
  1 30  1  0  0  0  0
  3  4  1  1  0  0  0
  3  9  1  0  0  0  0
  3 39  1  0  0  0  0
  5 10  1  0  0  0  0
  5 26  1  0  0  0  0
  5 32  1  6  0  0  0
  6 12  1  0  0  0  0
  6 36  1  0  0  0  0
  6 19  1  1  0  0  0
  7  8  1  1  0  0  0
  7 14  1  0  0  0  0
  9 16  1  0  0  0  0
 10 11  1  1  0  0  0
 10 18  1  0  0  0  0
 12 13  1  1  0  0  0
 12 20  1  0  0  0  0
 14 15  1  6  0  0  0
 14 22  1  0  0  0  0
 16 17  1  6  0  0  0
 16 24  1  0  0  0  0
 18 19  1  1  0  0  0
 18 25  1  0  0  0  0
 20 21  1  6  0  0  0
 20 27  1  0  0  0  0
 22 23  1  1  0  0  0
 22 29  1  0  0  0  0
 24  2  1  1  0  0  0
 24 31  1  0  0  0  0
 25 26  1  0  0  0  0
 25 33  1  6  0  0  0
 27 28  1  1  0  0  0
 27 35  1  0  0  0  0
 29 30  1  0  0  0  0
 29 37  1  6  0  0  0
 31 32  1  6  0  0  0
 31 39  1  0  0  0  0
 33 34  1  0  0  0  0
 35 36  1  0  0  0  0
 35 41  1  1  0  0  0
 37 38  1  0  0  0  0
 39 40  1  1  0  0  0
 41 42  1  0  0  0  0
M  END
>  <CHROM.1>
88.53707371,-130.47238903,63.71194534,-30.47920755,-174.68849627,155.20600130
178.13138800,-51.05344034,168.69419299,173.81521206,-179.24624014,174.33373913
-176.27876737,173.56422145,61.32225627,161.24135317,143.38686088,177.38549907
-178.49905574,-59.19851254,-62.90433720,157.96662295,5.89723249,5.19693934
30.63551156,-3.04293992,0.58864044,1.97090900

>  <Name>
1fyp_lig

>  <RI>
0

>  <Rbt.Current_Directory>
/home/itssahil/PROJECTS/Mol_Feturizer/New_Systems/rnas/1fyp

>  <Rbt.Executable>
rbdock ($Id: //depot/dev/client3/rdock/2013.1/src/exe/rbdock.cxx#4 $)

>  <Rbt.Library>
libRbt.so (2013.1, Build901 2013/11/27)

>  <Rbt.Parameter_File>
/export/apps/rDock/src/rDock_2013.1_src/data/scripts/dock_solv.prm

>  <Rbt.Receptor>
prm/pocket_docking_7.prm

>  <SCORE>
-29.8886

>  <SCORE.INTER>
-21.8787

>  <SCORE.INTER.CONST>
1

>  <SCORE.INTER.POLAR>
-3.63162

>  <SCORE.INTER.ROT>
14

>  <SCORE.INTER.SOLV>
9.18993

>  <SCORE.INTER.VDW>
-18.4771

>  <SCORE.INTER.norm>
-0.520922

>  <SCORE.INTRA>
-8.00985

>  <SCORE.INTRA.DIHEDRAL>
-27.5782

>  <SCORE.INTRA.DIHEDRAL.0>
48.7173

>  <SCORE.INTRA.POLAR>
1.04694

>  <SCORE.INTRA.POLAR.0>
-1.54691

>  <SCORE.INTRA.REPUL>
0.0956908

>  <SCORE.INTRA.REPUL.0>
0

>  <SCORE.INTRA.SOLV>
-0.268183

>  <SCORE.INTRA.SOLV.lig_0>
-64.052

>  <SCORE.INTRA.VDW>
1.87528

>  <SCORE.INTRA.VDW.0>
-7.0667

>  <SCORE.INTRA.norm>
-0.190711

>  <SCORE.RESTR>
0

>  <SCORE.RESTR.CAVITY>
0

>  <SCORE.RESTR.norm>
0

>  <SCORE.SYSTEM>
0

>  <SCORE.SYSTEM.CONST>
0

>  <SCORE.SYSTEM.DIHEDRAL>
0

>  <SCORE.SYSTEM.SOLV>
0

>  <SCORE.SYSTEM.norm>
0

>  <SCORE.heavy>
42

>  <SCORE.norm>
-0.711633

>  <RMSD>
10.924

$$$$
1fyp_lig
 OpenBabel11021811393D
libRbt.so/2013.1/901 2013/11/27
 42 45  0  0  0  0  0  0  0  0999 V2000
   -2.6832   -1.9663   24.4401 C   0  0  2  0  0  0  0  0  0  0  0  0
   -2.0980   -0.6725   24.7658 O   0  0  0  0  0  0  0  0  0  0  0  0
   -2.5788    0.7534   28.7628 C   0  0  2  0  0  0  0  0  0  0  0  0
   -2.4454    1.0836   30.1938 N   0  0  0  0  0  0  0  0  0  0  0  0
    0.7796    1.8121   26.4331 C   0  0  1  0  0  0  0  0  0  0  0  0
    4.8179    2.4361   27.7047 C   0  0  1  0  0  0  0  0  0  0  0  0
   -1.6936   -2.8507   23.6151 C   0  0  2  0  0  0  0  0  0  0  0  0
   -0.3685   -2.9233   24.2666 N   0  0  0  0  0  0  0  0  0  0  0  0
   -2.4587   -0.7722   28.5752 C   0  0  0  0  0  0  0  0  0  0  0  0
    1.8935    1.1398   25.6263 C   0  0  2  0  0  0  0  0  0  0  0  0
    2.0758   -0.1992   26.0883 O   0  0  0  0  0  0  0  0  0  0  0  0
    4.6945    2.7432   29.2284 C   0  0  2  0  0  0  0  0  0  0  0  0
    3.3380    3.2063   29.6100 N   0  0  0  0  0  0  0  0  0  0  0  0
   -1.5513   -2.3136   22.1566 C   0  0  1  0  0  0  0  0  0  0  0  0
   -0.7743   -3.2166   21.3738 O   0  0  0  0  0  0  0  0  0  0  0  0
   -2.6175   -1.1959   27.0894 C   0  0  2  0  0  0  0  0  0  0  0  0
   -2.4060   -2.6564   27.0114 N   0  0  0  0  0  0  0  0  0  0  0  0
    3.1016    2.0157   25.9694 C   0  0  2  0  0  0  0  0  0  0  0  0
    3.7055    1.6304   27.2356 O   0  0  0  0  0  0  0  0  0  0  0  0
    5.7887    3.7586   29.6809 C   0  0  1  0  0  0  0  0  0  0  0  0
    7.0465    3.0871   29.7093 O   0  0  0  0  0  0  0  0  0  0  0  0
   -2.9295   -2.1294   21.4733 C   0  0  2  0  0  0  0  0  0  0  0  0
   -2.7366   -1.5516   20.1858 O   0  0  0  0  0  0  0  0  0  0  0  0
   -1.6451   -0.4231   26.1274 C   0  0  2  0  0  0  0  0  0  0  0  0
    2.4684    3.4100   26.0755 C   0  0  2  0  0  0  0  0  0  0  0  0
    1.1277    3.2000   26.5598 O   0  0  0  0  0  0  0  0  0  0  0  0
    5.9222    5.0052   28.7547 C   0  0  2  0  0  0  0  0  0  0  0  0
    4.7969    5.8572   28.9748 O   0  0  0  0  0  0  0  0  0  0  0  0
   -3.8488   -1.2282   22.3456 C   0  0  2  0  0  0  0  0  0  0  0  0
   -3.9320   -1.7893   23.6902 O   0  0  0  0  0  0  0  0  0  0  0  0
   -1.6250    1.1258   26.3933 C   0  0  2  0  0  0  0  0  0  0  0  0
   -0.4760    1.6868   25.7067 O   0  0  0  0  0  0  0  0  0  0  0  0
    2.4341    4.1607   24.7324 C   0  0  0  0  0  0  0  0  0  0  0  0
    3.1871    5.3589   24.8041 O   0  0  0  0  0  0  0  0  0  0  0  0
    5.9888    4.5771   27.2558 C   0  0  1  0  0  0  0  0  0  0  0  0
    4.8680    3.6931   26.9479 O   0  0  0  0  0  0  0  0  0  0  0  0
   -5.2998   -1.0925   21.8325 C   0  0  0  0  0  0  0  0  0  0  0  0
   -6.1855   -1.9193   22.5683 O   0  0  0  0  0  0  0  0  0  0  0  0
   -1.5137    1.4819   27.9083 C   0  0  1  0  0  0  0  0  0  0  0  0
   -1.6746    2.8913   28.0618 O   0  0  0  0  0  0  0  0  0  0  0  0
    5.9599    5.7866   26.2865 C   0  0  0  0  0  0  0  0  0  0  0  0
    6.9697    5.6765   25.2183 N   0  0  0  0  0  0  0  0  0  0  0  0
  1  2  1  6  0  0  0
  1  7  1  0  0  0  0
  1 30  1  0  0  0  0
  3  4  1  1  0  0  0
  3  9  1  0  0  0  0
  3 39  1  0  0  0  0
  5 10  1  0  0  0  0
  5 26  1  0  0  0  0
  5 32  1  6  0  0  0
  6 12  1  0  0  0  0
  6 36  1  0  0  0  0
  6 19  1  6  0  0  0
  7  8  1  1  0  0  0
  7 14  1  0  0  0  0
  9 16  1  0  0  0  0
 10 11  1  1  0  0  0
 10 18  1  0  0  0  0
 12 13  1  6  0  0  0
 12 20  1  0  0  0  0
 14 15  1  6  0  0  0
 14 22  1  0  0  0  0
 16 17  1  1  0  0  0
 16 24  1  0  0  0  0
 18 19  1  1  0  0  0
 18 25  1  0  0  0  0
 20 21  1  6  0  0  0
 20 27  1  0  0  0  0
 22 23  1  6  0  0  0
 22 29  1  0  0  0  0
 24  2  1  6  0  0  0
 24 31  1  0  0  0  0
 25 26  1  0  0  0  0
 25 33  1  6  0  0  0
 27 28  1  6  0  0  0
 27 35  1  0  0  0  0
 29 30  1  0  0  0  0
 29 37  1  6  0  0  0
 31 32  1  6  0  0  0
 31 39  1  0  0  0  0
 33 34  1  0  0  0  0
 35 36  1  0  0  0  0
 35 41  1  6  0  0  0
 37 38  1  0  0  0  0
 39 40  1  6  0  0  0
 41 42  1  0  0  0  0
M  END
>  <CHROM.1>
-105.37181982,-33.97486287,-72.00104801,-37.11345618,-64.48140830,166.98382201
64.32373462,115.63294822,-176.76293867,136.32338450,-34.29681790,178.86109314
-118.69412932,69.50153510,101.59664782,-92.12617678,126.98403797,-178.25253455
134.58953456,81.99945798,-38.71319491,122.39385715,0.65407115,1.16613360
25.97318808,2.61240249,-0.52591373,-1.80724885

>  <Name>
1fyp_lig

>  <RI>
0

>  <Rbt.Current_Directory>
/home/itssahil/PROJECTS/Mol_Feturizer/New_Systems/rnas/1fyp

>  <Rbt.Executable>
rbdock ($Id: //depot/dev/client3/rdock/2013.1/src/exe/rbdock.cxx#4 $)

>  <Rbt.Library>
libRbt.so (2013.1, Build901 2013/11/27)

>  <Rbt.Parameter_File>
/export/apps/rDock/src/rDock_2013.1_src/data/scripts/dock_solv.prm

>  <Rbt.Receptor>
prm/pocket_docking_7.prm

>  <SCORE>
-20.3704

>  <SCORE.INTER>
-36.48

>  <SCORE.INTER.CONST>
1

>  <SCORE.INTER.POLAR>
-6.08836

>  <SCORE.INTER.ROT>
14

>  <SCORE.INTER.SOLV>
20.3609

>  <SCORE.INTER.VDW>
-23.7458

>  <SCORE.INTER.norm>
-0.868572

>  <SCORE.INTRA>
16.008

>  <SCORE.INTRA.DIHEDRAL>
5.28176

>  <SCORE.INTRA.DIHEDRAL.0>
48.7173

>  <SCORE.INTRA.POLAR>
1.1928

>  <SCORE.INTRA.POLAR.0>
-1.54691

>  <SCORE.INTRA.REPUL>
0.00437516

>  <SCORE.INTRA.REPUL.0>
0

>  <SCORE.INTRA.SOLV>
-1.1322

>  <SCORE.INTRA.SOLV.lig_0>
-64.052

>  <SCORE.INTRA.VDW>
9.85583

>  <SCORE.INTRA.VDW.0>
-7.0667

>  <SCORE.INTRA.norm>
0.381143

>  <SCORE.RESTR>
0.101567

>  <SCORE.RESTR.CAVITY>
0.101567

>  <SCORE.RESTR.norm>
0.00241826

>  <SCORE.SYSTEM>
0

>  <SCORE.SYSTEM.CONST>
0

>  <SCORE.SYSTEM.DIHEDRAL>
0

>  <SCORE.SYSTEM.SOLV>
0

>  <SCORE.SYSTEM.norm>
0

>  <SCORE.heavy>
42

>  <SCORE.norm>
-0.48501

>  <RMSD>
10.949

$$$$
1fyp_lig
 OpenBabel11021811393D
libRbt.so/2013.1/901 2013/11/27
 42 45  0  0  0  0  0  0  0  0999 V2000
   -1.4942   -0.9546   24.8927 C   0  0  2  0  0  0  0  0  0  0  0  0
   -1.9129    0.0778   25.8314 O   0  0  0  0  0  0  0  0  0  0  0  0
   -2.4440    0.8697   29.9945 C   0  0  2  0  0  0  0  0  0  0  0  0
   -2.4015    0.8859   31.4684 N   0  0  0  0  0  0  0  0  0  0  0  0
    0.6924    2.9546   27.3108 C   0  0  1  0  0  0  0  0  0  0  0  0
    3.1438    6.5993   27.5835 C   0  0  1  0  0  0  0  0  0  0  0  0
   -1.6526   -0.4804   23.4121 C   0  0  2  0  0  0  0  0  0  0  0  0
   -1.0155    0.8366   23.1998 N   0  0  0  0  0  0  0  0  0  0  0  0
   -2.7756   -0.5547   29.5066 C   0  0  0  0  0  0  0  0  0  0  0  0
    1.8092    3.1241   28.3441 C   0  0  2  0  0  0  0  0  0  0  0  0
    1.2599    3.6286   29.5620 O   0  0  0  0  0  0  0  0  0  0  0  0
    2.5249    7.6091   26.5695 C   0  0  2  0  0  0  0  0  0  0  0  0
    1.8972    6.9377   25.4052 N   0  0  0  0  0  0  0  0  0  0  0  0
   -3.1580   -0.4259   23.0037 C   0  0  1  0  0  0  0  0  0  0  0  0
   -3.2799   -0.1472   21.6111 O   0  0  0  0  0  0  0  0  0  0  0  0
   -2.8638   -0.6400   27.9583 C   0  0  2  0  0  0  0  0  0  0  0  0
   -3.1034   -2.0527   27.5969 N   0  0  0  0  0  0  0  0  0  0  0  0
    2.7078    4.1627   27.6672 C   0  0  2  0  0  0  0  0  0  0  0  0
    2.2232    5.5176   27.8818 O   0  0  0  0  0  0  0  0  0  0  0  0
    3.5842    8.6600   26.1150 C   0  0  1  0  0  0  0  0  0  0  0  0
    3.8142    9.5667   27.1914 O   0  0  0  0  0  0  0  0  0  0  0  0
   -3.8854   -1.7603   23.3046 C   0  0  2  0  0  0  0  0  0  0  0  0
   -5.2688   -1.6152   22.9979 O   0  0  0  0  0  0  0  0  0  0  0  0
   -1.5852   -0.0735   27.2424 C   0  0  2  0  0  0  0  0  0  0  0  0
    2.5889    3.7751   26.1867 C   0  0  2  0  0  0  0  0  0  0  0  0
    1.2609    3.2408   26.0229 O   0  0  0  0  0  0  0  0  0  0  0  0
    4.9532    8.0434   25.6958 C   0  0  2  0  0  0  0  0  0  0  0  0
    4.7938    7.4025   24.4291 O   0  0  0  0  0  0  0  0  0  0  0  0
   -3.6940   -2.1555   24.7963 C   0  0  2  0  0  0  0  0  0  0  0  0
   -2.2677   -2.1834   25.1044 O   0  0  0  0  0  0  0  0  0  0  0  0
   -1.1243    1.3133   27.8209 C   0  0  2  0  0  0  0  0  0  0  0  0
    0.2201    1.5777   27.3423 O   0  0  0  0  0  0  0  0  0  0  0  0
    3.6354    2.7346   25.7498 C   0  0  0  0  0  0  0  0  0  0  0  0
    3.6751    2.6202   24.3381 O   0  0  0  0  0  0  0  0  0  0  0  0
    5.4474    7.0161   26.7611 C   0  0  1  0  0  0  0  0  0  0  0  0
    4.3896    6.0477   27.0364 O   0  0  0  0  0  0  0  0  0  0  0  0
   -4.2557   -3.5436   25.1768 C   0  0  0  0  0  0  0  0  0  0  0  0
   -3.2903   -4.3180   25.8680 O   0  0  0  0  0  0  0  0  0  0  0  0
   -1.1055    1.3462   29.3807 C   0  0  1  0  0  0  0  0  0  0  0  0
   -0.8437    2.6819   29.8087 O   0  0  0  0  0  0  0  0  0  0  0  0
    6.7232    6.2576   26.3136 C   0  0  0  0  0  0  0  0  0  0  0  0
    6.4474    5.2641   25.2601 N   0  0  0  0  0  0  0  0  0  0  0  0
  1  2  1  1  0  0  0
  1  7  1  0  0  0  0
  1 30  1  0  0  0  0
  3  4  1  1  0  0  0
  3  9  1  0  0  0  0
  3 39  1  0  0  0  0
  5 10  1  0  0  0  0
  5 26  1  0  0  0  0
  5 32  1  6  0  0  0
  6 12  1  0  0  0  0
  6 36  1  0  0  0  0
  6 19  1  6  0  0  0
  7  8  1  1  0  0  0
  7 14  1  0  0  0  0
  9 16  1  0  0  0  0
 10 11  1  1  0  0  0
 10 18  1  0  0  0  0
 12 13  1  6  0  0  0
 12 20  1  0  0  0  0
 14 15  1  6  0  0  0
 14 22  1  0  0  0  0
 16 17  1  1  0  0  0
 16 24  1  0  0  0  0
 18 19  1  6  0  0  0
 18 25  1  0  0  0  0
 20 21  1  1  0  0  0
 20 27  1  0  0  0  0
 22 23  1  1  0  0  0
 22 29  1  0  0  0  0
 24  2  1  6  0  0  0
 24 31  1  0  0  0  0
 25 26  1  0  0  0  0
 25 33  1  1  0  0  0
 27 28  1  6  0  0  0
 27 35  1  0  0  0  0
 29 30  1  0  0  0  0
 29 37  1  6  0  0  0
 31 32  1  6  0  0  0
 31 39  1  0  0  0  0
 33 34  1  0  0  0  0
 35 36  1  0  0  0  0
 35 41  1  6  0  0  0
 37 38  1  0  0  0  0
 39 40  1  6  0  0  0
 41 42  1  0  0  0  0
M  END
>  <CHROM.1>
-167.58029733,-98.83186120,78.48731100,-31.51367749,-67.27860133,155.63798380
-46.47791003,-134.83556070,165.22999738,124.85197861,56.91971953,-59.66662103
-167.58469483,76.41668136,129.50813811,157.86174089,112.44116759,-64.19232348
-72.88668370,77.59104548,-59.58609023,67.10471854,0.34311120,2.38067200,26.37454909
-2.93206525,0.82661009,1.39987721

>  <Name>
1fyp_lig

>  <RI>
0

>  <Rbt.Current_Directory>
/home/itssahil/PROJECTS/Mol_Feturizer/New_Systems/rnas/1fyp

>  <Rbt.Executable>
rbdock ($Id: //depot/dev/client3/rdock/2013.1/src/exe/rbdock.cxx#4 $)

>  <Rbt.Library>
libRbt.so (2013.1, Build901 2013/11/27)

>  <Rbt.Parameter_File>
/export/apps/rDock/src/rDock_2013.1_src/data/scripts/dock_solv.prm

>  <Rbt.Receptor>
prm/blind_docking_100.prm

>  <SCORE>
-40.6523

>  <SCORE.INTER>
-39.9904

>  <SCORE.INTER.CONST>
1

>  <SCORE.INTER.POLAR>
-5.96199

>  <SCORE.INTER.ROT>
14

>  <SCORE.INTER.SOLV>
17.9434

>  <SCORE.INTER.VDW>
-25.7014

>  <SCORE.INTER.norm>
-0.952152

>  <SCORE.INTRA>
-0.979942

>  <SCORE.INTRA.DIHEDRAL>
-10.6737

>  <SCORE.INTRA.DIHEDRAL.0>
48.7173

>  <SCORE.INTRA.POLAR>
-0.859198

>  <SCORE.INTRA.POLAR.0>
-1.54691

>  <SCORE.INTRA.REPUL>
0

>  <SCORE.INTRA.REPUL.0>
0

>  <SCORE.INTRA.SOLV>
1.24474

>  <SCORE.INTRA.SOLV.lig_0>
-64.052

>  <SCORE.INTRA.VDW>
6.65581

>  <SCORE.INTRA.VDW.0>
-7.0667

>  <SCORE.INTRA.norm>
-0.023332

>  <SCORE.RESTR>
0.317996

>  <SCORE.RESTR.CAVITY>
0.317996

>  <SCORE.RESTR.norm>
0.00757134

>  <SCORE.SYSTEM>
0

>  <SCORE.SYSTEM.CONST>
0

>  <SCORE.SYSTEM.DIHEDRAL>
0

>  <SCORE.SYSTEM.SOLV>
0

>  <SCORE.SYSTEM.norm>
0

>  <SCORE.heavy>
42

>  <SCORE.norm>
-0.967912

>  <RMSD>
10.959

$$$$
1fyp_lig
 OpenBabel11021811393D
libRbt.so/2013.1/901 2013/11/27
 42 45  0  0  0  0  0  0  0  0999 V2000
   -2.2172   -0.1667   25.9036 C   0  0  2  0  0  0  0  0  0  0  0  0
   -3.0693    0.2972   26.9904 O   0  0  0  0  0  0  0  0  0  0  0  0
   -2.6607    1.4642   31.0785 C   0  0  2  0  0  0  0  0  0  0  0  0
   -2.4072    1.5441   32.5289 N   0  0  0  0  0  0  0  0  0  0  0  0
    0.8808    1.5541   28.5799 C   0  0  1  0  0  0  0  0  0  0  0  0
    4.8472    3.2683   29.0331 C   0  0  1  0  0  0  0  0  0  0  0  0
   -2.5511    0.5635   24.5629 C   0  0  2  0  0  0  0  0  0  0  0  0
   -2.5725    2.0308   24.7423 N   0  0  0  0  0  0  0  0  0  0  0  0
   -3.5793    0.2615   30.7839 C   0  0  0  0  0  0  0  0  0  0  0  0
    2.0958    0.8521   27.9679 C   0  0  2  0  0  0  0  0  0  0  0  0
    2.5808   -0.1393   28.8743 O   0  0  0  0  0  0  0  0  0  0  0  0
    4.3914    4.6036   29.6966 C   0  0  2  0  0  0  0  0  0  0  0  0
    3.0514    5.0424   29.2359 N   0  0  0  0  0  0  0  0  0  0  0  0
   -3.9138    0.0687   23.9847 C   0  0  1  0  0  0  0  0  0  0  0  0
   -4.1282    0.6227   22.6890 O   0  0  0  0  0  0  0  0  0  0  0  0
   -3.9116    0.1321   29.2722 C   0  0  2  0  0  0  0  0  0  0  0  0
   -4.7238   -1.0891   29.0915 N   0  0  0  0  0  0  0  0  0  0  0  0
    3.0884    2.0093   27.8265 C   0  0  2  0  0  0  0  0  0  0  0  0
    3.7931    2.2712   29.0721 O   0  0  0  0  0  0  0  0  0  0  0  0
    5.4582    5.7217   29.4851 C   0  0  1  0  0  0  0  0  0  0  0  0
    6.5761    5.4468   30.3268 O   0  0  0  0  0  0  0  0  0  0  0  0
   -3.9665   -1.4758   23.8750 C   0  0  2  0  0  0  0  0  0  0  0  0
   -5.2624   -1.8665   23.4315 O   0  0  0  0  0  0  0  0  0  0  0  0
   -2.6287    0.1074   28.3657 C   0  0  2  0  0  0  0  0  0  0  0  0
    2.1654    3.1834   27.4715 C   0  0  2  0  0  0  0  0  0  0  0  0
    0.9165    2.9214   28.1405 O   0  0  0  0  0  0  0  0  0  0  0  0
    5.9705    5.8431   28.0179 C   0  0  2  0  0  0  0  0  0  0  0  0
    4.9412    6.4368   27.2251 O   0  0  0  0  0  0  0  0  0  0  0  0
   -3.6388   -2.1265   25.2488 C   0  0  2  0  0  0  0  0  0  0  0  0
   -2.3574   -1.6164   25.7261 O   0  0  0  0  0  0  0  0  0  0  0  0
   -1.5938    1.2296   28.7397 C   0  0  2  0  0  0  0  0  0  0  0  0
   -0.3333    0.9151   28.0927 O   0  0  0  0  0  0  0  0  0  0  0  0
    1.9335    3.3316   25.9573 C   0  0  0  0  0  0  0  0  0  0  0  0
    2.7702    4.3380   25.4143 O   0  0  0  0  0  0  0  0  0  0  0  0
    6.3506    4.4421   27.4461 C   0  0  1  0  0  0  0  0  0  0  0  0
    5.2389    3.5152   27.6399 O   0  0  0  0  0  0  0  0  0  0  0  0
   -3.5206   -3.6668   25.2253 C   0  0  0  0  0  0  0  0  0  0  0  0
   -4.7420   -4.2711   24.8351 O   0  0  0  0  0  0  0  0  0  0  0  0
   -1.3433    1.3390   30.2759 C   0  0  1  0  0  0  0  0  0  0  0  0
   -0.5309    2.4845   30.5282 O   0  0  0  0  0  0  0  0  0  0  0  0
    6.7129    4.4892   25.9396 C   0  0  0  0  0  0  0  0  0  0  0  0
    8.0480    5.0660   25.6991 N   0  0  0  0  0  0  0  0  0  0  0  0
  1  2  1  1  0  0  0
  1  7  1  0  0  0  0
  1 30  1  0  0  0  0
  3  4  1  1  0  0  0
  3  9  1  0  0  0  0
  3 39  1  0  0  0  0
  5 10  1  0  0  0  0
  5 26  1  0  0  0  0
  5 32  1  6  0  0  0
  6 12  1  0  0  0  0
  6 36  1  0  0  0  0
  6 19  1  6  0  0  0
  7  8  1  1  0  0  0
  7 14  1  0  0  0  0
  9 16  1  0  0  0  0
 10 11  1  1  0  0  0
 10 18  1  0  0  0  0
 12 13  1  6  0  0  0
 12 20  1  0  0  0  0
 14 15  1  6  0  0  0
 14 22  1  0  0  0  0
 16 17  1  1  0  0  0
 16 24  1  0  0  0  0
 18 19  1  1  0  0  0
 18 25  1  0  0  0  0
 20 21  1  1  0  0  0
 20 27  1  0  0  0  0
 22 23  1  1  0  0  0
 22 29  1  0  0  0  0
 24  2  1  6  0  0  0
 24 31  1  0  0  0  0
 25 26  1  0  0  0  0
 25 33  1  6  0  0  0
 27 28  1  6  0  0  0
 27 35  1  0  0  0  0
 29 30  1  0  0  0  0
 29 37  1  6  0  0  0
 31 32  1  6  0  0  0
 31 39  1  0  0  0  0
 33 34  1  0  0  0  0
 35 36  1  0  0  0  0
 35 41  1  6  0  0  0
 37 38  1  0  0  0  0
 39 40  1  6  0  0  0
 41 42  1  0  0  0  0
M  END
>  <CHROM.1>
-158.67585323,-157.14637587,-60.47410170,103.33061224,-67.47049822,77.68609227
-153.01606859,72.08899457,174.68230613,104.78937059,-62.44987609,68.93717939
-99.17839575,-45.95339955,-61.84759094,-161.96704328,167.68473094,178.24485368
75.16192051,-176.23310453,-52.70031090,61.42753304,0.37907275,1.69609482
27.47672632,-2.86763112,0.53069157,1.42046223

>  <Name>
1fyp_lig

>  <RI>
0

>  <Rbt.Current_Directory>
/home/itssahil/PROJECTS/Mol_Feturizer/New_Systems/rnas/1fyp

>  <Rbt.Executable>
rbdock ($Id: //depot/dev/client3/rdock/2013.1/src/exe/rbdock.cxx#4 $)

>  <Rbt.Library>
libRbt.so (2013.1, Build901 2013/11/27)

>  <Rbt.Parameter_File>
/export/apps/rDock/src/rDock_2013.1_src/data/scripts/dock_solv.prm

>  <Rbt.Receptor>
prm/blind_docking_60.prm

>  <SCORE>
-28.6876

>  <SCORE.INTER>
-23.4836

>  <SCORE.INTER.CONST>
1

>  <SCORE.INTER.POLAR>
-1.62892

>  <SCORE.INTER.ROT>
14

>  <SCORE.INTER.SOLV>
16.9819

>  <SCORE.INTER.VDW>
-28.82

>  <SCORE.INTER.norm>
-0.559134

>  <SCORE.INTRA>
-5.20397

>  <SCORE.INTRA.DIHEDRAL>
-23.2644

>  <SCORE.INTRA.DIHEDRAL.0>
48.7173

>  <SCORE.INTRA.POLAR>
0.67659

>  <SCORE.INTRA.POLAR.0>
-1.54691

>  <SCORE.INTRA.REPUL>
0.0135828

>  <SCORE.INTRA.REPUL.0>
0

>  <SCORE.INTRA.SOLV>
-1.25231

>  <SCORE.INTRA.SOLV.lig_0>
-64.052

>  <SCORE.INTRA.VDW>
4.68604

>  <SCORE.INTRA.VDW.0>
-7.0667

>  <SCORE.INTRA.norm>
-0.123904

>  <SCORE.RESTR>
0

>  <SCORE.RESTR.CAVITY>
0

>  <SCORE.RESTR.norm>
0

>  <SCORE.SYSTEM>
0

>  <SCORE.SYSTEM.CONST>
0

>  <SCORE.SYSTEM.DIHEDRAL>
0

>  <SCORE.SYSTEM.SOLV>
0

>  <SCORE.SYSTEM.norm>
0

>  <SCORE.heavy>
42

>  <SCORE.norm>
-0.683038

>  <RMSD>
11.057

$$$$
1fyp_lig
 OpenBabel11021811393D
libRbt.so/2013.1/901 2013/11/27
 42 45  0  0  0  0  0  0  0  0999 V2000
   -4.0987   -0.7912   29.4855 C   0  0  2  0  0  0  0  0  0  0  0  0
   -3.5178    0.5381   29.6192 O   0  0  0  0  0  0  0  0  0  0  0  0
   -0.5043    2.7642   31.6694 C   0  0  2  0  0  0  0  0  0  0  0  0
    0.6699    3.2210   32.4356 N   0  0  0  0  0  0  0  0  0  0  0  0
    0.2556    1.5455   27.5465 C   0  0  1  0  0  0  0  0  0  0  0  0
    2.6149    2.9509   26.7894 C   0  0  1  0  0  0  0  0  0  0  0  0
   -4.6738   -1.0230   28.0510 C   0  0  2  0  0  0  0  0  0  0  0  0
   -3.6785   -0.6812   27.0126 N   0  0  0  0  0  0  0  0  0  0  0  0
   -1.2738    1.7100   32.4901 C   0  0  0  0  0  0  0  0  0  0  0  0
    1.0819    0.4229   26.9134 C   0  0  2  0  0  0  0  0  0  0  0  0
    2.1976    0.1204   27.7520 O   0  0  0  0  0  0  0  0  0  0  0  0
    2.3190    4.3382   26.1421 C   0  0  2  0  0  0  0  0  0  0  0  0
    3.1888    4.6210   24.9743 N   0  0  0  0  0  0  0  0  0  0  0  0
   -5.9833   -0.2012   27.8373 C   0  0  1  0  0  0  0  0  0  0  0  0
   -6.5804   -0.5433   26.5891 O   0  0  0  0  0  0  0  0  0  0  0  0
   -2.5430    1.2026   31.7525 C   0  0  2  0  0  0  0  0  0  0  0  0
   -3.1560    0.1458   32.5837 N   0  0  0  0  0  0  0  0  0  0  0  0
    1.5324    1.0676   25.5998 C   0  0  2  0  0  0  0  0  0  0  0  0
    2.7061    1.9070   25.7851 O   0  0  0  0  0  0  0  0  0  0  0  0
    2.4073    5.4771   27.2042 C   0  0  1  0  0  0  0  0  0  0  0  0
    1.2618    5.3982   28.0499 O   0  0  0  0  0  0  0  0  0  0  0  0
   -7.0153   -0.4583   28.9639 C   0  0  2  0  0  0  0  0  0  0  0  0
   -8.1439    0.3870   28.7625 O   0  0  0  0  0  0  0  0  0  0  0  0
   -2.2389    0.6864   30.3002 C   0  0  2  0  0  0  0  0  0  0  0  0
    0.3125    1.9207   25.2250 C   0  0  2  0  0  0  0  0  0  0  0  0
   -0.2789    2.3349   26.4718 O   0  0  0  0  0  0  0  0  0  0  0  0
    3.6808    5.4139   28.1008 C   0  0  2  0  0  0  0  0  0  0  0  0
    4.8063    5.8203   27.3204 O   0  0  0  0  0  0  0  0  0  0  0  0
   -6.3737   -0.1925   30.3553 C   0  0  2  0  0  0  0  0  0  0  0  0
   -5.1579   -0.9897   30.4815 O   0  0  0  0  0  0  0  0  0  0  0  0
   -1.3244    1.6678   29.4812 C   0  0  2  0  0  0  0  0  0  0  0  0
   -0.8349    0.9595   28.3128 O   0  0  0  0  0  0  0  0  0  0  0  0
   -0.7203    1.1567   24.3775 C   0  0  0  0  0  0  0  0  0  0  0  0
   -0.0991    0.5280   23.2700 O   0  0  0  0  0  0  0  0  0  0  0  0
    3.8997    3.9705   28.6512 C   0  0  1  0  0  0  0  0  0  0  0  0
    3.8706    3.0150   27.5473 O   0  0  0  0  0  0  0  0  0  0  0  0
   -7.2677   -0.5555   31.5619 C   0  0  0  0  0  0  0  0  0  0  0  0
   -7.7574   -1.8819   31.4594 O   0  0  0  0  0  0  0  0  0  0  0  0
   -0.0958    2.1780   30.2965 C   0  0  1  0  0  0  0  0  0  0  0  0
    0.5726    3.1848   29.5380 O   0  0  0  0  0  0  0  0  0  0  0  0
    5.2396    3.8189   29.4160 C   0  0  0  0  0  0  0  0  0  0  0  0
    5.0602    3.8536   30.8787 N   0  0  0  0  0  0  0  0  0  0  0  0
  1  2  1  6  0  0  0
  1  7  1  0  0  0  0
  1 30  1  0  0  0  0
  3  4  1  1  0  0  0
  3  9  1  0  0  0  0
  3 39  1  0  0  0  0
  5 10  1  0  0  0  0
  5 26  1  0  0  0  0
  5 32  1  6  0  0  0
  6 12  1  0  0  0  0
  6 36  1  0  0  0  0
  6 19  1  6  0  0  0
  7  8  1  6  0  0  0
  7 14  1  0  0  0  0
  9 16  1  0  0  0  0
 10 11  1  1  0  0  0
 10 18  1  0  0  0  0
 12 13  1  6  0  0  0
 12 20  1  0  0  0  0
 14 15  1  6  0  0  0
 14 22  1  0  0  0  0
 16 17  1  1  0  0  0
 16 24  1  0  0  0  0
 18 19  1  1  0  0  0
 18 25  1  0  0  0  0
 20 21  1  1  0  0  0
 20 27  1  0  0  0  0
 22 23  1  6  0  0  0
 22 29  1  0  0  0  0
 24  2  1  6  0  0  0
 24 31  1  0  0  0  0
 25 26  1  0  0  0  0
 25 33  1  1  0  0  0
 27 28  1  6  0  0  0
 27 35  1  0  0  0  0
 29 30  1  0  0  0  0
 29 37  1  1  0  0  0
 31 32  1  6  0  0  0
 31 39  1  0  0  0  0
 33 34  1  0  0  0  0
 35 36  1  0  0  0  0
 35 41  1  6  0  0  0
 37 38  1  0  0  0  0
 39 40  1  6  0  0  0
 41 42  1  0  0  0  0
M  END
>  <CHROM.1>
-136.44779149,-101.30932840,-161.90806244,39.96757680,62.59746071,-15.94736836
65.63003384,-40.61706334,-54.81685459,-99.87675845,63.69869314,-61.73268145
-50.75584378,173.75565844,52.07958516,-166.90570003,149.70949198,-118.98806967
101.07716564,54.05794437,-26.79116965,107.95971123,-0.85298747,1.68491709
28.49012483,-2.98517131,-0.46202682,-1.71061264

>  <Name>
1fyp_lig

>  <RI>
0

>  <Rbt.Current_Directory>
/home/itssahil/PROJECTS/Mol_Feturizer/New_Systems/rnas/1fyp

>  <Rbt.Executable>
rbdock ($Id: //depot/dev/client3/rdock/2013.1/src/exe/rbdock.cxx#4 $)

>  <Rbt.Library>
libRbt.so (2013.1, Build901 2013/11/27)

>  <Rbt.Parameter_File>
/export/apps/rDock/src/rDock_2013.1_src/data/scripts/dock_solv.prm

>  <Rbt.Receptor>
prm/pocket_docking_7.prm

>  <SCORE>
-33.3175

>  <SCORE.INTER>
-38.9039

>  <SCORE.INTER.CONST>
1

>  <SCORE.INTER.POLAR>
-4.78346

>  <SCORE.INTER.ROT>
14

>  <SCORE.INTER.SOLV>
14.9444

>  <SCORE.INTER.VDW>
-27.9059

>  <SCORE.INTER.norm>
-0.926284

>  <SCORE.INTRA>
5.5864

>  <SCORE.INTRA.DIHEDRAL>
-4.3614

>  <SCORE.INTRA.DIHEDRAL.0>
48.7173

>  <SCORE.INTRA.POLAR>
0.541586

>  <SCORE.INTRA.POLAR.0>
-1.54691

>  <SCORE.INTRA.REPUL>
0

>  <SCORE.INTRA.REPUL.0>
0

>  <SCORE.INTRA.SOLV>
-0.172847

>  <SCORE.INTRA.SOLV.lig_0>
-64.052

>  <SCORE.INTRA.VDW>
6.01213

>  <SCORE.INTRA.VDW.0>
-7.0667

>  <SCORE.INTRA.norm>
0.13301

>  <SCORE.RESTR>
0

>  <SCORE.RESTR.CAVITY>
0

>  <SCORE.RESTR.norm>
0

>  <SCORE.SYSTEM>
0

>  <SCORE.SYSTEM.CONST>
0

>  <SCORE.SYSTEM.DIHEDRAL>
0

>  <SCORE.SYSTEM.SOLV>
0

>  <SCORE.SYSTEM.norm>
0

>  <SCORE.heavy>
42

>  <SCORE.norm>
-0.793274

>  <RMSD>
11.078

$$$$
1fyp_lig
 OpenBabel11021811393D
libRbt.so/2013.1/901 2013/11/27
 42 45  0  0  0  0  0  0  0  0999 V2000
    4.6743    2.3275   27.7104 C   0  0  2  0  0  0  0  0  0  0  0  0
    4.1778    3.2342   28.7369 O   0  0  0  0  0  0  0  0  0  0  0  0
    2.1016    2.9998   32.4618 C   0  0  2  0  0  0  0  0  0  0  0  0
    1.5954    2.6521   33.8025 N   0  0  0  0  0  0  0  0  0  0  0  0
    5.8958    5.6270   31.4328 C   0  0  1  0  0  0  0  0  0  0  0  0
    7.9895    9.3192   32.6685 C   0  0  1  0  0  0  0  0  0  0  0  0
    5.2625    3.1094   26.4919 C   0  0  2  0  0  0  0  0  0  0  0  0
    6.2361    4.1318   26.9302 N   0  0  0  0  0  0  0  0  0  0  0  0
    2.0556    1.7524   31.5568 C   0  0  0  0  0  0  0  0  0  0  0  0
    6.7080    5.7540   32.7242 C   0  0  2  0  0  0  0  0  0  0  0  0
    5.8440    6.1341   33.7959 O   0  0  0  0  0  0  0  0  0  0  0  0
    8.0193   10.1639   31.3582 C   0  0  2  0  0  0  0  0  0  0  0  0
    8.1623    9.3269   30.1419 N   0  0  0  0  0  0  0  0  0  0  0  0
    4.1241    3.7701   25.6531 C   0  0  1  0  0  0  0  0  0  0  0  0
    4.6595    4.3428   24.4626 O   0  0  0  0  0  0  0  0  0  0  0  0
    2.5509    2.0532   30.1158 C   0  0  2  0  0  0  0  0  0  0  0  0
    2.5428    0.7826   29.3613 N   0  0  0  0  0  0  0  0  0  0  0  0
    7.6844    6.8794   32.3712 C   0  0  2  0  0  0  0  0  0  0  0  0
    7.0829    8.1919   32.5508 O   0  0  0  0  0  0  0  0  0  0  0  0
    9.1287   11.2581   31.4275 C   0  0  1  0  0  0  0  0  0  0  0  0
    8.6996   12.2830   32.3213 O   0  0  0  0  0  0  0  0  0  0  0  0
    3.0305    2.7461   25.2584 C   0  0  2  0  0  0  0  0  0  0  0  0
    1.9798    3.4265   24.5789 O   0  0  0  0  0  0  0  0  0  0  0  0
    3.9690    2.7288   30.0868 C   0  0  2  0  0  0  0  0  0  0  0  0
    7.9609    6.6113   30.8853 C   0  0  2  0  0  0  0  0  0  0  0  0
    6.7493    6.0408   30.3539 O   0  0  0  0  0  0  0  0  0  0  0  0
   10.5119   10.7317   31.9171 C   0  0  2  0  0  0  0  0  0  0  0  0
   11.1000    9.9581   30.8701 O   0  0  0  0  0  0  0  0  0  0  0  0
    2.4863    2.0226   26.5228 C   0  0  2  0  0  0  0  0  0  0  0  0
    3.6032    1.4340   27.2549 O   0  0  0  0  0  0  0  0  0  0  0  0
    4.1035    3.9125   31.1119 C   0  0  2  0  0  0  0  0  0  0  0  0
    5.5122    4.2348   31.2470 O   0  0  0  0  0  0  0  0  0  0  0  0
    9.1425    5.6522   30.6553 C   0  0  0  0  0  0  0  0  0  0  0  0
    8.8082    4.3343   31.0541 O   0  0  0  0  0  0  0  0  0  0  0  0
   10.3506    9.8634   33.2033 C   0  0  1  0  0  0  0  0  0  0  0  0
    9.3404    8.8336   32.9762 O   0  0  0  0  0  0  0  0  0  0  0  0
    1.4918    0.8754   26.2362 C   0  0  0  0  0  0  0  0  0  0  0  0
    0.2936    1.3650   25.6583 O   0  0  0  0  0  0  0  0  0  0  0  0
    3.5426    3.5609   32.5248 C   0  0  1  0  0  0  0  0  0  0  0  0
    3.5511    4.7396   33.3287 O   0  0  0  0  0  0  0  0  0  0  0  0
   11.6754    9.1852   33.6371 C   0  0  0  0  0  0  0  0  0  0  0  0
   12.1742    8.2294   32.6318 N   0  0  0  0  0  0  0  0  0  0  0  0
  1  2  1  1  0  0  0
  1  7  1  0  0  0  0
  1 30  1  0  0  0  0
  3  4  1  1  0  0  0
  3  9  1  0  0  0  0
  3 39  1  0  0  0  0
  5 10  1  0  0  0  0
  5 26  1  0  0  0  0
  5 32  1  6  0  0  0
  6 12  1  0  0  0  0
  6 36  1  0  0  0  0
  6 19  1  6  0  0  0
  7  8  1  1  0  0  0
  7 14  1  0  0  0  0
  9 16  1  0  0  0  0
 10 11  1  1  0  0  0
 10 18  1  0  0  0  0
 12 13  1  6  0  0  0
 12 20  1  0  0  0  0
 14 15  1  6  0  0  0
 14 22  1  0  0  0  0
 16 17  1  6  0  0  0
 16 24  1  0  0  0  0
 18 19  1  6  0  0  0
 18 25  1  0  0  0  0
 20 21  1  1  0  0  0
 20 27  1  0  0  0  0
 22 23  1  1  0  0  0
 22 29  1  0  0  0  0
 24  2  1  6  0  0  0
 24 31  1  0  0  0  0
 25 26  1  0  0  0  0
 25 33  1  1  0  0  0
 27 28  1  6  0  0  0
 27 35  1  0  0  0  0
 29 30  1  0  0  0  0
 29 37  1  6  0  0  0
 31 32  1  1  0  0  0
 31 39  1  0  0  0  0
 33 34  1  0  0  0  0
 35 36  1  0  0  0  0
 35 41  1  6  0  0  0
 37 38  1  0  0  0  0
 39 40  1  1  0  0  0
 41 42  1  0  0  0  0
M  END
>  <CHROM.1>
-161.73715411,-83.75530115,-46.55715430,-46.86869264,-62.82245859,170.56999425
-47.41110775,-38.30092851,160.91786184,104.80143970,-57.94514837,68.71915852
70.13522604,70.86665804,-65.63581231,144.25002026,123.28670902,84.10262565
-63.25558410,-55.97377689,172.28951085,52.48083462,5.87193123,5.40076198
30.21677920,-2.64018296,0.77206901,1.48363522

>  <Name>
1fyp_lig

>  <RI>
0

>  <Rbt.Current_Directory>
/home/itssahil/PROJECTS/Mol_Feturizer/New_Systems/rnas/1fyp

>  <Rbt.Executable>
rbdock ($Id: //depot/dev/client3/rdock/2013.1/src/exe/rbdock.cxx#4 $)

>  <Rbt.Library>
libRbt.so (2013.1, Build901 2013/11/27)

>  <Rbt.Parameter_File>
/export/apps/rDock/src/rDock_2013.1_src/data/scripts/dock_solv.prm

>  <Rbt.Receptor>
prm/pocket_docking_7.prm

>  <SCORE>
-35.3352

>  <SCORE.INTER>
-28.7516

>  <SCORE.INTER.CONST>
1

>  <SCORE.INTER.POLAR>
-4.42325

>  <SCORE.INTER.ROT>
14

>  <SCORE.INTER.SOLV>
11.8612

>  <SCORE.INTER.VDW>
-21.3106

>  <SCORE.INTER.norm>
-0.684562

>  <SCORE.INTRA>
-6.58359

>  <SCORE.INTRA.DIHEDRAL>
-18.2816

>  <SCORE.INTRA.DIHEDRAL.0>
48.7173

>  <SCORE.INTRA.POLAR>
-0.151777

>  <SCORE.INTRA.POLAR.0>
-1.54691

>  <SCORE.INTRA.REPUL>
0

>  <SCORE.INTRA.REPUL.0>
0

>  <SCORE.INTRA.SOLV>
1.15904

>  <SCORE.INTRA.SOLV.lig_0>
-64.052

>  <SCORE.INTRA.VDW>
2.49375

>  <SCORE.INTRA.VDW.0>
-7.0667

>  <SCORE.INTRA.norm>
-0.156752

>  <SCORE.RESTR>
0

>  <SCORE.RESTR.CAVITY>
0

>  <SCORE.RESTR.norm>
0

>  <SCORE.SYSTEM>
0

>  <SCORE.SYSTEM.CONST>
0

>  <SCORE.SYSTEM.DIHEDRAL>
0

>  <SCORE.SYSTEM.SOLV>
0

>  <SCORE.SYSTEM.norm>
0

>  <SCORE.heavy>
42

>  <SCORE.norm>
-0.841314

>  <RMSD>
11.079

$$$$
1fyp_lig
 OpenBabel11021811393D
libRbt.so/2013.1/901 2013/11/27
 42 45  0  0  0  0  0  0  0  0999 V2000
   -2.0687   -2.8520   24.9032 C   0  0  2  0  0  0  0  0  0  0  0  0
   -1.6616   -1.4555   24.9824 O   0  0  0  0  0  0  0  0  0  0  0  0
   -2.5620    0.5045   28.6687 C   0  0  2  0  0  0  0  0  0  0  0  0
   -2.5493    1.0942   30.0202 N   0  0  0  0  0  0  0  0  0  0  0  0
    0.8021    1.2106   25.9578 C   0  0  1  0  0  0  0  0  0  0  0  0
    4.6248    2.8249   26.3595 C   0  0  1  0  0  0  0  0  0  0  0  0
   -1.4908   -3.5452   23.6274 C   0  0  2  0  0  0  0  0  0  0  0  0
   -0.0338   -3.3232   23.5099 N   0  0  0  0  0  0  0  0  0  0  0  0
   -2.1344   -0.9745   28.7503 C   0  0  0  0  0  0  0  0  0  0  0  0
    1.3914    2.6188   26.0740 C   0  0  2  0  0  0  0  0  0  0  0  0
    2.1003    2.9398   24.8765 O   0  0  0  0  0  0  0  0  0  0  0  0
    5.7165    3.1101   27.4356 C   0  0  2  0  0  0  0  0  0  0  0  0
    5.1400    3.4110   28.7688 N   0  0  0  0  0  0  0  0  0  0  0  0
   -2.2204   -3.0425   22.3425 C   0  0  1  0  0  0  0  0  0  0  0  0
   -1.7954   -3.7955   21.2093 O   0  0  0  0  0  0  0  0  0  0  0  0
   -2.1514   -1.6687   27.3610 C   0  0  2  0  0  0  0  0  0  0  0  0
   -1.6513   -3.0478   27.5394 N   0  0  0  0  0  0  0  0  0  0  0  0
    2.3466    2.4621   27.2604 C   0  0  2  0  0  0  0  0  0  0  0  0
    3.6241    1.8972   26.8539 O   0  0  0  0  0  0  0  0  0  0  0  0
    6.6784    4.2441   26.9644 C   0  0  1  0  0  0  0  0  0  0  0  0
    7.5283    3.7232   25.9446 O   0  0  0  0  0  0  0  0  0  0  0  0
   -3.7596   -3.1671   22.4678 C   0  0  2  0  0  0  0  0  0  0  0  0
   -4.3674   -2.6082   21.3072 O   0  0  0  0  0  0  0  0  0  0  0  0
   -1.3175   -0.8911   26.2803 C   0  0  2  0  0  0  0  0  0  0  0  0
    1.5838    1.4796   28.1600 C   0  0  2  0  0  0  0  0  0  0  0  0
    0.8344    0.6289   27.2709 O   0  0  0  0  0  0  0  0  0  0  0  0
    5.9510    5.5012   26.3982 C   0  0  2  0  0  0  0  0  0  0  0  0
    5.3648    6.2158   27.4874 O   0  0  0  0  0  0  0  0  0  0  0  0
   -4.2578   -2.4416   23.7499 C   0  0  2  0  0  0  0  0  0  0  0  0
   -3.5321   -2.9598   24.9052 O   0  0  0  0  0  0  0  0  0  0  0  0
   -1.6153    0.6521   26.2718 C   0  0  2  0  0  0  0  0  0  0  0  0
   -0.5763    1.3081   25.4994 O   0  0  0  0  0  0  0  0  0  0  0  0
    0.6339    2.1796   29.1482 C   0  0  0  0  0  0  0  0  0  0  0  0
    1.3613    2.9568   30.0834 O   0  0  0  0  0  0  0  0  0  0  0  0
    4.8519    5.0891   25.3703 C   0  0  1  0  0  0  0  0  0  0  0  0
    3.9773    4.0820   25.9647 O   0  0  0  0  0  0  0  0  0  0  0  0
   -5.7616   -2.6226   24.0547 C   0  0  0  0  0  0  0  0  0  0  0  0
   -6.0960   -2.0954   25.3274 O   0  0  0  0  0  0  0  0  0  0  0  0
   -1.6324    1.2765   27.7016 C   0  0  1  0  0  0  0  0  0  0  0  0
   -2.0757    2.6294   27.6065 O   0  0  0  0  0  0  0  0  0  0  0  0
    3.9927    6.2906   24.8996 C   0  0  0  0  0  0  0  0  0  0  0  0
    4.2064    6.6128   23.4771 N   0  0  0  0  0  0  0  0  0  0  0  0
  1  2  1  6  0  0  0
  1  7  1  0  0  0  0
  1 30  1  0  0  0  0
  3  4  1  1  0  0  0
  3  9  1  0  0  0  0
  3 39  1  0  0  0  0
  5 10  1  0  0  0  0
  5 26  1  0  0  0  0
  5 32  1  1  0  0  0
  6 12  1  0  0  0  0
  6 36  1  0  0  0  0
  6 19  1  1  0  0  0
  7  8  1  6  0  0  0
  7 14  1  0  0  0  0
  9 16  1  0  0  0  0
 10 11  1  6  0  0  0
 10 18  1  0  0  0  0
 12 13  1  1  0  0  0
 12 20  1  0  0  0  0
 14 15  1  6  0  0  0
 14 22  1  0  0  0  0
 16 17  1  1  0  0  0
 16 24  1  0  0  0  0
 18 19  1  6  0  0  0
 18 25  1  0  0  0  0
 20 21  1  6  0  0  0
 20 27  1  0  0  0  0
 22 23  1  6  0  0  0
 22 29  1  0  0  0  0
 24  2  1  6  0  0  0
 24 31  1  0  0  0  0
 25 26  1  0  0  0  0
 25 33  1  1  0  0  0
 27 28  1  1  0  0  0
 27 35  1  0  0  0  0
 29 30  1  0  0  0  0
 29 37  1  1  0  0  0
 31 32  1  6  0  0  0
 31 39  1  0  0  0  0
 33 34  1  0  0  0  0
 35 36  1  0  0  0  0
 35 41  1  1  0  0  0
 37 38  1  0  0  0  0
 39 40  1  6  0  0  0
 41 42  1  0  0  0  0
M  END
>  <CHROM.1>
-141.21770546,-29.15039845,-171.54924511,-175.34617877,62.08855222,61.42049562
-63.71868693,-65.01458944,85.34881318,102.94723659,-95.55970023,-60.78293313
-65.31760756,59.62405180,171.70802805,-61.63705104,-126.57504098,67.63071970
112.66417066,-56.47056725,-22.92747351,85.14230767,0.41794655,0.88416124
26.01155950,-2.69060839,0.59455455,1.17939745

>  <Name>
1fyp_lig

>  <RI>
0

>  <Rbt.Current_Directory>
/home/itssahil/PROJECTS/Mol_Feturizer/New_Systems/rnas/1fyp

>  <Rbt.Executable>
rbdock ($Id: //depot/dev/client3/rdock/2013.1/src/exe/rbdock.cxx#4 $)

>  <Rbt.Library>
libRbt.so (2013.1, Build901 2013/11/27)

>  <Rbt.Parameter_File>
/export/apps/rDock/src/rDock_2013.1_src/data/scripts/dock_solv.prm

>  <Rbt.Receptor>
prm/blind_docking_40.prm

>  <SCORE>
-24.4224

>  <SCORE.INTER>
-35.3576

>  <SCORE.INTER.CONST>
1

>  <SCORE.INTER.POLAR>
-4.68734

>  <SCORE.INTER.ROT>
14

>  <SCORE.INTER.SOLV>
16.8446

>  <SCORE.INTER.VDW>
-26.4954

>  <SCORE.INTER.norm>
-0.841846

>  <SCORE.INTRA>
10.9352

>  <SCORE.INTRA.DIHEDRAL>
-7.24372

>  <SCORE.INTRA.DIHEDRAL.0>
48.7173

>  <SCORE.INTRA.POLAR>
1.45809

>  <SCORE.INTRA.POLAR.0>
-1.54691

>  <SCORE.INTRA.REPUL>
0.10195

>  <SCORE.INTRA.REPUL.0>
0

>  <SCORE.INTRA.SOLV>
-1.18901

>  <SCORE.INTRA.SOLV.lig_0>
-64.052

>  <SCORE.INTRA.VDW>
9.68428

>  <SCORE.INTRA.VDW.0>
-7.0667

>  <SCORE.INTRA.norm>
0.260362

>  <SCORE.RESTR>
0

>  <SCORE.RESTR.CAVITY>
0

>  <SCORE.RESTR.norm>
0

>  <SCORE.SYSTEM>
0

>  <SCORE.SYSTEM.CONST>
0

>  <SCORE.SYSTEM.DIHEDRAL>
0

>  <SCORE.SYSTEM.SOLV>
0

>  <SCORE.SYSTEM.norm>
0

>  <SCORE.heavy>
42

>  <SCORE.norm>
-0.581485

>  <RMSD>
11.102

$$$$
1fyp_lig
 OpenBabel11021811393D
libRbt.so/2013.1/901 2013/11/27
 42 45  0  0  0  0  0  0  0  0999 V2000
   -3.5474   -0.8458   26.7634 C   0  0  2  0  0  0  0  0  0  0  0  0
   -3.7383   -2.2331   26.3615 O   0  0  0  0  0  0  0  0  0  0  0  0
   -1.6681   -4.4503   23.3551 C   0  0  2  0  0  0  0  0  0  0  0  0
   -1.1933   -5.0818   22.1100 N   0  0  0  0  0  0  0  0  0  0  0  0
   -0.6864   -0.0892   24.8006 C   0  0  1  0  0  0  0  0  0  0  0  0
    2.2604    2.9665   25.9579 C   0  0  1  0  0  0  0  0  0  0  0  0
   -3.0436   -0.7416   28.2390 C   0  0  2  0  0  0  0  0  0  0  0  0
   -1.8720   -1.6136   28.4685 N   0  0  0  0  0  0  0  0  0  0  0  0
   -3.1621   -4.7733   23.5567 C   0  0  0  0  0  0  0  0  0  0  0  0
   -0.8163    1.3801   24.3905 C   0  0  2  0  0  0  0  0  0  0  0  0
   -0.2287    1.5698   23.1027 O   0  0  0  0  0  0  0  0  0  0  0  0
    3.5406    3.3682   25.1636 C   0  0  2  0  0  0  0  0  0  0  0  0
    4.2181    2.2029   24.5445 N   0  0  0  0  0  0  0  0  0  0  0  0
   -4.1856   -1.0939   29.2428 C   0  0  1  0  0  0  0  0  0  0  0  0
   -3.7604   -0.8416   30.5797 O   0  0  0  0  0  0  0  0  0  0  0  0
   -3.7242   -4.1601   24.8683 C   0  0  2  0  0  0  0  0  0  0  0  0
   -5.1705   -4.4583   24.9225 N   0  0  0  0  0  0  0  0  0  0  0  0
   -0.0038    2.0831   25.4814 C   0  0  2  0  0  0  0  0  0  0  0  0
    1.4212    2.0662   25.1886 O   0  0  0  0  0  0  0  0  0  0  0  0
    4.5207    4.1817   26.0640 C   0  0  1  0  0  0  0  0  0  0  0  0
    3.9817    5.4878   26.2562 O   0  0  0  0  0  0  0  0  0  0  0  0
   -5.4679   -0.2683   28.9697 C   0  0  2  0  0  0  0  0  0  0  0  0
   -6.4968   -0.7010   29.8544 O   0  0  0  0  0  0  0  0  0  0  0  0
   -3.4515   -2.6174   24.9862 C   0  0  2  0  0  0  0  0  0  0  0  0
   -0.3114    1.2241   26.7158 C   0  0  2  0  0  0  0  0  0  0  0  0
   -0.5090   -0.1164   26.2259 O   0  0  0  0  0  0  0  0  0  0  0  0
    4.7730    3.5471   27.4653 C   0  0  2  0  0  0  0  0  0  0  0  0
    5.6059    2.3983   27.3003 O   0  0  0  0  0  0  0  0  0  0  0  0
   -5.9129   -0.4355   27.4891 C   0  0  2  0  0  0  0  0  0  0  0  0
   -4.7975   -0.0924   26.6128 O   0  0  0  0  0  0  0  0  0  0  0  0
   -1.9691   -2.2298   24.6363 C   0  0  2  0  0  0  0  0  0  0  0  0
   -1.9113   -0.7920   24.4464 O   0  0  0  0  0  0  0  0  0  0  0  0
   -1.5591    1.6962   27.4833 C   0  0  0  0  0  0  0  0  0  0  0  0
   -1.3970    3.0273   27.9409 O   0  0  0  0  0  0  0  0  0  0  0  0
    3.4259    3.1434   28.1412 C   0  0  1  0  0  0  0  0  0  0  0  0
    2.6419    2.3237   27.2214 O   0  0  0  0  0  0  0  0  0  0  0  0
   -7.1001    0.4572   27.0638 C   0  0  0  0  0  0  0  0  0  0  0  0
   -7.9126   -0.1913   26.1000 O   0  0  0  0  0  0  0  0  0  0  0  0
   -1.4509   -2.9181   23.3354 C   0  0  1  0  0  0  0  0  0  0  0  0
   -0.0576   -2.6446   23.1950 O   0  0  0  0  0  0  0  0  0  0  0  0
    3.6312    2.3627   29.4647 C   0  0  0  0  0  0  0  0  0  0  0  0
    4.1865    3.2082   30.5369 N   0  0  0  0  0  0  0  0  0  0  0  0
  1  2  1  1  0  0  0
  1  7  1  0  0  0  0
  1 30  1  0  0  0  0
  3  4  1  6  0  0  0
  3  9  1  0  0  0  0
  3 39  1  0  0  0  0
  5 10  1  0  0  0  0
  5 26  1  0  0  0  0
  5 32  1  1  0  0  0
  6 12  1  0  0  0  0
  6 36  1  0  0  0  0
  6 19  1  6  0  0  0
  7  8  1  6  0  0  0
  7 14  1  0  0  0  0
  9 16  1  0  0  0  0
 10 11  1  6  0  0  0
 10 18  1  0  0  0  0
 12 13  1  1  0  0  0
 12 20  1  0  0  0  0
 14 15  1  1  0  0  0
 14 22  1  0  0  0  0
 16 17  1  6  0  0  0
 16 24  1  0  0  0  0
 18 19  1  6  0  0  0
 18 25  1  0  0  0  0
 20 21  1  1  0  0  0
 20 27  1  0  0  0  0
 22 23  1  1  0  0  0
 22 29  1  0  0  0  0
 24  2  1  1  0  0  0
 24 31  1  0  0  0  0
 25 26  1  0  0  0  0
 25 33  1  6  0  0  0
 27 28  1  6  0  0  0
 27 35  1  0  0  0  0
 29 30  1  0  0  0  0
 29 37  1  6  0  0  0
 31 32  1  6  0  0  0
 31 39  1  0  0  0  0
 33 34  1  0  0  0  0
 35 36  1  0  0  0  0
 35 41  1  1  0  0  0
 37 38  1  0  0  0  0
 39 40  1  1  0  0  0
 41 42  1  0  0  0  0
M  END
>  <CHROM.1>
-145.18997846,178.98520999,98.83718126,141.51228599,60.72373398,-154.32195331
57.82732762,170.04795485,165.39542793,-152.83050050,66.48778190,63.99522002
-60.09216953,-65.51957937,-146.85979814,148.26164195,174.64932701,-58.91583640
68.97478510,-174.32144987,-64.23154039,-139.13122808,-1.01848560,0.14193469
26.32274946,2.72829998,-0.40919673,-2.26451650

>  <Name>
1fyp_lig

>  <RI>
0

>  <Rbt.Current_Directory>
/home/itssahil/PROJECTS/Mol_Feturizer/New_Systems/rnas/1fyp

>  <Rbt.Executable>
rbdock ($Id: //depot/dev/client3/rdock/2013.1/src/exe/rbdock.cxx#4 $)

>  <Rbt.Library>
libRbt.so (2013.1, Build901 2013/11/27)

>  <Rbt.Parameter_File>
/export/apps/rDock/src/rDock_2013.1_src/data/scripts/dock_solv.prm

>  <Rbt.Receptor>
prm/pocket_docking_6.prm

>  <SCORE>
-61.6398

>  <SCORE.INTER>
-56.3478

>  <SCORE.INTER.CONST>
1

>  <SCORE.INTER.POLAR>
-8.52082

>  <SCORE.INTER.ROT>
14

>  <SCORE.INTER.SOLV>
20.9055

>  <SCORE.INTER.VDW>
-29.0643

>  <SCORE.INTER.norm>
-1.34161

>  <SCORE.INTRA>
-5.29204

>  <SCORE.INTRA.DIHEDRAL>
-25.0407

>  <SCORE.INTRA.DIHEDRAL.0>
48.7173

>  <SCORE.INTRA.POLAR>
1.54651

>  <SCORE.INTRA.POLAR.0>
-1.54691

>  <SCORE.INTRA.REPUL>
0.202677

>  <SCORE.INTRA.REPUL.0>
0

>  <SCORE.INTRA.SOLV>
-2.6881

>  <SCORE.INTRA.SOLV.lig_0>
-64.052

>  <SCORE.INTRA.VDW>
2.30081

>  <SCORE.INTRA.VDW.0>
-7.0667

>  <SCORE.INTRA.norm>
-0.126001

>  <SCORE.RESTR>
0

>  <SCORE.RESTR.CAVITY>
0

>  <SCORE.RESTR.norm>
0

>  <SCORE.SYSTEM>
0

>  <SCORE.SYSTEM.CONST>
0

>  <SCORE.SYSTEM.DIHEDRAL>
0

>  <SCORE.SYSTEM.SOLV>
0

>  <SCORE.SYSTEM.norm>
0

>  <SCORE.heavy>
42

>  <SCORE.norm>
-1.46762

>  <RMSD>
11.121

$$$$
1fyp_lig
 OpenBabel11021811393D
libRbt.so/2013.1/901 2013/11/27
 42 45  0  0  0  0  0  0  0  0999 V2000
   -2.8383    0.2653   25.2598 C   0  0  2  0  0  0  0  0  0  0  0  0
   -3.9574    0.3369   26.1898 O   0  0  0  0  0  0  0  0  0  0  0  0
   -4.2569    0.4743   30.4480 C   0  0  2  0  0  0  0  0  0  0  0  0
   -4.2796    0.1880   31.8943 N   0  0  0  0  0  0  0  0  0  0  0  0
   -0.4930    1.4649   27.7226 C   0  0  1  0  0  0  0  0  0  0  0  0
    3.4636    3.4948   27.4434 C   0  0  1  0  0  0  0  0  0  0  0  0
   -3.2237    0.8329   23.8557 C   0  0  2  0  0  0  0  0  0  0  0  0
   -3.8422    2.1708   23.9694 N   0  0  0  0  0  0  0  0  0  0  0  0
   -5.1823   -0.5168   29.7143 C   0  0  0  0  0  0  0  0  0  0  0  0
    0.9273    0.9087   27.8533 C   0  0  2  0  0  0  0  0  0  0  0  0
    1.3719    1.0481   29.2033 O   0  0  0  0  0  0  0  0  0  0  0  0
    4.4220    2.2678   27.3597 C   0  0  2  0  0  0  0  0  0  0  0  0
    4.1268    1.2408   28.3884 N   0  0  0  0  0  0  0  0  0  0  0  0
   -4.1813   -0.1443   23.1046 C   0  0  1  0  0  0  0  0  0  0  0  0
   -4.3963    0.3070   21.7698 O   0  0  0  0  0  0  0  0  0  0  0  0
   -5.2284   -0.2553   28.1840 C   0  0  2  0  0  0  0  0  0  0  0  0
   -6.0726   -1.3026   27.5723 N   0  0  0  0  0  0  0  0  0  0  0  0
    1.7116    1.8269   26.9119 C   0  0  2  0  0  0  0  0  0  0  0  0
    2.0783    3.0772   27.5591 O   0  0  0  0  0  0  0  0  0  0  0  0
    5.9129    2.7221   27.4230 C   0  0  1  0  0  0  0  0  0  0  0  0
    6.2541    3.3327   26.1803 O   0  0  0  0  0  0  0  0  0  0  0  0
   -3.6104   -1.5837   23.0520 C   0  0  2  0  0  0  0  0  0  0  0  0
   -4.5683   -2.4417   22.4397 O   0  0  0  0  0  0  0  0  0  0  0  0
   -3.8009   -0.2137   27.5291 C   0  0  2  0  0  0  0  0  0  0  0  0
    0.6965    2.0783   25.7881 C   0  0  2  0  0  0  0  0  0  0  0  0
   -0.6016    2.0438   26.4122 O   0  0  0  0  0  0  0  0  0  0  0  0
    6.2211    3.7365   28.5658 C   0  0  2  0  0  0  0  0  0  0  0  0
    6.2024    3.0371   29.8113 O   0  0  0  0  0  0  0  0  0  0  0  0
   -3.2666   -2.0812   24.4847 C   0  0  2  0  0  0  0  0  0  0  0  0
   -2.3736   -1.1198   25.1234 O   0  0  0  0  0  0  0  0  0  0  0  0
   -2.7823    0.6682   28.3382 C   0  0  2  0  0  0  0  0  0  0  0  0
   -1.4460    0.3722   27.8554 O   0  0  0  0  0  0  0  0  0  0  0  0
    0.7707    1.0307   24.6631 C   0  0  0  0  0  0  0  0  0  0  0  0
    0.0540    1.4650   23.5205 O   0  0  0  0  0  0  0  0  0  0  0  0
    5.1713    4.8906   28.5801 C   0  0  1  0  0  0  0  0  0  0  0  0
    3.8239    4.3278   28.5973 O   0  0  0  0  0  0  0  0  0  0  0  0
   -2.5552   -3.4515   24.5422 C   0  0  0  0  0  0  0  0  0  0  0  0
   -3.4179   -4.4974   24.1283 O   0  0  0  0  0  0  0  0  0  0  0  0
   -2.8223    0.3909   29.8732 C   0  0  1  0  0  0  0  0  0  0  0  0
   -1.9968    1.3484   30.5345 O   0  0  0  0  0  0  0  0  0  0  0  0
    5.3395    5.8371   29.7962 C   0  0  0  0  0  0  0  0  0  0  0  0
    6.4055    6.8342   29.5906 N   0  0  0  0  0  0  0  0  0  0  0  0
  1  2  1  1  0  0  0
  1  7  1  0  0  0  0
  1 30  1  0  0  0  0
  3  4  1  1  0  0  0
  3  9  1  0  0  0  0
  3 39  1  0  0  0  0
  5 10  1  0  0  0  0
  5 26  1  0  0  0  0
  5 32  1  6  0  0  0
  6 12  1  0  0  0  0
  6 36  1  0  0  0  0
  6 19  1  1  0  0  0
  7  8  1  1  0  0  0
  7 14  1  0  0  0  0
  9 16  1  0  0  0  0
 10 11  1  1  0  0  0
 10 18  1  0  0  0  0
 12 13  1  1  0  0  0
 12 20  1  0  0  0  0
 14 15  1  6  0  0  0
 14 22  1  0  0  0  0
 16 17  1  6  0  0  0
 16 24  1  0  0  0  0
 18 19  1  1  0  0  0
 18 25  1  0  0  0  0
 20 21  1  6  0  0  0
 20 27  1  0  0  0  0
 22 23  1  1  0  0  0
 22 29  1  0  0  0  0
 24  2  1  6  0  0  0
 24 31  1  0  0  0  0
 25 26  1  0  0  0  0
 25 33  1  6  0  0  0
 27 28  1  1  0  0  0
 27 35  1  0  0  0  0
 29 30  1  0  0  0  0
 29 37  1  6  0  0  0
 31 32  1  6  0  0  0
 31 39  1  0  0  0  0
 33 34  1  0  0  0  0
 35 36  1  0  0  0  0
 35 41  1  1  0  0  0
 37 38  1  0  0  0  0
 39 40  1  1  0  0  0
 41 42  1  0  0  0  0
M  END
>  <CHROM.1>
176.80125940,-168.81456337,58.91486590,-146.20455977,-166.86264048,145.23061686
171.21581330,-85.12048937,130.93047131,-31.22807542,-61.67034992,-65.52785525
-166.34512859,173.21184061,-67.76288019,141.12658161,153.65649754,144.31237103
80.89807935,-66.66538692,-60.05851846,-150.57046456,-0.37956728,1.09546467
26.92159757,-2.75356343,0.42356978,1.35047113

>  <Name>
1fyp_lig

>  <RI>
0

>  <Rbt.Current_Directory>
/home/itssahil/PROJECTS/Mol_Feturizer/New_Systems/rnas/1fyp

>  <Rbt.Executable>
rbdock ($Id: //depot/dev/client3/rdock/2013.1/src/exe/rbdock.cxx#4 $)

>  <Rbt.Library>
libRbt.so (2013.1, Build901 2013/11/27)

>  <Rbt.Parameter_File>
/export/apps/rDock/src/rDock_2013.1_src/data/scripts/dock_solv.prm

>  <Rbt.Receptor>
prm/blind_docking_60.prm

>  <SCORE>
-40.973

>  <SCORE.INTER>
-36.1708

>  <SCORE.INTER.CONST>
1

>  <SCORE.INTER.POLAR>
-4.54902

>  <SCORE.INTER.ROT>
14

>  <SCORE.INTER.SOLV>
19.9708

>  <SCORE.INTER.VDW>
-28.5408

>  <SCORE.INTER.norm>
-0.861211

>  <SCORE.INTRA>
-5.10956

>  <SCORE.INTRA.DIHEDRAL>
-15.7728

>  <SCORE.INTRA.DIHEDRAL.0>
48.7173

>  <SCORE.INTRA.POLAR>
0.101435

>  <SCORE.INTRA.POLAR.0>
-1.54691

>  <SCORE.INTRA.REPUL>
0.0405862

>  <SCORE.INTRA.REPUL.0>
0

>  <SCORE.INTRA.SOLV>
-1.10653

>  <SCORE.INTRA.SOLV.lig_0>
-64.052

>  <SCORE.INTRA.VDW>
2.78231

>  <SCORE.INTRA.VDW.0>
-7.0667

>  <SCORE.INTRA.norm>
-0.121656

>  <SCORE.RESTR>
0.307385

>  <SCORE.RESTR.CAVITY>
0.307385

>  <SCORE.RESTR.norm>
0.0073187

>  <SCORE.SYSTEM>
0

>  <SCORE.SYSTEM.CONST>
0

>  <SCORE.SYSTEM.DIHEDRAL>
0

>  <SCORE.SYSTEM.SOLV>
0

>  <SCORE.SYSTEM.norm>
0

>  <SCORE.heavy>
42

>  <SCORE.norm>
-0.975548

>  <RMSD>
11.196

$$$$
1fyp_lig
 OpenBabel11021811393D
libRbt.so/2013.1/901 2013/11/27
 42 45  0  0  0  0  0  0  0  0999 V2000
    4.1508    5.5136   29.3411 C   0  0  2  0  0  0  0  0  0  0  0  0
    4.9789    4.3884   29.7540 O   0  0  0  0  0  0  0  0  0  0  0  0
    5.8289    6.1042   33.5717 C   0  0  2  0  0  0  0  0  0  0  0  0
    6.3033    6.4071   34.9346 N   0  0  0  0  0  0  0  0  0  0  0  0
    8.5228    6.7921   30.0145 C   0  0  1  0  0  0  0  0  0  0  0  0
   11.7718    9.3523   28.3371 C   0  0  1  0  0  0  0  0  0  0  0  0
    2.6315    5.1495   29.3765 C   0  0  2  0  0  0  0  0  0  0  0  0
    2.2531    4.5534   30.6753 N   0  0  0  0  0  0  0  0  0  0  0  0
    5.1384    4.7258   33.5636 C   0  0  0  0  0  0  0  0  0  0  0  0
    9.7535    6.3573   29.2145 C   0  0  2  0  0  0  0  0  0  0  0  0
   10.8364    6.0976   30.1085 O   0  0  0  0  0  0  0  0  0  0  0  0
   12.8395    9.9864   29.2801 C   0  0  2  0  0  0  0  0  0  0  0  0
   12.2349   10.6761   30.4459 N   0  0  0  0  0  0  0  0  0  0  0  0
    2.2644    4.1812   28.2087 C   0  0  1  0  0  0  0  0  0  0  0  0
    0.8535    3.9849   28.1580 O   0  0  0  0  0  0  0  0  0  0  0  0
    4.5878    4.3525   32.1600 C   0  0  2  0  0  0  0  0  0  0  0  0
    4.0229    2.9896   32.2446 N   0  0  0  0  0  0  0  0  0  0  0  0
   10.0247    7.5970   28.3579 C   0  0  2  0  0  0  0  0  0  0  0  0
   10.7814    8.6025   29.0879 O   0  0  0  0  0  0  0  0  0  0  0  0
   13.7865   10.9384   28.4864 C   0  0  1  0  0  0  0  0  0  0  0  0
   14.6635   10.1447   27.6897 O   0  0  0  0  0  0  0  0  0  0  0  0
    2.7354    4.7274   26.8376 C   0  0  2  0  0  0  0  0  0  0  0  0
    2.4554    3.7598   25.8305 O   0  0  0  0  0  0  0  0  0  0  0  0
    5.6759    4.4537   31.0313 C   0  0  2  0  0  0  0  0  0  0  0  0
    8.6051    8.1000   28.0611 C   0  0  2  0  0  0  0  0  0  0  0  0
    7.8118    7.7474   29.2110 O   0  0  0  0  0  0  0  0  0  0  0  0
   13.0441   11.9369   27.5474 C   0  0  2  0  0  0  0  0  0  0  0  0
   12.4257   12.9425   28.3517 O   0  0  0  0  0  0  0  0  0  0  0  0
    4.2559    5.0509   26.8783 C   0  0  2  0  0  0  0  0  0  0  0  0
    4.5228    5.9553   27.9922 O   0  0  0  0  0  0  0  0  0  0  0  0
    6.5085    5.7848   31.1020 C   0  0  2  0  0  0  0  0  0  0  0  0
    7.6781    5.6311   30.2566 O   0  0  0  0  0  0  0  0  0  0  0  0
    7.9990    7.4795   26.7898 C   0  0  0  0  0  0  0  0  0  0  0  0
    7.8483    6.0780   26.9342 O   0  0  0  0  0  0  0  0  0  0  0  0
   11.9707   11.1973   26.6899 C   0  0  1  0  0  0  0  0  0  0  0  0
   11.1063   10.4065   27.5617 O   0  0  0  0  0  0  0  0  0  0  0  0
    4.8072    5.7380   25.6090 C   0  0  0  0  0  0  0  0  0  0  0  0
    4.7493    4.8719   24.4883 O   0  0  0  0  0  0  0  0  0  0  0  0
    6.9885    6.1265   32.5468 C   0  0  1  0  0  0  0  0  0  0  0  0
    7.5811    7.4243   32.5389 O   0  0  0  0  0  0  0  0  0  0  0  0
   11.0960   12.1697   25.8578 C   0  0  0  0  0  0  0  0  0  0  0  0
    9.9861   11.4830   25.1727 N   0  0  0  0  0  0  0  0  0  0  0  0
  1  2  1  6  0  0  0
  1  7  1  0  0  0  0
  1 30  1  0  0  0  0
  3  4  1  1  0  0  0
  3  9  1  0  0  0  0
  3 39  1  0  0  0  0
  5 10  1  0  0  0  0
  5 26  1  0  0  0  0
  5 32  1  6  0  0  0
  6 12  1  0  0  0  0
  6 36  1  0  0  0  0
  6 19  1  1  0  0  0
  7  8  1  1  0  0  0
  7 14  1  0  0  0  0
  9 16  1  0  0  0  0
 10 11  1  1  0  0  0
 10 18  1  0  0  0  0
 12 13  1  1  0  0  0
 12 20  1  0  0  0  0
 14 15  1  6  0  0  0
 14 22  1  0  0  0  0
 16 17  1  1  0  0  0
 16 24  1  0  0  0  0
 18 19  1  1  0  0  0
 18 25  1  0  0  0  0
 20 21  1  6  0  0  0
 20 27  1  0  0  0  0
 22 23  1  6  0  0  0
 22 29  1  0  0  0  0
 24  2  1  6  0  0  0
 24 31  1  0  0  0  0
 25 26  1  0  0  0  0
 25 33  1  6  0  0  0
 27 28  1  1  0  0  0
 27 35  1  0  0  0  0
 29 30  1  0  0  0  0
 29 37  1  6  0  0  0
 31 32  1  6  0  0  0
 31 39  1  0  0  0  0
 33 34  1  0  0  0  0
 35 36  1  0  0  0  0
 35 41  1  1  0  0  0
 37 38  1  0  0  0  0
 39 40  1  6  0  0  0
 41 42  1  0  0  0  0
M  END
>  <CHROM.1>
-109.97260725,70.11254169,77.86101982,119.79951117,55.98567213,171.00027497
61.87272489,153.35177470,142.92008724,-159.09442332,-174.15842530,81.87722366
63.38077406,178.44076008,-66.27492214,172.11911169,174.63195158,50.40711100
-173.35144437,-170.57183412,62.38197514,-131.57626400,7.56579823,7.09656078
29.03072448,2.87632263,0.58108854,1.79048536

>  <Name>
1fyp_lig

>  <RI>
0

>  <Rbt.Current_Directory>
/home/itssahil/PROJECTS/Mol_Feturizer/New_Systems/rnas/1fyp

>  <Rbt.Executable>
rbdock ($Id: //depot/dev/client3/rdock/2013.1/src/exe/rbdock.cxx#4 $)

>  <Rbt.Library>
libRbt.so (2013.1, Build901 2013/11/27)

>  <Rbt.Parameter_File>
/export/apps/rDock/src/rDock_2013.1_src/data/scripts/dock_solv.prm

>  <Rbt.Receptor>
prm/pocket_docking_8.prm

>  <SCORE>
-32.4947

>  <SCORE.INTER>
-25.8379

>  <SCORE.INTER.CONST>
1

>  <SCORE.INTER.POLAR>
-5.14595

>  <SCORE.INTER.ROT>
14

>  <SCORE.INTER.SOLV>
9.13965

>  <SCORE.INTER.VDW>
-16.052

>  <SCORE.INTER.norm>
-0.615188

>  <SCORE.INTRA>
-6.65674

>  <SCORE.INTRA.DIHEDRAL>
-23.8781

>  <SCORE.INTRA.DIHEDRAL.0>
48.7173

>  <SCORE.INTRA.POLAR>
0.884889

>  <SCORE.INTRA.POLAR.0>
-1.54691

>  <SCORE.INTRA.REPUL>
0.0171948

>  <SCORE.INTRA.REPUL.0>
0

>  <SCORE.INTRA.SOLV>
-0.245931

>  <SCORE.INTRA.SOLV.lig_0>
-64.052

>  <SCORE.INTRA.VDW>
2.31069

>  <SCORE.INTRA.VDW.0>
-7.0667

>  <SCORE.INTRA.norm>
-0.158494

>  <SCORE.RESTR>
0

>  <SCORE.RESTR.CAVITY>
0

>  <SCORE.RESTR.norm>
0

>  <SCORE.SYSTEM>
0

>  <SCORE.SYSTEM.CONST>
0

>  <SCORE.SYSTEM.DIHEDRAL>
0

>  <SCORE.SYSTEM.SOLV>
0

>  <SCORE.SYSTEM.norm>
0

>  <SCORE.heavy>
42

>  <SCORE.norm>
-0.773682

>  <RMSD>
11.513

$$$$
1fyp_lig
 OpenBabel11021811393D
libRbt.so/2013.1/901 2013/11/27
 42 45  0  0  0  0  0  0  0  0999 V2000
   -2.1532   -2.5077   23.9874 C   0  0  2  0  0  0  0  0  0  0  0  0
   -3.5918   -2.2895   24.0587 O   0  0  0  0  0  0  0  0  0  0  0  0
   -6.1270    0.1241   26.5059 C   0  0  2  0  0  0  0  0  0  0  0  0
   -6.9251    0.7235   27.5913 N   0  0  0  0  0  0  0  0  0  0  0  0
   -1.6594    0.8260   26.2553 C   0  0  1  0  0  0  0  0  0  0  0  0
    1.6071    3.5833   27.4815 C   0  0  1  0  0  0  0  0  0  0  0  0
   -1.5294   -1.8083   22.7369 C   0  0  2  0  0  0  0  0  0  0  0  0
   -1.9396   -0.3903   22.6553 N   0  0  0  0  0  0  0  0  0  0  0  0
   -6.5256   -1.3552   26.3329 C   0  0  0  0  0  0  0  0  0  0  0  0
   -0.3459    0.5742   27.0003 C   0  0  2  0  0  0  0  0  0  0  0  0
   -0.5343    0.8170   28.3950 O   0  0  0  0  0  0  0  0  0  0  0  0
    1.2738    4.9475   28.1590 C   0  0  2  0  0  0  0  0  0  0  0  0
    0.3543    5.7800   27.3456 N   0  0  0  0  0  0  0  0  0  0  0  0
   -1.9194   -2.5610   21.4264 C   0  0  1  0  0  0  0  0  0  0  0  0
   -1.2176   -2.0094   20.3151 O   0  0  0  0  0  0  0  0  0  0  0  0
   -5.7407   -2.0449   25.1837 C   0  0  2  0  0  0  0  0  0  0  0  0
   -6.1368   -3.4683   25.1573 N   0  0  0  0  0  0  0  0  0  0  0  0
    0.5765    1.6230   26.3730 C   0  0  2  0  0  0  0  0  0  0  0  0
    0.4079    2.9291   26.9912 O   0  0  0  0  0  0  0  0  0  0  0  0
    2.5786    5.7249   28.5143 C   0  0  1  0  0  0  0  0  0  0  0  0
    3.1961    5.0881   29.6308 O   0  0  0  0  0  0  0  0  0  0  0  0
   -1.5950   -4.0735   21.5123 C   0  0  2  0  0  0  0  0  0  0  0  0
   -2.0578   -4.7164   20.3286 O   0  0  0  0  0  0  0  0  0  0  0  0
   -4.1843   -1.8848   25.3262 C   0  0  2  0  0  0  0  0  0  0  0  0
    0.0915    1.6484   24.9168 C   0  0  2  0  0  0  0  0  0  0  0  0
   -1.3184    1.3556   24.9641 O   0  0  0  0  0  0  0  0  0  0  0  0
    3.6171    5.7892   27.3536 C   0  0  2  0  0  0  0  0  0  0  0  0
    3.1377    6.7024   26.3652 O   0  0  0  0  0  0  0  0  0  0  0  0
   -2.2613   -4.6983   22.7708 C   0  0  2  0  0  0  0  0  0  0  0  0
   -1.8543   -3.9438   23.9519 O   0  0  0  0  0  0  0  0  0  0  0  0
   -3.7488   -0.4114   25.6571 C   0  0  2  0  0  0  0  0  0  0  0  0
   -2.3654   -0.4372   26.0953 O   0  0  0  0  0  0  0  0  0  0  0  0
    0.8145    0.6257   24.0224 C   0  0  0  0  0  0  0  0  0  0  0  0
    0.5334   -0.6987   24.4404 O   0  0  0  0  0  0  0  0  0  0  0  0
    3.8323    4.3779   26.7240 C   0  0  1  0  0  0  0  0  0  0  0  0
    2.5404    3.7972   26.3686 O   0  0  0  0  0  0  0  0  0  0  0  0
   -1.8875   -6.1735   23.0380 C   0  0  0  0  0  0  0  0  0  0  0  0
   -2.0794   -6.9708   21.8817 O   0  0  0  0  0  0  0  0  0  0  0  0
   -4.6089    0.2389   26.7848 C   0  0  1  0  0  0  0  0  0  0  0  0
   -4.2562    1.6170   26.8944 O   0  0  0  0  0  0  0  0  0  0  0  0
    4.7333    4.4166   25.4631 C   0  0  0  0  0  0  0  0  0  0  0  0
    4.7232    3.1410   24.7243 N   0  0  0  0  0  0  0  0  0  0  0  0
  1  2  1  6  0  0  0
  1  7  1  0  0  0  0
  1 30  1  0  0  0  0
  3  4  1  1  0  0  0
  3  9  1  0  0  0  0
  3 39  1  0  0  0  0
  5 10  1  0  0  0  0
  5 26  1  0  0  0  0
  5 32  1  6  0  0  0
  6 12  1  0  0  0  0
  6 36  1  0  0  0  0
  6 19  1  6  0  0  0
  7  8  1  6  0  0  0
  7 14  1  0  0  0  0
  9 16  1  0  0  0  0
 10 11  1  1  0  0  0
 10 18  1  0  0  0  0
 12 13  1  6  0  0  0
 12 20  1  0  0  0  0
 14 15  1  6  0  0  0
 14 22  1  0  0  0  0
 16 17  1  1  0  0  0
 16 24  1  0  0  0  0
 18 19  1  1  0  0  0
 18 25  1  0  0  0  0
 20 21  1  1  0  0  0
 20 27  1  0  0  0  0
 22 23  1  6  0  0  0
 22 29  1  0  0  0  0
 24  2  1  6  0  0  0
 24 31  1  0  0  0  0
 25 26  1  0  0  0  0
 25 33  1  6  0  0  0
 27 28  1  6  0  0  0
 27 35  1  0  0  0  0
 29 30  1  0  0  0  0
 29 37  1  1  0  0  0
 31 32  1  1  0  0  0
 31 39  1  0  0  0  0
 33 34  1  0  0  0  0
 35 36  1  0  0  0  0
 35 41  1  6  0  0  0
 37 38  1  0  0  0  0
 39 40  1  6  0  0  0
 41 42  1  0  0  0  0
M  END
>  <CHROM.1>
-133.17303891,-167.41992801,-47.77334425,57.93084883,-64.61283151,84.13672871
-178.72851750,-173.60307116,127.16222205,-178.10350682,61.99744332,-169.86377776
64.33520408,-45.76973184,-51.30750166,170.20763747,167.92923081,-65.80786725
-168.87591518,-174.25144306,-57.15718245,-25.88384376,-1.04664540,0.32105723
25.25960335,-2.19331083,0.36369327,0.69321063

>  <Name>
1fyp_lig

>  <RI>
0

>  <Rbt.Current_Directory>
/home/itssahil/PROJECTS/Mol_Feturizer/New_Systems/rnas/1fyp

>  <Rbt.Executable>
rbdock ($Id: //depot/dev/client3/rdock/2013.1/src/exe/rbdock.cxx#4 $)

>  <Rbt.Library>
libRbt.so (2013.1, Build901 2013/11/27)

>  <Rbt.Parameter_File>
/export/apps/rDock/src/rDock_2013.1_src/data/scripts/dock_solv.prm

>  <Rbt.Receptor>
prm/blind_docking_80.prm

>  <SCORE>
-49.7923

>  <SCORE.INTER>
-34.6312

>  <SCORE.INTER.CONST>
1

>  <SCORE.INTER.POLAR>
-4.35468

>  <SCORE.INTER.ROT>
14

>  <SCORE.INTER.SOLV>
16.6044

>  <SCORE.INTER.VDW>
-27.04

>  <SCORE.INTER.norm>
-0.824553

>  <SCORE.INTRA>
-15.1793

>  <SCORE.INTRA.DIHEDRAL>
-27.8847

>  <SCORE.INTRA.DIHEDRAL.0>
48.7173

>  <SCORE.INTRA.POLAR>
-1.09872

>  <SCORE.INTRA.POLAR.0>
-1.54691

>  <SCORE.INTRA.REPUL>
0

>  <SCORE.INTRA.REPUL.0>
0

>  <SCORE.INTRA.SOLV>
-0.103694

>  <SCORE.INTRA.SOLV.lig_0>
-64.052

>  <SCORE.INTRA.VDW>
2.55055

>  <SCORE.INTRA.VDW.0>
-7.0667

>  <SCORE.INTRA.norm>
-0.361413

>  <SCORE.RESTR>
0.0182609

>  <SCORE.RESTR.CAVITY>
0.0182609

>  <SCORE.RESTR.norm>
0.000434783

>  <SCORE.SYSTEM>
0

>  <SCORE.SYSTEM.CONST>
0

>  <SCORE.SYSTEM.DIHEDRAL>
0

>  <SCORE.SYSTEM.SOLV>
0

>  <SCORE.SYSTEM.norm>
0

>  <SCORE.heavy>
42

>  <SCORE.norm>
-1.18553

>  <RMSD>
11.531

$$$$
1fyp_lig
 OpenBabel11021811393D
libRbt.so/2013.1/901 2013/11/27
 42 45  0  0  0  0  0  0  0  0999 V2000
   -4.0835   -0.9892   23.6037 C   0  0  2  0  0  0  0  0  0  0  0  0
   -5.4231   -1.3505   24.0476 O   0  0  0  0  0  0  0  0  0  0  0  0
   -7.1594   -0.9779   27.9318 C   0  0  2  0  0  0  0  0  0  0  0  0
   -7.6130   -1.1569   29.3235 N   0  0  0  0  0  0  0  0  0  0  0  0
   -2.9599    0.6305   26.5594 C   0  0  1  0  0  0  0  0  0  0  0  0
    0.4803    3.4081   27.1403 C   0  0  1  0  0  0  0  0  0  0  0  0
   -3.7877   -1.5383   22.1708 C   0  0  2  0  0  0  0  0  0  0  0  0
   -4.8654   -1.1776   21.2253 N   0  0  0  0  0  0  0  0  0  0  0  0
   -7.5773   -2.2032   27.0946 C   0  0  0  0  0  0  0  0  0  0  0  0
   -1.4841    0.3339   26.8379 C   0  0  2  0  0  0  0  0  0  0  0  0
   -1.2553    0.3333   28.2476 O   0  0  0  0  0  0  0  0  0  0  0  0
    1.5517    2.5466   27.8758 C   0  0  2  0  0  0  0  0  0  0  0  0
    1.0286    1.9188   29.1138 N   0  0  0  0  0  0  0  0  0  0  0  0
   -3.5873   -3.0859   22.1988 C   0  0  1  0  0  0  0  0  0  0  0  0
   -3.1631   -3.5500   20.9195 O   0  0  0  0  0  0  0  0  0  0  0  0
   -7.1542   -2.0700   25.6061 C   0  0  2  0  0  0  0  0  0  0  0  0
   -7.5276   -3.3226   24.9168 N   0  0  0  0  0  0  0  0  0  0  0  0
   -0.7927    1.5217   26.1630 C   0  0  2  0  0  0  0  0  0  0  0  0
   -0.7793    2.6970   27.0204 O   0  0  0  0  0  0  0  0  0  0  0  0
    2.8361    3.3836   28.1633 C   0  0  1  0  0  0  0  0  0  0  0  0
    3.5362    3.5757   26.9359 O   0  0  0  0  0  0  0  0  0  0  0  0
   -2.5334   -3.5116   23.2516 C   0  0  2  0  0  0  0  0  0  0  0  0
   -2.4654   -4.9337   23.2928 O   0  0  0  0  0  0  0  0  0  0  0  0
   -5.6252   -1.7533   25.4327 C   0  0  2  0  0  0  0  0  0  0  0  0
   -1.6847    1.7587   24.9364 C   0  0  2  0  0  0  0  0  0  0  0  0
   -3.0167    1.3833   25.3371 O   0  0  0  0  0  0  0  0  0  0  0  0
    2.5565    4.7835   28.7895 C   0  0  2  0  0  0  0  0  0  0  0  0
    2.1627    4.6017   30.1506 O   0  0  0  0  0  0  0  0  0  0  0  0
   -2.9050   -2.9406   24.6495 C   0  0  2  0  0  0  0  0  0  0  0  0
   -3.0781   -1.4953   24.5451 O   0  0  0  0  0  0  0  0  0  0  0  0
   -5.1260   -0.6075   26.3856 C   0  0  2  0  0  0  0  0  0  0  0  0
   -3.6748   -0.6270   26.3933 O   0  0  0  0  0  0  0  0  0  0  0  0
   -1.2510    0.9391   23.7080 C   0  0  0  0  0  0  0  0  0  0  0  0
    0.0652    1.2821   23.3110 O   0  0  0  0  0  0  0  0  0  0  0  0
    1.4369    5.5300   27.9998 C   0  0  1  0  0  0  0  0  0  0  0  0
    0.2680    4.6644   27.8696 O   0  0  0  0  0  0  0  0  0  0  0  0
   -1.8478   -3.1809   25.7503 C   0  0  0  0  0  0  0  0  0  0  0  0
   -2.2969   -2.7057   27.0080 O   0  0  0  0  0  0  0  0  0  0  0  0
   -5.6270   -0.7753   27.8537 C   0  0  1  0  0  0  0  0  0  0  0  0
   -5.2705    0.3895   28.5965 O   0  0  0  0  0  0  0  0  0  0  0  0
    1.0102    6.8572   28.6778 C   0  0  0  0  0  0  0  0  0  0  0  0
    2.0243    7.9168   28.5295 N   0  0  0  0  0  0  0  0  0  0  0  0
  1  2  1  1  0  0  0
  1  7  1  0  0  0  0
  1 30  1  0  0  0  0
  3  4  1  1  0  0  0
  3  9  1  0  0  0  0
  3 39  1  0  0  0  0
  5 10  1  0  0  0  0
  5 26  1  0  0  0  0
  5 32  1  6  0  0  0
  6 12  1  0  0  0  0
  6 36  1  0  0  0  0
  6 19  1  1  0  0  0
  7  8  1  6  0  0  0
  7 14  1  0  0  0  0
  9 16  1  0  0  0  0
 10 11  1  1  0  0  0
 10 18  1  0  0  0  0
 12 13  1  1  0  0  0
 12 20  1  0  0  0  0
 14 15  1  6  0  0  0
 14 22  1  0  0  0  0
 16 17  1  6  0  0  0
 16 24  1  0  0  0  0
 18 19  1  1  0  0  0
 18 25  1  0  0  0  0
 20 21  1  6  0  0  0
 20 27  1  0  0  0  0
 22 23  1  1  0  0  0
 22 29  1  0  0  0  0
 24  2  1  6  0  0  0
 24 31  1  0  0  0  0
 25 26  1  0  0  0  0
 25 33  1  6  0  0  0
 27 28  1  1  0  0  0
 27 35  1  0  0  0  0
 29 30  1  0  0  0  0
 29 37  1  1  0  0  0
 31 32  1  1  0  0  0
 31 39  1  0  0  0  0
 33 34  1  0  0  0  0
 35 36  1  0  0  0  0
 35 41  1  1  0  0  0
 37 38  1  0  0  0  0
 39 40  1  1  0  0  0
 41 42  1  0  0  0  0
M  END
>  <CHROM.1>
140.00210685,179.72018419,72.12695018,43.81899818,-59.33789265,-21.81427508
103.22674865,81.89391990,133.27470180,-66.81754767,-58.69799005,176.05836217
-60.89088355,-48.59425248,-176.34998314,147.79186159,167.88359899,77.40756576
73.21735978,92.01642021,65.14609659,-32.60191089,-2.27337192,0.38957977,26.09598575
-2.38362327,0.48717057,0.94313229

>  <Name>
1fyp_lig

>  <RI>
0

>  <Rbt.Current_Directory>
/home/itssahil/PROJECTS/Mol_Feturizer/New_Systems/rnas/1fyp

>  <Rbt.Executable>
rbdock ($Id: //depot/dev/client3/rdock/2013.1/src/exe/rbdock.cxx#4 $)

>  <Rbt.Library>
libRbt.so (2013.1, Build901 2013/11/27)

>  <Rbt.Parameter_File>
/export/apps/rDock/src/rDock_2013.1_src/data/scripts/dock_solv.prm

>  <Rbt.Receptor>
prm/pocket_docking_6.prm

>  <SCORE>
-28.1357

>  <SCORE.INTER>
-31.4577

>  <SCORE.INTER.CONST>
1

>  <SCORE.INTER.POLAR>
-5.35411

>  <SCORE.INTER.ROT>
14

>  <SCORE.INTER.SOLV>
17.5924

>  <SCORE.INTER.VDW>
-21.9222

>  <SCORE.INTER.norm>
-0.748994

>  <SCORE.INTRA>
3.09942

>  <SCORE.INTRA.DIHEDRAL>
-14.9661

>  <SCORE.INTRA.DIHEDRAL.0>
48.7173

>  <SCORE.INTRA.POLAR>
0.604195

>  <SCORE.INTRA.POLAR.0>
-1.54691

>  <SCORE.INTRA.REPUL>
0.127646

>  <SCORE.INTRA.REPUL.0>
0

>  <SCORE.INTRA.SOLV>
0.0774298

>  <SCORE.INTRA.SOLV.lig_0>
-64.052

>  <SCORE.INTRA.VDW>
7.85128

>  <SCORE.INTRA.VDW.0>
-7.0667

>  <SCORE.INTRA.norm>
0.0737958

>  <SCORE.RESTR>
0.222641

>  <SCORE.RESTR.CAVITY>
0.222641

>  <SCORE.RESTR.norm>
0.00530099

>  <SCORE.SYSTEM>
0

>  <SCORE.SYSTEM.CONST>
0

>  <SCORE.SYSTEM.DIHEDRAL>
0

>  <SCORE.SYSTEM.SOLV>
0

>  <SCORE.SYSTEM.norm>
0

>  <SCORE.heavy>
42

>  <SCORE.norm>
-0.669897

>  <RMSD>
11.834

$$$$
1fyp_lig
 OpenBabel11021811393D
libRbt.so/2013.1/901 2013/11/27
 42 45  0  0  0  0  0  0  0  0999 V2000
   -3.6734   -1.1098   24.6145 C   0  0  2  0  0  0  0  0  0  0  0  0
   -4.7801   -0.5510   25.3796 O   0  0  0  0  0  0  0  0  0  0  0  0
   -6.8207   -0.6145   29.1309 C   0  0  2  0  0  0  0  0  0  0  0  0
   -7.3769   -0.9456   30.4559 N   0  0  0  0  0  0  0  0  0  0  0  0
   -2.5085    1.1680   27.6102 C   0  0  1  0  0  0  0  0  0  0  0  0
    0.6494    3.7321   28.3082 C   0  0  1  0  0  0  0  0  0  0  0  0
   -3.7397   -0.6788   23.1139 C   0  0  2  0  0  0  0  0  0  0  0  0
   -3.8985    0.7852   22.9829 N   0  0  0  0  0  0  0  0  0  0  0  0
   -7.1450   -1.7503   28.1401 C   0  0  0  0  0  0  0  0  0  0  0  0
   -1.0583    1.0195   28.0775 C   0  0  2  0  0  0  0  0  0  0  0  0
   -0.9159    1.5887   29.3795 O   0  0  0  0  0  0  0  0  0  0  0  0
    1.7546    4.5994   27.6318 C   0  0  2  0  0  0  0  0  0  0  0  0
    2.3014    3.9722   26.4038 N   0  0  0  0  0  0  0  0  0  0  0  0
   -4.8983   -1.4176   22.3737 C   0  0  1  0  0  0  0  0  0  0  0  0
   -4.8472   -1.1373   20.9771 O   0  0  0  0  0  0  0  0  0  0  0  0
   -6.6106   -1.4549   26.7120 C   0  0  2  0  0  0  0  0  0  0  0  0
   -6.9015   -2.6328   25.8685 N   0  0  0  0  0  0  0  0  0  0  0  0
   -0.3047    1.8396   27.0268 C   0  0  2  0  0  0  0  0  0  0  0  0
   -0.3212    3.2608   27.3375 O   0  0  0  0  0  0  0  0  0  0  0  0
    2.8886    4.9441   28.6458 C   0  0  1  0  0  0  0  0  0  0  0  0
    2.3963    5.9194   29.5623 O   0  0  0  0  0  0  0  0  0  0  0  0
   -4.8223   -2.9523   22.5713 C   0  0  2  0  0  0  0  0  0  0  0  0
   -5.9538   -3.5575   21.9531 O   0  0  0  0  0  0  0  0  0  0  0  0
   -5.0802   -1.1005   26.6947 C   0  0  2  0  0  0  0  0  0  0  0  0
   -1.1156    1.5557   25.7547 C   0  0  2  0  0  0  0  0  0  0  0  0
   -2.4764    1.3641   26.1874 O   0  0  0  0  0  0  0  0  0  0  0  0
    3.4036    3.7216   29.4645 C   0  0  2  0  0  0  0  0  0  0  0  0
    4.1896    2.8966   28.6030 O   0  0  0  0  0  0  0  0  0  0  0  0
   -4.7748   -3.3003   24.0862 C   0  0  2  0  0  0  0  0  0  0  0  0
   -3.6731   -2.5741   24.7095 O   0  0  0  0  0  0  0  0  0  0  0  0
   -4.6820   -0.0548   27.7984 C   0  0  2  0  0  0  0  0  0  0  0  0
   -3.2357   -0.0548   27.9194 O   0  0  0  0  0  0  0  0  0  0  0  0
   -0.6235    0.3138   24.9904 C   0  0  0  0  0  0  0  0  0  0  0  0
   -0.7701   -0.8549   25.7781 O   0  0  0  0  0  0  0  0  0  0  0  0
    2.2102    2.9053   30.0509 C   0  0  1  0  0  0  0  0  0  0  0  0
    1.2650    2.5840   28.9851 O   0  0  0  0  0  0  0  0  0  0  0  0
   -4.5527   -4.7964   24.4015 C   0  0  0  0  0  0  0  0  0  0  0  0
   -5.6114   -5.5919   23.8958 O   0  0  0  0  0  0  0  0  0  0  0  0
   -5.2917   -0.3835   29.1965 C   0  0  1  0  0  0  0  0  0  0  0  0
   -5.0198    0.7013   30.0825 O   0  0  0  0  0  0  0  0  0  0  0  0
    2.6642    1.5915   30.7372 C   0  0  0  0  0  0  0  0  0  0  0  0
    3.2274    0.6218   29.7803 N   0  0  0  0  0  0  0  0  0  0  0  0
  1  2  1  1  0  0  0
  1  7  1  0  0  0  0
  1 30  1  0  0  0  0
  3  4  1  1  0  0  0
  3  9  1  0  0  0  0
  3 39  1  0  0  0  0
  5 10  1  0  0  0  0
  5 26  1  0  0  0  0
  5 32  1  6  0  0  0
  6 12  1  0  0  0  0
  6 36  1  0  0  0  0
  6 19  1  6  0  0  0
  7  8  1  1  0  0  0
  7 14  1  0  0  0  0
  9 16  1  0  0  0  0
 10 11  1  1  0  0  0
 10 18  1  0  0  0  0
 12 13  1  6  0  0  0
 12 20  1  0  0  0  0
 14 15  1  6  0  0  0
 14 22  1  0  0  0  0
 16 17  1  6  0  0  0
 16 24  1  0  0  0  0
 18 19  1  1  0  0  0
 18 25  1  0  0  0  0
 20 21  1  1  0  0  0
 20 27  1  0  0  0  0
 22 23  1  1  0  0  0
 22 29  1  0  0  0  0
 24  2  1  6  0  0  0
 24 31  1  0  0  0  0
 25 26  1  0  0  0  0
 25 33  1  1  0  0  0
 27 28  1  6  0  0  0
 27 35  1  0  0  0  0
 29 30  1  0  0  0  0
 29 37  1  6  0  0  0
 31 32  1  1  0  0  0
 31 39  1  0  0  0  0
 33 34  1  0  0  0  0
 35 36  1  0  0  0  0
 35 41  1  6  0  0  0
 37 38  1  0  0  0  0
 39 40  1  1  0  0  0
 41 42  1  0  0  0  0
M  END
>  <CHROM.1>
164.68312389,-128.13596204,-167.13960088,-62.00844340,169.07592769,176.46725191
-171.24152905,-57.78133590,81.40801171,109.53690524,60.20858216,-174.01836050
62.78058466,68.90953686,-61.98046390,117.64714771,168.55106249,-66.17787779
-66.53830204,-68.67522801,68.95844012,-147.68182093,-2.28988233,0.30377556
26.74094684,-2.55380446,0.49673931,1.25209311

>  <Name>
1fyp_lig

>  <RI>
0

>  <Rbt.Current_Directory>
/home/itssahil/PROJECTS/Mol_Feturizer/New_Systems/rnas/1fyp

>  <Rbt.Executable>
rbdock ($Id: //depot/dev/client3/rdock/2013.1/src/exe/rbdock.cxx#4 $)

>  <Rbt.Library>
libRbt.so (2013.1, Build901 2013/11/27)

>  <Rbt.Parameter_File>
/export/apps/rDock/src/rDock_2013.1_src/data/scripts/dock_solv.prm

>  <Rbt.Receptor>
prm/blind_docking_100.prm

>  <SCORE>
-34.1062

>  <SCORE.INTER>
-31.0253

>  <SCORE.INTER.CONST>
1

>  <SCORE.INTER.POLAR>
-3.75132

>  <SCORE.INTER.ROT>
14

>  <SCORE.INTER.SOLV>
15.4733

>  <SCORE.INTER.VDW>
-26.2702

>  <SCORE.INTER.norm>
-0.738697

>  <SCORE.INTRA>
-4.64487

>  <SCORE.INTRA.DIHEDRAL>
-19.3983

>  <SCORE.INTRA.DIHEDRAL.0>
48.7173

>  <SCORE.INTRA.POLAR>
0.860856

>  <SCORE.INTRA.POLAR.0>
-1.54691

>  <SCORE.INTRA.REPUL>
0.0102807

>  <SCORE.INTRA.REPUL.0>
0

>  <SCORE.INTRA.SOLV>
1.82281

>  <SCORE.INTRA.SOLV.lig_0>
-64.052

>  <SCORE.INTRA.VDW>
1.16454

>  <SCORE.INTRA.VDW.0>
-7.0667

>  <SCORE.INTRA.norm>
-0.110592

>  <SCORE.RESTR>
1.56395

>  <SCORE.RESTR.CAVITY>
1.56395

>  <SCORE.RESTR.norm>
0.037237

>  <SCORE.SYSTEM>
0

>  <SCORE.SYSTEM.CONST>
0

>  <SCORE.SYSTEM.DIHEDRAL>
0

>  <SCORE.SYSTEM.SOLV>
0

>  <SCORE.SYSTEM.norm>
0

>  <SCORE.heavy>
42

>  <SCORE.norm>
-0.812052

>  <RMSD>
12.036

$$$$
1fyp_lig
 OpenBabel11021811393D
libRbt.so/2013.1/901 2013/11/27
 42 45  0  0  0  0  0  0  0  0999 V2000
   -3.9450   -1.4086   23.6824 C   0  0  2  0  0  0  0  0  0  0  0  0
   -4.7695   -0.6780   24.6358 O   0  0  0  0  0  0  0  0  0  0  0  0
   -6.8067   -0.8824   28.3840 C   0  0  2  0  0  0  0  0  0  0  0  0
   -7.3916   -1.2761   29.6791 N   0  0  0  0  0  0  0  0  0  0  0  0
   -2.3438    0.6065   26.9533 C   0  0  1  0  0  0  0  0  0  0  0  0
    1.1491    3.2683   26.3826 C   0  0  1  0  0  0  0  0  0  0  0  0
   -4.7130   -1.6748   22.3477 C   0  0  2  0  0  0  0  0  0  0  0  0
   -5.3106   -0.4316   21.8157 N   0  0  0  0  0  0  0  0  0  0  0  0
   -7.2368   -1.8902   27.2994 C   0  0  0  0  0  0  0  0  0  0  0  0
   -0.9645    0.3646   27.5720 C   0  0  2  0  0  0  0  0  0  0  0  0
   -0.9181    0.9448   28.8761 O   0  0  0  0  0  0  0  0  0  0  0  0
    2.4873    2.5528   26.7409 C   0  0  2  0  0  0  0  0  0  0  0  0
    2.5499    2.1372   28.1635 N   0  0  0  0  0  0  0  0  0  0  0  0
   -5.8142   -2.7627   22.5472 C   0  0  1  0  0  0  0  0  0  0  0  0
   -6.3964   -3.1087   21.2929 O   0  0  0  0  0  0  0  0  0  0  0  0
   -6.6770   -1.5206   25.8985 C   0  0  2  0  0  0  0  0  0  0  0  0
   -7.0778   -2.5865   24.9567 N   0  0  0  0  0  0  0  0  0  0  0  0
   -0.0487    1.1113   26.5983 C   0  0  2  0  0  0  0  0  0  0  0  0
    0.0044    2.5353   26.8915 O   0  0  0  0  0  0  0  0  0  0  0  0
    3.7117    3.4384   26.3542 C   0  0  1  0  0  0  0  0  0  0  0  0
    3.8486    3.4281   24.9348 O   0  0  0  0  0  0  0  0  0  0  0  0
   -5.2433   -4.0483   23.1966 C   0  0  2  0  0  0  0  0  0  0  0  0
   -6.3099   -4.9612   23.4364 O   0  0  0  0  0  0  0  0  0  0  0  0
   -5.1200   -1.3115   25.8997 C   0  0  2  0  0  0  0  0  0  0  0  0
   -0.7409    0.8632   25.2509 C   0  0  2  0  0  0  0  0  0  0  0  0
   -2.1497    0.7751   25.5399 O   0  0  0  0  0  0  0  0  0  0  0  0
    3.5981    4.9209   26.8225 C   0  0  2  0  0  0  0  0  0  0  0  0
    3.7938    4.9667   28.2368 O   0  0  0  0  0  0  0  0  0  0  0  0
   -4.5093   -3.7031   24.5234 C   0  0  2  0  0  0  0  0  0  0  0  0
   -3.5004   -2.6820   24.2602 O   0  0  0  0  0  0  0  0  0  0  0  0
   -4.6248   -0.4100   27.0881 C   0  0  2  0  0  0  0  0  0  0  0  0
   -3.1850   -0.5568   27.1965 O   0  0  0  0  0  0  0  0  0  0  0  0
   -0.2622   -0.4233   24.5549 C   0  0  0  0  0  0  0  0  0  0  0  0
    0.8408   -0.1579   23.7061 O   0  0  0  0  0  0  0  0  0  0  0  0
    2.2031    5.5135   26.4521 C   0  0  1  0  0  0  0  0  0  0  0  0
    1.1491    4.6273   26.9380 O   0  0  0  0  0  0  0  0  0  0  0  0
   -3.7749   -4.8899   25.1861 C   0  0  0  0  0  0  0  0  0  0  0  0
   -2.9036   -5.5322   24.2708 O   0  0  0  0  0  0  0  0  0  0  0  0
   -5.2628   -0.8028   28.4568 C   0  0  1  0  0  0  0  0  0  0  0  0
   -4.8897    0.1686   29.4329 O   0  0  0  0  0  0  0  0  0  0  0  0
    1.9812    6.9317   27.0375 C   0  0  0  0  0  0  0  0  0  0  0  0
    2.2920    7.0018   28.4768 N   0  0  0  0  0  0  0  0  0  0  0  0
  1  2  1  1  0  0  0
  1  7  1  0  0  0  0
  1 30  1  0  0  0  0
  3  4  1  1  0  0  0
  3  9  1  0  0  0  0
  3 39  1  0  0  0  0
  5 10  1  0  0  0  0
  5 26  1  0  0  0  0
  5 32  1  6  0  0  0
  6 12  1  0  0  0  0
  6 36  1  0  0  0  0
  6 19  1  1  0  0  0
  7  8  1  1  0  0  0
  7 14  1  0  0  0  0
  9 16  1  0  0  0  0
 10 11  1  1  0  0  0
 10 18  1  0  0  0  0
 12 13  1  1  0  0  0
 12 20  1  0  0  0  0
 14 15  1  6  0  0  0
 14 22  1  0  0  0  0
 16 17  1  6  0  0  0
 16 24  1  0  0  0  0
 18 19  1  1  0  0  0
 18 25  1  0  0  0  0
 20 21  1  6  0  0  0
 20 27  1  0  0  0  0
 22 23  1  1  0  0  0
 22 29  1  0  0  0  0
 24  2  1  6  0  0  0
 24 31  1  0  0  0  0
 25 26  1  0  0  0  0
 25 33  1  1  0  0  0
 27 28  1  1  0  0  0
 27 35  1  0  0  0  0
 29 30  1  0  0  0  0
 29 37  1  6  0  0  0
 31 32  1  1  0  0  0
 31 39  1  0  0  0  0
 33 34  1  0  0  0  0
 35 36  1  0  0  0  0
 35 41  1  1  0  0  0
 37 38  1  0  0  0  0
 39 40  1  1  0  0  0
 41 42  1  0  0  0  0
M  END
>  <CHROM.1>
117.12749675,-114.77829636,72.50013823,71.98151968,170.42625034,-144.69892735
61.47414123,-47.64023447,159.00024593,-49.75995218,60.88719096,179.72831741
-90.32030891,-50.45087085,52.57415464,115.93819819,160.82209095,78.16117560
-49.86132761,-60.58057837,-21.53202277,147.35237105,-2.20246053,0.19229916
25.90561752,-2.57952905,0.52269001,0.99855020

>  <Name>
1fyp_lig

>  <RI>
0

>  <Rbt.Current_Directory>
/home/itssahil/PROJECTS/Mol_Feturizer/New_Systems/rnas/1fyp

>  <Rbt.Executable>
rbdock ($Id: //depot/dev/client3/rdock/2013.1/src/exe/rbdock.cxx#4 $)

>  <Rbt.Library>
libRbt.so (2013.1, Build901 2013/11/27)

>  <Rbt.Parameter_File>
/export/apps/rDock/src/rDock_2013.1_src/data/scripts/dock_solv.prm

>  <Rbt.Receptor>
prm/blind_docking_100.prm

>  <SCORE>
-23.1728

>  <SCORE.INTER>
-27.8878

>  <SCORE.INTER.CONST>
1

>  <SCORE.INTER.POLAR>
-3.7289

>  <SCORE.INTER.ROT>
14

>  <SCORE.INTER.SOLV>
16.902

>  <SCORE.INTER.VDW>
-24.7295

>  <SCORE.INTER.norm>
-0.663994

>  <SCORE.INTRA>
4.01212

>  <SCORE.INTRA.DIHEDRAL>
-8.89413

>  <SCORE.INTRA.DIHEDRAL.0>
48.7173

>  <SCORE.INTRA.POLAR>
0.88722

>  <SCORE.INTRA.POLAR.0>
-1.54691

>  <SCORE.INTRA.REPUL>
0

>  <SCORE.INTRA.REPUL.0>
0

>  <SCORE.INTRA.SOLV>
0.535697

>  <SCORE.INTRA.SOLV.lig_0>
-64.052

>  <SCORE.INTRA.VDW>
5.17479

>  <SCORE.INTRA.VDW.0>
-7.0667

>  <SCORE.INTRA.norm>
0.0955267

>  <SCORE.RESTR>
0.702821

>  <SCORE.RESTR.CAVITY>
0.702821

>  <SCORE.RESTR.norm>
0.0167338

>  <SCORE.SYSTEM>
0

>  <SCORE.SYSTEM.CONST>
0

>  <SCORE.SYSTEM.DIHEDRAL>
0

>  <SCORE.SYSTEM.SOLV>
0

>  <SCORE.SYSTEM.norm>
0

>  <SCORE.heavy>
42

>  <SCORE.norm>
-0.551734

>  <RMSD>
12.235

$$$$
1fyp_lig
 OpenBabel11021811393D
libRbt.so/2013.1/901 2013/11/27
 42 45  0  0  0  0  0  0  0  0999 V2000
   -4.2366   -4.8830   16.2327 C   0  0  2  0  0  0  0  0  0  0  0  0
   -3.1381   -4.1484   16.8459 O   0  0  0  0  0  0  0  0  0  0  0  0
   -3.0161   -3.3617   21.0420 C   0  0  2  0  0  0  0  0  0  0  0  0
   -2.8479   -3.4100   22.5062 N   0  0  0  0  0  0  0  0  0  0  0  0
   -0.0894   -4.8703   17.8101 C   0  0  1  0  0  0  0  0  0  0  0  0
    2.8477   -7.8898   16.8052 C   0  0  1  0  0  0  0  0  0  0  0  0
   -3.7291   -5.8293   15.0974 C   0  0  2  0  0  0  0  0  0  0  0  0
   -2.6105   -6.6755   15.5646 N   0  0  0  0  0  0  0  0  0  0  0  0
   -3.8562   -4.5698   20.5820 C   0  0  0  0  0  0  0  0  0  0  0  0
    1.4336   -4.9749   17.9252 C   0  0  2  0  0  0  0  0  0  0  0  0
    2.0252   -4.7531   16.6444 O   0  0  0  0  0  0  0  0  0  0  0  0
    2.7230   -8.5345   15.3910 C   0  0  2  0  0  0  0  0  0  0  0  0
    1.5474   -9.4314   15.2735 N   0  0  0  0  0  0  0  0  0  0  0  0
   -3.2997   -5.0095   13.8406 C   0  0  1  0  0  0  0  0  0  0  0  0
   -2.9912   -5.8887   12.7619 O   0  0  0  0  0  0  0  0  0  0  0  0
   -4.0970   -4.5682   19.0476 C   0  0  2  0  0  0  0  0  0  0  0  0
   -4.8365   -5.8010   18.7054 N   0  0  0  0  0  0  0  0  0  0  0  0
    1.6150   -6.4263   18.3776 C   0  0  2  0  0  0  0  0  0  0  0  0
    1.5773   -7.3505   17.2547 O   0  0  0  0  0  0  0  0  0  0  0  0
    4.0404   -9.2716   14.9983 C   0  0  1  0  0  0  0  0  0  0  0  0
    5.0322   -8.2945   14.6903 O   0  0  0  0  0  0  0  0  0  0  0  0
   -4.4132   -4.0359   13.3796 C   0  0  2  0  0  0  0  0  0  0  0  0
   -3.9271   -3.2547   12.2923 O   0  0  0  0  0  0  0  0  0  0  0  0
   -2.7659   -4.4495   18.2215 C   0  0  2  0  0  0  0  0  0  0  0  0
    0.3970   -6.6341   19.2886 C   0  0  2  0  0  0  0  0  0  0  0  0
   -0.6495   -5.8062   18.7451 O   0  0  0  0  0  0  0  0  0  0  0  0
    4.6042  -10.2044   16.1127 C   0  0  2  0  0  0  0  0  0  0  0  0
    3.7764  -11.3658   16.1948 O   0  0  0  0  0  0  0  0  0  0  0  0
   -4.8525   -3.1208   14.5577 C   0  0  2  0  0  0  0  0  0  0  0  0
   -5.2358   -3.9538   15.6930 O   0  0  0  0  0  0  0  0  0  0  0  0
   -1.8102   -3.3240   18.7600 C   0  0  2  0  0  0  0  0  0  0  0  0
   -0.5016   -3.5193   18.1635 O   0  0  0  0  0  0  0  0  0  0  0  0
    0.6677   -6.2504   20.7543 C   0  0  0  0  0  0  0  0  0  0  0  0
   -0.5410   -6.1839   21.4905 O   0  0  0  0  0  0  0  0  0  0  0  0
    4.6368   -9.4677   17.4877 C   0  0  1  0  0  0  0  0  0  0  0  0
    3.3242   -8.8916   17.7667 O   0  0  0  0  0  0  0  0  0  0  0  0
   -6.0596   -2.2058   14.2531 C   0  0  0  0  0  0  0  0  0  0  0  0
   -7.2829   -2.8378   14.5904 O   0  0  0  0  0  0  0  0  0  0  0  0
   -1.6514   -3.3514   20.3120 C   0  0  1  0  0  0  0  0  0  0  0  0
   -0.9120   -2.2008   20.7183 O   0  0  0  0  0  0  0  0  0  0  0  0
    5.0378  -10.4024   18.6576 C   0  0  0  0  0  0  0  0  0  0  0  0
    6.4111  -10.9201   18.5196 N   0  0  0  0  0  0  0  0  0  0  0  0
  1  2  1  6  0  0  0
  1  7  1  0  0  0  0
  1 30  1  0  0  0  0
  3  4  1  1  0  0  0
  3  9  1  0  0  0  0
  3 39  1  0  0  0  0
  5 10  1  0  0  0  0
  5 26  1  0  0  0  0
  5 32  1  1  0  0  0
  6 12  1  0  0  0  0
  6 36  1  0  0  0  0
  6 19  1  1  0  0  0
  7  8  1  1  0  0  0
  7 14  1  0  0  0  0
  9 16  1  0  0  0  0
 10 11  1  6  0  0  0
 10 18  1  0  0  0  0
 12 13  1  1  0  0  0
 12 20  1  0  0  0  0
 14 15  1  6  0  0  0
 14 22  1  0  0  0  0
 16 17  1  6  0  0  0
 16 24  1  0  0  0  0
 18 19  1  6  0  0  0
 18 25  1  0  0  0  0
 20 21  1  1  0  0  0
 20 27  1  0  0  0  0
 22 23  1  6  0  0  0
 22 29  1  0  0  0  0
 24  2  1  6  0  0  0
 24 31  1  0  0  0  0
 25 26  1  0  0  0  0
 25 33  1  1  0  0  0
 27 28  1  1  0  0  0
 27 35  1  0  0  0  0
 29 30  1  0  0  0  0
 29 37  1  6  0  0  0
 31 32  1  6  0  0  0
 31 39  1  0  0  0  0
 33 34  1  0  0  0  0
 35 36  1  0  0  0  0
 35 41  1  1  0  0  0
 37 38  1  0  0  0  0
 39 40  1  1  0  0  0
 41 42  1  0  0  0  0
M  END
>  <CHROM.1>
-111.64731938,-44.11926715,82.03434720,-168.49346350,-62.08942224,-76.37053951
62.88969641,138.93814176,103.72829900,-164.41487015,-168.44737915,-57.36557912
167.49731971,179.33113515,90.62067512,-29.62947840,-150.05352552,64.92471956
63.81213527,78.18224638,60.86033619,-157.38999662,-0.65223201,-5.92518677
17.20879361,3.06094367,-0.58369083,1.30805759

>  <Name>
1fyp_lig

>  <RI>
0

>  <Rbt.Current_Directory>
/home/afrankz/demos/rdock_decoys_rna/rnas/1fyp

>  <Rbt.Executable>
rbdock ($Id: //depot/dev/client3/rdock/2013.1/src/exe/rbdock.cxx#4 $)

>  <Rbt.Library>
libRbt.so (2013.1, Build901 2013/11/27)

>  <Rbt.Parameter_File>
/export/apps/rDock/src/rDock_2013.1_src/data/scripts/dock_solv.prm

>  <Rbt.Receptor>
prm/blind_docking_20.prm

>  <SCORE>
51.8791

>  <SCORE.INTER>
14.7283

>  <SCORE.INTER.CONST>
1

>  <SCORE.INTER.POLAR>
-2.84756

>  <SCORE.INTER.ROT>
14

>  <SCORE.INTER.SOLV>
19.774

>  <SCORE.INTER.VDW>
-0.213926

>  <SCORE.INTER.norm>
0.350674

>  <SCORE.INTRA>
2.28395

>  <SCORE.INTRA.DIHEDRAL>
-16.2516

>  <SCORE.INTRA.DIHEDRAL.0>
48.7173

>  <SCORE.INTRA.POLAR>
1.18928

>  <SCORE.INTRA.POLAR.0>
-1.54691

>  <SCORE.INTRA.REPUL>
0

>  <SCORE.INTRA.REPUL.0>
0

>  <SCORE.INTRA.SOLV>
-0.766515

>  <SCORE.INTRA.SOLV.lig_0>
-64.052

>  <SCORE.INTRA.VDW>
6.74944

>  <SCORE.INTRA.VDW.0>
-7.0667

>  <SCORE.INTRA.norm>
0.0543797

>  <SCORE.RESTR>
34.8668

>  <SCORE.RESTR.CAVITY>
34.8668

>  <SCORE.RESTR.norm>
0.830162

>  <SCORE.SYSTEM>
0

>  <SCORE.SYSTEM.CONST>
0

>  <SCORE.SYSTEM.DIHEDRAL>
0

>  <SCORE.SYSTEM.SOLV>
0

>  <SCORE.SYSTEM.norm>
0

>  <SCORE.heavy>
42

>  <SCORE.norm>
1.23522

>  <RMSD>
16.510

$$$$
1fyp_lig
 OpenBabel11021811393D
libRbt.so/2013.1/901 2013/11/27
 42 45  0  0  0  0  0  0  0  0999 V2000
    0.9548   -8.0242   18.4607 C   0  0  2  0  0  0  0  0  0  0  0  0
    0.3160   -8.6250   17.2974 O   0  0  0  0  0  0  0  0  0  0  0  0
    3.7442   -8.6406   14.7503 C   0  0  2  0  0  0  0  0  0  0  0  0
    4.8109   -8.9575   13.7826 N   0  0  0  0  0  0  0  0  0  0  0  0
   -0.9217   -7.0026   14.4650 C   0  0  1  0  0  0  0  0  0  0  0  0
   -4.4194   -4.3858   14.7768 C   0  0  1  0  0  0  0  0  0  0  0  0
   -0.0515   -7.8593   19.6449 C   0  0  2  0  0  0  0  0  0  0  0  0
   -0.7656   -9.1239   19.9218 N   0  0  0  0  0  0  0  0  0  0  0  0
    3.6411   -9.7748   15.7895 C   0  0  0  0  0  0  0  0  0  0  0  0
   -2.2132   -7.2941   13.6964 C   0  0  2  0  0  0  0  0  0  0  0  0
   -2.1243   -6.7357   12.3850 O   0  0  0  0  0  0  0  0  0  0  0  0
   -5.7722   -5.1391   14.5931 C   0  0  2  0  0  0  0  0  0  0  0  0
   -5.9550   -5.6578   13.2156 N   0  0  0  0  0  0  0  0  0  0  0  0
   -1.0712   -6.7144   19.3528 C   0  0  1  0  0  0  0  0  0  0  0  0
   -1.8781   -6.4697   20.5021 O   0  0  0  0  0  0  0  0  0  0  0  0
    2.5515   -9.4937   16.8601 C   0  0  2  0  0  0  0  0  0  0  0  0
    2.4805  -10.6699   17.7517 N   0  0  0  0  0  0  0  0  0  0  0  0
   -3.2553   -6.5594   14.5441 C   0  0  2  0  0  0  0  0  0  0  0  0
   -3.3128   -5.1423   14.2202 O   0  0  0  0  0  0  0  0  0  0  0  0
   -6.9717   -4.2402   15.0247 C   0  0  1  0  0  0  0  0  0  0  0  0
   -6.9808   -4.1486   16.4477 O   0  0  0  0  0  0  0  0  0  0  0  0
   -0.3597   -5.3952   18.9606 C   0  0  2  0  0  0  0  0  0  0  0  0
   -1.3412   -4.4217   18.6176 O   0  0  0  0  0  0  0  0  0  0  0  0
    1.1497   -9.1644   16.2318 C   0  0  2  0  0  0  0  0  0  0  0  0
   -2.7169   -6.7665   15.9666 C   0  0  2  0  0  0  0  0  0  0  0  0
   -1.2823   -6.8179   15.8433 O   0  0  0  0  0  0  0  0  0  0  0  0
   -6.9252   -2.7947   14.4431 C   0  0  2  0  0  0  0  0  0  0  0  0
   -7.2475   -2.8539   13.0527 O   0  0  0  0  0  0  0  0  0  0  0  0
    0.6101   -5.6380   17.7694 C   0  0  2  0  0  0  0  0  0  0  0  0
    1.5283   -6.7191   18.1130 O   0  0  0  0  0  0  0  0  0  0  0  0
    1.2347   -8.1212   15.0594 C   0  0  2  0  0  0  0  0  0  0  0  0
   -0.0268   -8.1444   14.3420 O   0  0  0  0  0  0  0  0  0  0  0  0
   -3.2376   -8.0555   16.6269 C   0  0  0  0  0  0  0  0  0  0  0  0
   -2.3529   -9.1368   16.3909 O   0  0  0  0  0  0  0  0  0  0  0  0
   -5.5128   -2.1625   14.6424 C   0  0  1  0  0  0  0  0  0  0  0  0
   -4.4918   -3.0710   14.1278 O   0  0  0  0  0  0  0  0  0  0  0  0
    1.4826   -4.4222   17.3851 C   0  0  0  0  0  0  0  0  0  0  0  0
    2.8380   -4.7970   17.2064 O   0  0  0  0  0  0  0  0  0  0  0  0
    2.3806   -8.4345   14.0478 C   0  0  1  0  0  0  0  0  0  0  0  0
    2.4882   -7.3509   13.1258 O   0  0  0  0  0  0  0  0  0  0  0  0
   -5.3679   -0.7886   13.9393 C   0  0  0  0  0  0  0  0  0  0  0  0
   -5.9838    0.3064   14.7104 N   0  0  0  0  0  0  0  0  0  0  0  0
  1  2  1  6  0  0  0
  1  7  1  0  0  0  0
  1 30  1  0  0  0  0
  3  4  1  6  0  0  0
  3  9  1  0  0  0  0
  3 39  1  0  0  0  0
  5 10  1  0  0  0  0
  5 26  1  0  0  0  0
  5 32  1  1  0  0  0
  6 12  1  0  0  0  0
  6 36  1  0  0  0  0
  6 19  1  6  0  0  0
  7  8  1  6  0  0  0
  7 14  1  0  0  0  0
  9 16  1  0  0  0  0
 10 11  1  6  0  0  0
 10 18  1  0  0  0  0
 12 13  1  6  0  0  0
 12 20  1  0  0  0  0
 14 15  1  1  0  0  0
 14 22  1  0  0  0  0
 16 17  1  1  0  0  0
 16 24  1  0  0  0  0
 18 19  1  6  0  0  0
 18 25  1  0  0  0  0
 20 21  1  1  0  0  0
 20 27  1  0  0  0  0
 22 23  1  6  0  0  0
 22 29  1  0  0  0  0
 24  2  1  1  0  0  0
 24 31  1  0  0  0  0
 25 26  1  0  0  0  0
 25 33  1  6  0  0  0
 27 28  1  6  0  0  0
 27 35  1  0  0  0  0
 29 30  1  0  0  0  0
 29 37  1  1  0  0  0
 31 32  1  6  0  0  0
 31 39  1  0  0  0  0
 33 34  1  0  0  0  0
 35 36  1  0  0  0  0
 35 41  1  6  0  0  0
 37 38  1  0  0  0  0
 39 40  1  6  0  0  0
 41 42  1  0  0  0  0
M  END
>  <CHROM.1>
-164.59616539,23.11037429,77.17076454,-53.09196853,64.77635909,-32.69999888
-171.73430894,171.69099402,169.19323936,-46.17932247,60.14384254,68.74874802
91.86158126,169.00129012,133.46115830,109.25992489,-176.50783298,62.93933557
79.33001018,54.76711453,176.87242410,-14.84944513,-1.45217925,-6.30130752
15.89754665,0.21047982,-0.59041667,1.56441048

>  <Name>
1fyp_lig

>  <RI>
0

>  <Rbt.Current_Directory>
/home/afrankz/demos/rdock_decoys_rna/rnas/1fyp

>  <Rbt.Executable>
rbdock ($Id: //depot/dev/client3/rdock/2013.1/src/exe/rbdock.cxx#4 $)

>  <Rbt.Library>
libRbt.so (2013.1, Build901 2013/11/27)

>  <Rbt.Parameter_File>
/export/apps/rDock/src/rDock_2013.1_src/data/scripts/dock_solv.prm

>  <Rbt.Receptor>
prm/blind_docking_20.prm

>  <SCORE>
27.546

>  <SCORE.INTER>
0.159296

>  <SCORE.INTER.CONST>
1

>  <SCORE.INTER.POLAR>
-2.46557

>  <SCORE.INTER.ROT>
14

>  <SCORE.INTER.SOLV>
17.017

>  <SCORE.INTER.VDW>
-10.2809

>  <SCORE.INTER.norm>
0.00379276

>  <SCORE.INTRA>
-6.38287

>  <SCORE.INTRA.DIHEDRAL>
-20.0217

>  <SCORE.INTRA.DIHEDRAL.0>
48.7173

>  <SCORE.INTRA.POLAR>
0.543639

>  <SCORE.INTRA.POLAR.0>
-1.54691

>  <SCORE.INTRA.REPUL>
0.0828521

>  <SCORE.INTRA.REPUL.0>
0

>  <SCORE.INTRA.SOLV>
-0.124835

>  <SCORE.INTRA.SOLV.lig_0>
-64.052

>  <SCORE.INTRA.VDW>
1.42778

>  <SCORE.INTRA.VDW.0>
-7.0667

>  <SCORE.INTRA.norm>
-0.151973

>  <SCORE.RESTR>
33.7696

>  <SCORE.RESTR.CAVITY>
33.7696

>  <SCORE.RESTR.norm>
0.804039

>  <SCORE.SYSTEM>
0

>  <SCORE.SYSTEM.CONST>
0

>  <SCORE.SYSTEM.DIHEDRAL>
0

>  <SCORE.SYSTEM.SOLV>
0

>  <SCORE.SYSTEM.norm>
0

>  <SCORE.heavy>
42

>  <SCORE.norm>
0.655858

>  <RMSD>
16.804

$$$$
1fyp_lig
 OpenBabel11021811393D
libRbt.so/2013.1/901 2013/11/27
 42 45  0  0  0  0  0  0  0  0999 V2000
    2.0636   -8.9862   16.4098 C   0  0  2  0  0  0  0  0  0  0  0  0
    2.2381   -7.6566   16.9790 O   0  0  0  0  0  0  0  0  0  0  0  0
   -0.1849   -5.7390   19.9274 C   0  0  2  0  0  0  0  0  0  0  0  0
   -1.1979   -4.9673   20.6709 N   0  0  0  0  0  0  0  0  0  0  0  0
   -1.4882   -8.4209   16.7539 C   0  0  1  0  0  0  0  0  0  0  0  0
   -4.0443   -5.5324   15.2519 C   0  0  1  0  0  0  0  0  0  0  0  0
    3.0299  -10.0224   17.0690 C   0  0  2  0  0  0  0  0  0  0  0  0
    2.9461   -9.9708   18.5442 N   0  0  0  0  0  0  0  0  0  0  0  0
    0.4746   -4.8331   18.8684 C   0  0  0  0  0  0  0  0  0  0  0  0
   -1.4513   -6.8986   16.5962 C   0  0  2  0  0  0  0  0  0  0  0  0
   -2.3966   -6.3036   17.4861 O   0  0  0  0  0  0  0  0  0  0  0  0
   -5.5808   -5.7819   15.3406 C   0  0  2  0  0  0  0  0  0  0  0  0
   -6.0897   -6.6165   14.2249 N   0  0  0  0  0  0  0  0  0  0  0  0
    4.5003   -9.7872   16.6016 C   0  0  1  0  0  0  0  0  0  0  0  0
    5.3422  -10.8320   17.0826 O   0  0  0  0  0  0  0  0  0  0  0  0
    1.5753   -5.5759   18.0628 C   0  0  2  0  0  0  0  0  0  0  0  0
    2.0814   -4.6489   17.0292 N   0  0  0  0  0  0  0  0  0  0  0  0
   -1.8763   -6.7242   15.1357 C   0  0  2  0  0  0  0  0  0  0  0  0
   -3.3229   -6.7635   14.9861 O   0  0  0  0  0  0  0  0  0  0  0  0
   -6.3579   -4.4331   15.4403 C   0  0  1  0  0  0  0  0  0  0  0  0
   -6.1632   -3.8929   16.7456 O   0  0  0  0  0  0  0  0  0  0  0  0
    4.6128   -9.7355   15.0573 C   0  0  2  0  0  0  0  0  0  0  0  0
    5.9563   -9.4267   14.6989 O   0  0  0  0  0  0  0  0  0  0  0  0
    1.0650   -6.9195   17.4283 C   0  0  2  0  0  0  0  0  0  0  0  0
   -1.2309   -7.9447   14.4647 C   0  0  2  0  0  0  0  0  0  0  0  0
   -1.2257   -8.9867   15.4598 O   0  0  0  0  0  0  0  0  0  0  0  0
   -5.9118   -3.3632   14.3981 C   0  0  2  0  0  0  0  0  0  0  0  0
   -6.4024   -3.7486   13.1130 O   0  0  0  0  0  0  0  0  0  0  0  0
    3.6343   -8.6739   14.4796 C   0  0  2  0  0  0  0  0  0  0  0  0
    2.2852   -8.9555   14.9596 O   0  0  0  0  0  0  0  0  0  0  0  0
    0.2515   -7.8040   18.4413 C   0  0  2  0  0  0  0  0  0  0  0  0
   -0.4470   -8.8281   17.6865 O   0  0  0  0  0  0  0  0  0  0  0  0
    0.2025   -7.6751   13.9734 C   0  0  0  0  0  0  0  0  0  0  0  0
    0.5773   -6.3315   14.2222 O   0  0  0  0  0  0  0  0  0  0  0  0
   -4.3571   -3.2362   14.3654 C   0  0  1  0  0  0  0  0  0  0  0  0
   -3.7606   -4.5577   14.1914 O   0  0  0  0  0  0  0  0  0  0  0  0
    3.5557   -8.6355   12.9370 C   0  0  0  0  0  0  0  0  0  0  0  0
    3.3406   -9.9296   12.4000 O   0  0  0  0  0  0  0  0  0  0  0  0
   -0.8021   -6.9875   19.2524 C   0  0  1  0  0  0  0  0  0  0  0  0
   -1.3642   -7.8321   20.2556 O   0  0  0  0  0  0  0  0  0  0  0  0
   -3.8570   -2.3026   13.2333 C   0  0  0  0  0  0  0  0  0  0  0  0
   -4.1786   -2.8219   11.8918 N   0  0  0  0  0  0  0  0  0  0  0  0
  1  2  1  1  0  0  0
  1  7  1  0  0  0  0
  1 30  1  0  0  0  0
  3  4  1  6  0  0  0
  3  9  1  0  0  0  0
  3 39  1  0  0  0  0
  5 10  1  0  0  0  0
  5 26  1  0  0  0  0
  5 32  1  1  0  0  0
  6 12  1  0  0  0  0
  6 36  1  0  0  0  0
  6 19  1  6  0  0  0
  7  8  1  1  0  0  0
  7 14  1  0  0  0  0
  9 16  1  0  0  0  0
 10 11  1  1  0  0  0
 10 18  1  0  0  0  0
 12 13  1  6  0  0  0
 12 20  1  0  0  0  0
 14 15  1  6  0  0  0
 14 22  1  0  0  0  0
 16 17  1  6  0  0  0
 16 24  1  0  0  0  0
 18 19  1  1  0  0  0
 18 25  1  0  0  0  0
 20 21  1  1  0  0  0
 20 27  1  0  0  0  0
 22 23  1  1  0  0  0
 22 29  1  0  0  0  0
 24  2  1  1  0  0  0
 24 31  1  0  0  0  0
 25 26  1  0  0  0  0
 25 33  1  1  0  0  0
 27 28  1  6  0  0  0
 27 35  1  0  0  0  0
 29 30  1  0  0  0  0
 29 37  1  6  0  0  0
 31 32  1  6  0  0  0
 31 39  1  0  0  0  0
 33 34  1  0  0  0  0
 35 36  1  0  0  0  0
 35 41  1  6  0  0  0
 37 38  1  0  0  0  0
 39 40  1  1  0  0  0
 41 42  1  0  0  0  0
M  END
>  <CHROM.1>
-130.25245623,176.71689145,72.04220648,86.50173586,-48.96717863,165.49964318
65.08066845,-151.92013848,82.51104199,-168.38733027,-59.68676471,-46.23602199
-1.89397730,67.48221535,50.34998444,-65.23223366,9.97385590,168.11816337
-63.94760062,-176.39850618,-55.44767291,41.08210694,-0.57057906,-6.89802667
15.98295520,-0.13083816,0.51737357,-1.58477041

>  <Name>
1fyp_lig

>  <RI>
0

>  <Rbt.Current_Directory>
/home/afrankz/demos/rdock_decoys_rna/rnas/1fyp

>  <Rbt.Executable>
rbdock ($Id: //depot/dev/client3/rdock/2013.1/src/exe/rbdock.cxx#4 $)

>  <Rbt.Library>
libRbt.so (2013.1, Build901 2013/11/27)

>  <Rbt.Parameter_File>
/export/apps/rDock/src/rDock_2013.1_src/data/scripts/dock_solv.prm

>  <Rbt.Receptor>
prm/blind_docking_20.prm

>  <SCORE>
25.1623

>  <SCORE.INTER>
-8.69446

>  <SCORE.INTER.CONST>
1

>  <SCORE.INTER.POLAR>
-2.35551

>  <SCORE.INTER.ROT>
14

>  <SCORE.INTER.SOLV>
15.159

>  <SCORE.INTER.VDW>
-15.9309

>  <SCORE.INTER.norm>
-0.207011

>  <SCORE.INTRA>
5.47072

>  <SCORE.INTRA.DIHEDRAL>
-20.5899

>  <SCORE.INTRA.DIHEDRAL.0>
48.7173

>  <SCORE.INTRA.POLAR>
0.606883

>  <SCORE.INTRA.POLAR.0>
-1.54691

>  <SCORE.INTRA.REPUL>
0

>  <SCORE.INTRA.REPUL.0>
0

>  <SCORE.INTRA.SOLV>
3.17501

>  <SCORE.INTRA.SOLV.lig_0>
-64.052

>  <SCORE.INTRA.VDW>
12.1148

>  <SCORE.INTRA.VDW.0>
-7.0667

>  <SCORE.INTRA.norm>
0.130255

>  <SCORE.RESTR>
28.386

>  <SCORE.RESTR.CAVITY>
28.386

>  <SCORE.RESTR.norm>
0.675857

>  <SCORE.SYSTEM>
0

>  <SCORE.SYSTEM.CONST>
0

>  <SCORE.SYSTEM.DIHEDRAL>
0

>  <SCORE.SYSTEM.SOLV>
0

>  <SCORE.SYSTEM.norm>
0

>  <SCORE.heavy>
42

>  <SCORE.norm>
0.599101

>  <RMSD>
16.926

$$$$
1fyp_lig
 OpenBabel11021811393D
libRbt.so/2013.1/901 2013/11/27
 42 45  0  0  0  0  0  0  0  0999 V2000
   -4.1197   -5.0091   17.2646 C   0  0  2  0  0  0  0  0  0  0  0  0
   -2.9380   -4.2329   17.6163 O   0  0  0  0  0  0  0  0  0  0  0  0
   -0.2445   -3.1657   20.7542 C   0  0  2  0  0  0  0  0  0  0  0  0
    0.4594   -2.9664   22.0345 N   0  0  0  0  0  0  0  0  0  0  0  0
   -0.2383   -6.9114   17.7083 C   0  0  1  0  0  0  0  0  0  0  0  0
    2.9211   -8.8495   15.4430 C   0  0  1  0  0  0  0  0  0  0  0  0
   -3.7336   -6.3758   16.6126 C   0  0  2  0  0  0  0  0  0  0  0  0
   -2.7449   -7.1029   17.4369 N   0  0  0  0  0  0  0  0  0  0  0  0
   -1.7013   -2.6794   20.8887 C   0  0  0  0  0  0  0  0  0  0  0  0
    1.2270   -6.5616   17.9803 C   0  0  2  0  0  0  0  0  0  0  0  0
    1.5910   -5.4078   17.2214 O   0  0  0  0  0  0  0  0  0  0  0  0
    4.1359   -9.2303   16.3433 C   0  0  2  0  0  0  0  0  0  0  0  0
    4.8976   -8.0448   16.8067 N   0  0  0  0  0  0  0  0  0  0  0  0
   -3.1841   -6.1667   15.1668 C   0  0  1  0  0  0  0  0  0  0  0  0
   -2.9866   -7.4260   14.5289 O   0  0  0  0  0  0  0  0  0  0  0  0
   -2.4975   -2.8348   19.5642 C   0  0  2  0  0  0  0  0  0  0  0  0
   -3.8915   -2.4190   19.8240 N   0  0  0  0  0  0  0  0  0  0  0  0
    1.9480   -7.8125   17.4707 C   0  0  2  0  0  0  0  0  0  0  0  0
    2.1446   -7.7728   16.0297 O   0  0  0  0  0  0  0  0  0  0  0  0
    5.0643  -10.2539   15.6200 C   0  0  1  0  0  0  0  0  0  0  0  0
    4.4152  -11.5235   15.6056 O   0  0  0  0  0  0  0  0  0  0  0  0
   -4.1504   -5.3213   14.2997 C   0  0  2  0  0  0  0  0  0  0  0  0
   -3.5517   -5.0886   13.0284 O   0  0  0  0  0  0  0  0  0  0  0  0
   -2.4326   -4.2922   18.9810 C   0  0  2  0  0  0  0  0  0  0  0  0
    0.9643   -8.9281   17.8505 C   0  0  2  0  0  0  0  0  0  0  0  0
   -0.3495   -8.3425   17.7675 O   0  0  0  0  0  0  0  0  0  0  0  0
    5.4141   -9.8682   14.1507 C   0  0  2  0  0  0  0  0  0  0  0  0
    6.3423   -8.7827   14.1747 O   0  0  0  0  0  0  0  0  0  0  0  0
   -4.4737   -3.9748   15.0073 C   0  0  2  0  0  0  0  0  0  0  0  0
   -4.9780   -4.2487   16.3491 O   0  0  0  0  0  0  0  0  0  0  0  0
   -0.9761   -4.8826   18.9709 C   0  0  2  0  0  0  0  0  0  0  0  0
   -1.0703   -6.3127   18.7423 O   0  0  0  0  0  0  0  0  0  0  0  0
    1.2051   -9.4891   19.2633 C   0  0  0  0  0  0  0  0  0  0  0  0
    2.5804   -9.4364   19.6000 O   0  0  0  0  0  0  0  0  0  0  0  0
    4.1295   -9.4614   13.3640 C   0  0  1  0  0  0  0  0  0  0  0  0
    3.3963   -8.4453   14.1140 O   0  0  0  0  0  0  0  0  0  0  0  0
   -5.5424   -3.1111   14.3010 C   0  0  0  0  0  0  0  0  0  0  0  0
   -5.4869   -1.7638   14.7383 O   0  0  0  0  0  0  0  0  0  0  0  0
   -0.2153   -4.6489   20.3129 C   0  0  1  0  0  0  0  0  0  0  0  0
    1.1406   -5.0621   20.1501 O   0  0  0  0  0  0  0  0  0  0  0  0
    4.4434   -8.9159   11.9473 C   0  0  0  0  0  0  0  0  0  0  0  0
    3.9596   -9.8098   10.8797 N   0  0  0  0  0  0  0  0  0  0  0  0
  1  2  1  6  0  0  0
  1  7  1  0  0  0  0
  1 30  1  0  0  0  0
  3  4  1  1  0  0  0
  3  9  1  0  0  0  0
  3 39  1  0  0  0  0
  5 10  1  0  0  0  0
  5 26  1  0  0  0  0
  5 32  1  1  0  0  0
  6 12  1  0  0  0  0
  6 36  1  0  0  0  0
  6 19  1  1  0  0  0
  7  8  1  1  0  0  0
  7 14  1  0  0  0  0
  9 16  1  0  0  0  0
 10 11  1  6  0  0  0
 10 18  1  0  0  0  0
 12 13  1  6  0  0  0
 12 20  1  0  0  0  0
 14 15  1  6  0  0  0
 14 22  1  0  0  0  0
 16 17  1  1  0  0  0
 16 24  1  0  0  0  0
 18 19  1  6  0  0  0
 18 25  1  0  0  0  0
 20 21  1  6  0  0  0
 20 27  1  0  0  0  0
 22 23  1  6  0  0  0
 22 29  1  0  0  0  0
 24  2  1  6  0  0  0
 24 31  1  0  0  0  0
 25 26  1  0  0  0  0
 25 33  1  1  0  0  0
 27 28  1  1  0  0  0
 27 35  1  0  0  0  0
 29 30  1  0  0  0  0
 29 37  1  6  0  0  0
 31 32  1  1  0  0  0
 31 39  1  0  0  0  0
 33 34  1  0  0  0  0
 35 36  1  0  0  0  0
 35 41  1  6  0  0  0
 37 38  1  0  0  0  0
 39 40  1  6  0  0  0
 41 42  1  0  0  0  0
M  END
>  <CHROM.1>
-96.46755427,-119.14386082,62.17079824,65.93493735,-83.41861999,-157.50711989
65.28451121,-46.78019041,174.77941075,-39.77986601,59.35409368,-56.80275434
-31.88755138,52.83353267,-161.66461636,130.30195117,55.28858160,-56.28755182
112.76667259,-169.30084604,161.10812647,-51.13949416,0.03924158,-6.50819821
16.78296377,2.68940339,-0.51997949,1.23468494

>  <Name>
1fyp_lig

>  <RI>
0

>  <Rbt.Current_Directory>
/home/afrankz/demos/rdock_decoys_rna/rnas/1fyp

>  <Rbt.Executable>
rbdock ($Id: //depot/dev/client3/rdock/2013.1/src/exe/rbdock.cxx#4 $)

>  <Rbt.Library>
libRbt.so (2013.1, Build901 2013/11/27)

>  <Rbt.Parameter_File>
/export/apps/rDock/src/rDock_2013.1_src/data/scripts/dock_solv.prm

>  <Rbt.Receptor>
prm/blind_docking_20.prm

>  <SCORE>
12.2505

>  <SCORE.INTER>
-24.8528

>  <SCORE.INTER.CONST>
1

>  <SCORE.INTER.POLAR>
-5.56576

>  <SCORE.INTER.ROT>
14

>  <SCORE.INTER.SOLV>
21.0145

>  <SCORE.INTER.VDW>
-17.9542

>  <SCORE.INTER.norm>
-0.591734

>  <SCORE.INTRA>
6.85078

>  <SCORE.INTRA.DIHEDRAL>
-12.8641

>  <SCORE.INTRA.DIHEDRAL.0>
48.7173

>  <SCORE.INTRA.POLAR>
1.11555

>  <SCORE.INTRA.POLAR.0>
-1.54691

>  <SCORE.INTRA.REPUL>
0.0246932

>  <SCORE.INTRA.REPUL.0>
0

>  <SCORE.INTRA.SOLV>
-0.642195

>  <SCORE.INTRA.SOLV.lig_0>
-64.052

>  <SCORE.INTRA.VDW>
9.68757

>  <SCORE.INTRA.VDW.0>
-7.0667

>  <SCORE.INTRA.norm>
0.163114

>  <SCORE.RESTR>
30.2526

>  <SCORE.RESTR.CAVITY>
30.2526

>  <SCORE.RESTR.norm>
0.7203

>  <SCORE.SYSTEM>
0

>  <SCORE.SYSTEM.CONST>
0

>  <SCORE.SYSTEM.DIHEDRAL>
0

>  <SCORE.SYSTEM.SOLV>
0

>  <SCORE.SYSTEM.norm>
0

>  <SCORE.heavy>
42

>  <SCORE.norm>
0.29168

>  <RMSD>
16.945

$$$$
1fyp_lig
 OpenBabel11021811393D
libRbt.so/2013.1/901 2013/11/27
 42 45  0  0  0  0  0  0  0  0999 V2000
    1.3723   -8.0227   15.5169 C   0  0  2  0  0  0  0  0  0  0  0  0
    0.3654   -7.9662   16.5683 O   0  0  0  0  0  0  0  0  0  0  0  0
   -1.0150   -5.1333   19.4510 C   0  0  2  0  0  0  0  0  0  0  0  0
   -1.4771   -3.9376   20.1798 N   0  0  0  0  0  0  0  0  0  0  0  0
   -3.0093   -5.9793   15.7641 C   0  0  1  0  0  0  0  0  0  0  0  0
   -5.2678   -3.2522   13.2746 C   0  0  1  0  0  0  0  0  0  0  0  0
    1.2922   -9.3639   14.7190 C   0  0  2  0  0  0  0  0  0  0  0  0
   -0.0876   -9.6345   14.2622 N   0  0  0  0  0  0  0  0  0  0  0  0
    0.3229   -4.8219   18.7508 C   0  0  0  0  0  0  0  0  0  0  0  0
   -3.6831   -6.5015   14.4925 C   0  0  2  0  0  0  0  0  0  0  0  0
   -2.7447   -6.4896   13.4160 O   0  0  0  0  0  0  0  0  0  0  0  0
   -4.5897   -2.0143   12.6120 C   0  0  2  0  0  0  0  0  0  0  0  0
   -3.3774   -1.5682   13.3411 N   0  0  0  0  0  0  0  0  0  0  0  0
    1.8214  -10.5546   15.5782 C   0  0  1  0  0  0  0  0  0  0  0  0
    1.8913  -11.7385   14.7875 O   0  0  0  0  0  0  0  0  0  0  0  0
    0.8842   -6.0499   17.9831 C   0  0  2  0  0  0  0  0  0  0  0  0
    2.1161   -5.6229   17.2876 N   0  0  0  0  0  0  0  0  0  0  0  0
   -4.7903   -5.4663   14.2764 C   0  0  2  0  0  0  0  0  0  0  0  0
   -4.2943   -4.2794   13.5969 O   0  0  0  0  0  0  0  0  0  0  0  0
   -5.6102   -0.8472   12.4406 C   0  0  1  0  0  0  0  0  0  0  0  0
   -6.5062   -1.1799   11.3823 O   0  0  0  0  0  0  0  0  0  0  0  0
    3.2286  -10.2659   16.1583 C   0  0  2  0  0  0  0  0  0  0  0  0
    3.6134  -11.3453   17.0042 O   0  0  0  0  0  0  0  0  0  0  0  0
   -0.1549   -6.6700   16.9812 C   0  0  2  0  0  0  0  0  0  0  0  0
   -5.2028   -5.1310   15.7164 C   0  0  2  0  0  0  0  0  0  0  0  0
   -4.0101   -5.2708   16.5126 O   0  0  0  0  0  0  0  0  0  0  0  0
   -6.4532   -0.5463   13.7169 C   0  0  2  0  0  0  0  0  0  0  0  0
   -5.6130    0.1004   14.6742 O   0  0  0  0  0  0  0  0  0  0  0  0
    3.2229   -8.9265   16.9484 C   0  0  2  0  0  0  0  0  0  0  0  0
    2.7157   -7.8644   16.0855 O   0  0  0  0  0  0  0  0  0  0  0  0
   -1.5795   -6.8601   17.6173 C   0  0  2  0  0  0  0  0  0  0  0  0
   -2.5237   -7.1091   16.5436 O   0  0  0  0  0  0  0  0  0  0  0  0
   -6.3105   -6.0529   16.2566 C   0  0  0  0  0  0  0  0  0  0  0  0
   -7.1204   -5.3711   17.1983 O   0  0  0  0  0  0  0  0  0  0  0  0
   -7.0396   -1.8621   14.3163 C   0  0  1  0  0  0  0  0  0  0  0  0
   -5.9689   -2.8388   14.4964 O   0  0  0  0  0  0  0  0  0  0  0  0
    4.6087   -8.4639   17.4511 C   0  0  0  0  0  0  0  0  0  0  0  0
    5.1666   -9.4003   18.3573 O   0  0  0  0  0  0  0  0  0  0  0  0
   -2.0618   -5.6089   18.4149 C   0  0  1  0  0  0  0  0  0  0  0  0
   -3.2749   -5.9352   19.0914 O   0  0  0  0  0  0  0  0  0  0  0  0
   -7.7509   -1.6354   15.6749 C   0  0  0  0  0  0  0  0  0  0  0  0
   -8.3853   -2.8622   16.1901 N   0  0  0  0  0  0  0  0  0  0  0  0
  1  2  1  1  0  0  0
  1  7  1  0  0  0  0
  1 30  1  0  0  0  0
  3  4  1  6  0  0  0
  3  9  1  0  0  0  0
  3 39  1  0  0  0  0
  5 10  1  0  0  0  0
  5 26  1  0  0  0  0
  5 32  1  1  0  0  0
  6 12  1  0  0  0  0
  6 36  1  0  0  0  0
  6 19  1  1  0  0  0
  7  8  1  1  0  0  0
  7 14  1  0  0  0  0
  9 16  1  0  0  0  0
 10 11  1  6  0  0  0
 10 18  1  0  0  0  0
 12 13  1  1  0  0  0
 12 20  1  0  0  0  0
 14 15  1  6  0  0  0
 14 22  1  0  0  0  0
 16 17  1  6  0  0  0
 16 24  1  0  0  0  0
 18 19  1  1  0  0  0
 18 25  1  0  0  0  0
 20 21  1  6  0  0  0
 20 27  1  0  0  0  0
 22 23  1  1  0  0  0
 22 29  1  0  0  0  0
 24  2  1  1  0  0  0
 24 31  1  0  0  0  0
 25 26  1  0  0  0  0
 25 33  1  1  0  0  0
 27 28  1  1  0  0  0
 27 35  1  0  0  0  0
 29 30  1  0  0  0  0
 29 37  1  6  0  0  0
 31 32  1  6  0  0  0
 31 39  1  0  0  0  0
 33 34  1  0  0  0  0
 35 36  1  0  0  0  0
 35 41  1  1  0  0  0
 37 38  1  0  0  0  0
 39 40  1  1  0  0  0
 41 42  1  0  0  0  0
M  END
>  <CHROM.1>
-151.14069818,-81.36540773,73.14966531,50.65439156,-43.13627131,20.16921031
-177.08038487,-168.87013439,176.97656700,177.32913983,54.57770292,-175.09277051
-149.75274972,53.30304646,-61.91171349,-79.11176255,165.43862311,-62.62787767
175.93754160,-52.57583316,173.94835470,74.02868478,-2.07493929,-5.73738844
15.84023270,-0.04450347,0.69113795,-1.84246535

>  <Name>
1fyp_lig

>  <RI>
0

>  <Rbt.Current_Directory>
/home/afrankz/demos/rdock_decoys_rna/rnas/1fyp

>  <Rbt.Executable>
rbdock ($Id: //depot/dev/client3/rdock/2013.1/src/exe/rbdock.cxx#4 $)

>  <Rbt.Library>
libRbt.so (2013.1, Build901 2013/11/27)

>  <Rbt.Parameter_File>
/export/apps/rDock/src/rDock_2013.1_src/data/scripts/dock_solv.prm

>  <Rbt.Receptor>
prm/blind_docking_20.prm

>  <SCORE>
21.8146

>  <SCORE.INTER>
-0.401111

>  <SCORE.INTER.CONST>
1

>  <SCORE.INTER.POLAR>
-2.74656

>  <SCORE.INTER.ROT>
14

>  <SCORE.INTER.SOLV>
13.6917

>  <SCORE.INTER.VDW>
-8.60945

>  <SCORE.INTER.norm>
-0.00955027

>  <SCORE.INTRA>
-15.9338

>  <SCORE.INTRA.DIHEDRAL>
-32.1685

>  <SCORE.INTRA.DIHEDRAL.0>
48.7173

>  <SCORE.INTRA.POLAR>
-1.27759

>  <SCORE.INTRA.POLAR.0>
-1.54691

>  <SCORE.INTRA.REPUL>
0

>  <SCORE.INTRA.REPUL.0>
0

>  <SCORE.INTRA.SOLV>
-0.770346

>  <SCORE.INTRA.SOLV.lig_0>
-64.052

>  <SCORE.INTRA.VDW>
4.87943

>  <SCORE.INTRA.VDW.0>
-7.0667

>  <SCORE.INTRA.norm>
-0.379376

>  <SCORE.RESTR>
38.1495

>  <SCORE.RESTR.CAVITY>
38.1495

>  <SCORE.RESTR.norm>
0.908321

>  <SCORE.SYSTEM>
0

>  <SCORE.SYSTEM.CONST>
0

>  <SCORE.SYSTEM.DIHEDRAL>
0

>  <SCORE.SYSTEM.SOLV>
0

>  <SCORE.SYSTEM.norm>
0

>  <SCORE.heavy>
42

>  <SCORE.norm>
0.519395

>  <RMSD>
16.981

$$$$
1fyp_lig
 OpenBabel11021811393D
libRbt.so/2013.1/901 2013/11/27
 42 45  0  0  0  0  0  0  0  0999 V2000
    1.5412   -8.4951   16.3447 C   0  0  2  0  0  0  0  0  0  0  0  0
    1.8806   -7.1364   16.7462 O   0  0  0  0  0  0  0  0  0  0  0  0
   -0.3700   -5.4735   19.9727 C   0  0  2  0  0  0  0  0  0  0  0  0
   -1.2716   -4.6935   20.8406 N   0  0  0  0  0  0  0  0  0  0  0  0
   -1.8571   -6.9950   16.1606 C   0  0  1  0  0  0  0  0  0  0  0  0
   -4.2909   -4.4235   14.3509 C   0  0  1  0  0  0  0  0  0  0  0  0
    2.8115   -9.4013   16.2607 C   0  0  2  0  0  0  0  0  0  0  0  0
    3.6180   -9.3101   17.4964 N   0  0  0  0  0  0  0  0  0  0  0  0
    0.5536   -4.5129   19.1973 C   0  0  0  0  0  0  0  0  0  0  0  0
   -3.2775   -7.5643   16.1148 C   0  0  2  0  0  0  0  0  0  0  0  0
   -3.4142   -8.4149   14.9758 O   0  0  0  0  0  0  0  0  0  0  0  0
   -5.7665   -3.9941   14.0875 C   0  0  2  0  0  0  0  0  0  0  0  0
   -6.4497   -4.8700   13.1044 N   0  0  0  0  0  0  0  0  0  0  0  0
    3.6799   -9.0280   15.0187 C   0  0  1  0  0  0  0  0  0  0  0  0
    4.7459   -9.9617   14.8654 O   0  0  0  0  0  0  0  0  0  0  0  0
    1.5523   -5.2702   18.2801 C   0  0  2  0  0  0  0  0  0  0  0  0
    2.3282   -4.2621   17.5282 N   0  0  0  0  0  0  0  0  0  0  0  0
   -4.1197   -6.2944   15.9647 C   0  0  2  0  0  0  0  0  0  0  0  0
   -4.1887   -5.8531   14.5801 O   0  0  0  0  0  0  0  0  0  0  0  0
   -5.8414   -2.4958   13.6606 C   0  0  1  0  0  0  0  0  0  0  0  0
   -5.5946   -1.6847   14.8072 O   0  0  0  0  0  0  0  0  0  0  0  0
    2.8443   -9.0157   13.7140 C   0  0  2  0  0  0  0  0  0  0  0  0
    3.6688   -8.5789   12.6379 O   0  0  0  0  0  0  0  0  0  0  0  0
    0.8432   -6.2862   17.3140 C   0  0  2  0  0  0  0  0  0  0  0  0
   -3.3346   -5.2853   16.8143 C   0  0  2  0  0  0  0  0  0  0  0  0
   -1.9502   -5.6693   16.7063 O   0  0  0  0  0  0  0  0  0  0  0  0
   -4.8197   -2.0979   12.5525 C   0  0  2  0  0  0  0  0  0  0  0  0
   -5.2579   -2.6516   11.3107 O   0  0  0  0  0  0  0  0  0  0  0  0
    1.6102   -8.0827   13.8717 C   0  0  2  0  0  0  0  0  0  0  0  0
    0.8509   -8.4891   15.0499 O   0  0  0  0  0  0  0  0  0  0  0  0
   -0.2220   -7.1823   18.0437 C   0  0  2  0  0  0  0  0  0  0  0  0
   -1.0391   -7.8266   17.0319 O   0  0  0  0  0  0  0  0  0  0  0  0
   -3.7671   -5.2751   18.2913 C   0  0  0  0  0  0  0  0  0  0  0  0
   -3.1431   -4.2141   18.9930 O   0  0  0  0  0  0  0  0  0  0  0  0
   -3.3919   -2.6210   12.9019 C   0  0  1  0  0  0  0  0  0  0  0  0
   -3.4531   -4.0482   13.2052 O   0  0  0  0  0  0  0  0  0  0  0  0
    0.6250   -8.1037   12.6817 C   0  0  0  0  0  0  0  0  0  0  0  0
   -0.5637   -7.3933   12.9848 O   0  0  0  0  0  0  0  0  0  0  0  0
   -1.1604   -6.3667   18.9864 C   0  0  1  0  0  0  0  0  0  0  0  0
   -1.9716   -7.2774   19.7268 O   0  0  0  0  0  0  0  0  0  0  0  0
   -2.3737   -2.3909   11.7559 C   0  0  0  0  0  0  0  0  0  0  0  0
   -2.8776   -1.4554   10.7342 N   0  0  0  0  0  0  0  0  0  0  0  0
  1  2  1  6  0  0  0
  1  7  1  0  0  0  0
  1 30  1  0  0  0  0
  3  4  1  6  0  0  0
  3  9  1  0  0  0  0
  3 39  1  0  0  0  0
  5 10  1  0  0  0  0
  5 26  1  0  0  0  0
  5 32  1  1  0  0  0
  6 12  1  0  0  0  0
  6 36  1  0  0  0  0
  6 19  1  6  0  0  0
  7  8  1  1  0  0  0
  7 14  1  0  0  0  0
  9 16  1  0  0  0  0
 10 11  1  6  0  0  0
 10 18  1  0  0  0  0
 12 13  1  6  0  0  0
 12 20  1  0  0  0  0
 14 15  1  6  0  0  0
 14 22  1  0  0  0  0
 16 17  1  6  0  0  0
 16 24  1  0  0  0  0
 18 19  1  6  0  0  0
 18 25  1  0  0  0  0
 20 21  1  1  0  0  0
 20 27  1  0  0  0  0
 22 23  1  6  0  0  0
 22 29  1  0  0  0  0
 24  2  1  1  0  0  0
 24 31  1  0  0  0  0
 25 26  1  0  0  0  0
 25 33  1  1  0  0  0
 27 28  1  6  0  0  0
 27 35  1  0  0  0  0
 29 30  1  0  0  0  0
 29 37  1  6  0  0  0
 31 32  1  6  0  0  0
 31 39  1  0  0  0  0
 33 34  1  0  0  0  0
 35 36  1  0  0  0  0
 35 41  1  6  0  0  0
 37 38  1  0  0  0  0
 39 40  1  1  0  0  0
 41 42  1  0  0  0  0
M  END
>  <CHROM.1>
-159.23853392,151.54044810,176.79707156,-53.21674425,-176.40182502,-173.93263283
64.55190111,174.39626744,-148.12235839,-98.60765980,-67.89116195,169.51726225
-172.33689769,60.26772456,171.04133327,-63.50755301,-131.68600546,173.51463121
13.73856517,-49.57341086,-176.17614143,60.06846735,-1.26685902,-5.96422264
15.58759355,-0.31724054,0.60578445,-1.54685069

>  <Name>
1fyp_lig

>  <RI>
0

>  <Rbt.Current_Directory>
/home/afrankz/demos/rdock_decoys_rna/rnas/1fyp

>  <Rbt.Executable>
rbdock ($Id: //depot/dev/client3/rdock/2013.1/src/exe/rbdock.cxx#4 $)

>  <Rbt.Library>
libRbt.so (2013.1, Build901 2013/11/27)

>  <Rbt.Parameter_File>
/export/apps/rDock/src/rDock_2013.1_src/data/scripts/dock_solv.prm

>  <Rbt.Receptor>
prm/blind_docking_20.prm

>  <SCORE>
46.1677

>  <SCORE.INTER>
12.0082

>  <SCORE.INTER.CONST>
1

>  <SCORE.INTER.POLAR>
-1.63799

>  <SCORE.INTER.ROT>
14

>  <SCORE.INTER.SOLV>
13.1054

>  <SCORE.INTER.VDW>
-3.83633

>  <SCORE.INTER.norm>
0.285911

>  <SCORE.INTRA>
1.04481

>  <SCORE.INTRA.DIHEDRAL>
-20.2037

>  <SCORE.INTRA.DIHEDRAL.0>
48.7173

>  <SCORE.INTRA.POLAR>
0.976595

>  <SCORE.INTRA.POLAR.0>
-1.54691

>  <SCORE.INTRA.REPUL>
0.0116947

>  <SCORE.INTRA.REPUL.0>
0

>  <SCORE.INTRA.SOLV>
0.872056

>  <SCORE.INTRA.SOLV.lig_0>
-64.052

>  <SCORE.INTRA.VDW>
7.33171

>  <SCORE.INTRA.VDW.0>
-7.0667

>  <SCORE.INTRA.norm>
0.0248764

>  <SCORE.RESTR>
33.1146

>  <SCORE.RESTR.CAVITY>
33.1146

>  <SCORE.RESTR.norm>
0.788443

>  <SCORE.SYSTEM>
0

>  <SCORE.SYSTEM.CONST>
0

>  <SCORE.SYSTEM.DIHEDRAL>
0

>  <SCORE.SYSTEM.SOLV>
0

>  <SCORE.SYSTEM.norm>
0

>  <SCORE.heavy>
42

>  <SCORE.norm>
1.09923

>  <RMSD>
16.985

$$$$
1fyp_lig
 OpenBabel11021811393D
libRbt.so/2013.1/901 2013/11/27
 42 45  0  0  0  0  0  0  0  0999 V2000
    1.6153   -8.4883   16.4087 C   0  0  2  0  0  0  0  0  0  0  0  0
    1.8086   -7.0574   16.6021 O   0  0  0  0  0  0  0  0  0  0  0  0
   -0.8487   -5.6874   19.6521 C   0  0  2  0  0  0  0  0  0  0  0  0
   -1.8585   -4.9852   20.4655 N   0  0  0  0  0  0  0  0  0  0  0  0
   -1.8826   -6.8406   15.5927 C   0  0  1  0  0  0  0  0  0  0  0  0
   -4.0626   -4.5754   13.9467 C   0  0  1  0  0  0  0  0  0  0  0  0
    2.5316   -9.3233   17.3602 C   0  0  2  0  0  0  0  0  0  0  0  0
    2.4034   -8.8708   18.7617 N   0  0  0  0  0  0  0  0  0  0  0  0
    0.1639   -4.6657   19.0974 C   0  0  0  0  0  0  0  0  0  0  0  0
   -2.0028   -7.4473   14.1922 C   0  0  2  0  0  0  0  0  0  0  0  0
   -0.9707   -6.9240   13.3554 O   0  0  0  0  0  0  0  0  0  0  0  0
   -5.5776   -4.9321   14.0409 C   0  0  2  0  0  0  0  0  0  0  0  0
   -6.1457   -5.3610   12.7395 N   0  0  0  0  0  0  0  0  0  0  0  0
    4.0219   -9.2508   16.9020 C   0  0  1  0  0  0  0  0  0  0  0  0
    4.8192  -10.1403   17.6796 O   0  0  0  0  0  0  0  0  0  0  0  0
    1.2764   -5.3415   18.2500 C   0  0  2  0  0  0  0  0  0  0  0  0
    2.1394   -4.2735   17.7039 N   0  0  0  0  0  0  0  0  0  0  0  0
   -3.3819   -6.9487   13.7519 C   0  0  2  0  0  0  0  0  0  0  0  0
   -3.3231   -5.5942   13.2243 O   0  0  0  0  0  0  0  0  0  0  0  0
   -6.3899   -3.7492   14.6522 C   0  0  1  0  0  0  0  0  0  0  0  0
   -6.1093   -3.6803   16.0487 O   0  0  0  0  0  0  0  0  0  0  0  0
    4.1839   -9.6233   15.4069 C   0  0  2  0  0  0  0  0  0  0  0  0
    5.5459   -9.4479   15.0289 O   0  0  0  0  0  0  0  0  0  0  0  0
    0.7029   -6.2558   17.1084 C   0  0  2  0  0  0  0  0  0  0  0  0
   -4.1713   -6.9815   15.0680 C   0  0  2  0  0  0  0  0  0  0  0  0
   -3.2159   -6.7025   16.1096 O   0  0  0  0  0  0  0  0  0  0  0  0
   -6.0663   -2.3613   14.0206 C   0  0  2  0  0  0  0  0  0  0  0  0
   -6.6453   -2.3100   12.7157 O   0  0  0  0  0  0  0  0  0  0  0  0
    3.2536   -8.7413   14.5265 C   0  0  2  0  0  0  0  0  0  0  0  0
    1.8829   -8.8574   15.0140 O   0  0  0  0  0  0  0  0  0  0  0  0
   -0.4446   -7.2078   17.6056 C   0  0  2  0  0  0  0  0  0  0  0  0
   -1.1207   -7.7469   16.4400 O   0  0  0  0  0  0  0  0  0  0  0  0
   -4.8561   -8.3353   15.3269 C   0  0  0  0  0  0  0  0  0  0  0  0
   -3.9028   -9.3263   15.6688 O   0  0  0  0  0  0  0  0  0  0  0  0
   -4.5245   -2.1376   13.9352 C   0  0  1  0  0  0  0  0  0  0  0  0
   -3.8989   -3.2802   13.2752 O   0  0  0  0  0  0  0  0  0  0  0  0
    3.2243   -9.1227   13.0296 C   0  0  0  0  0  0  0  0  0  0  0  0
    2.8874  -10.4882   12.8526 O   0  0  0  0  0  0  0  0  0  0  0  0
   -1.5007   -6.4769   18.4915 C   0  0  1  0  0  0  0  0  0  0  0  0
   -2.3977   -7.4466   19.0309 O   0  0  0  0  0  0  0  0  0  0  0  0
   -4.1496   -0.8433   13.1687 C   0  0  0  0  0  0  0  0  0  0  0  0
   -4.5883    0.3753   13.8727 N   0  0  0  0  0  0  0  0  0  0  0  0
  1  2  1  6  0  0  0
  1  7  1  0  0  0  0
  1 30  1  0  0  0  0
  3  4  1  6  0  0  0
  3  9  1  0  0  0  0
  3 39  1  0  0  0  0
  5 10  1  0  0  0  0
  5 26  1  0  0  0  0
  5 32  1  1  0  0  0
  6 12  1  0  0  0  0
  6 36  1  0  0  0  0
  6 19  1  6  0  0  0
  7  8  1  1  0  0  0
  7 14  1  0  0  0  0
  9 16  1  0  0  0  0
 10 11  1  6  0  0  0
 10 18  1  0  0  0  0
 12 13  1  6  0  0  0
 12 20  1  0  0  0  0
 14 15  1  1  0  0  0
 14 22  1  0  0  0  0
 16 17  1  6  0  0  0
 16 24  1  0  0  0  0
 18 19  1  1  0  0  0
 18 25  1  0  0  0  0
 20 21  1  1  0  0  0
 20 27  1  0  0  0  0
 22 23  1  6  0  0  0
 22 29  1  0  0  0  0
 24  2  1  1  0  0  0
 24 31  1  0  0  0  0
 25 26  1  0  0  0  0
 25 33  1  1  0  0  0
 27 28  1  6  0  0  0
 27 35  1  0  0  0  0
 29 30  1  0  0  0  0
 29 37  1  6  0  0  0
 31 32  1  6  0  0  0
 31 39  1  0  0  0  0
 33 34  1  0  0  0  0
 35 36  1  0  0  0  0
 35 41  1  6  0  0  0
 37 38  1  0  0  0  0
 39 40  1  1  0  0  0
 41 42  1  0  0  0  0
M  END
>  <CHROM.1>
-115.45612038,133.31909581,-169.02386479,69.46338451,-62.74053931,46.87802753
-169.88179792,76.80595555,-117.03614875,-58.07700123,-57.70571498,-63.41519662
72.12196594,-45.28386938,54.92246598,-66.80940258,156.71602091,64.59359817
65.82943020,61.25406641,-55.68791298,-9.30630683,-1.22051705,-6.38616244
15.66205427,-0.01604402,0.61509141,-1.93636041

>  <Name>
1fyp_lig

>  <RI>
0

>  <Rbt.Current_Directory>
/home/afrankz/demos/rdock_decoys_rna/rnas/1fyp

>  <Rbt.Executable>
rbdock ($Id: //depot/dev/client3/rdock/2013.1/src/exe/rbdock.cxx#4 $)

>  <Rbt.Library>
libRbt.so (2013.1, Build901 2013/11/27)

>  <Rbt.Parameter_File>
/export/apps/rDock/src/rDock_2013.1_src/data/scripts/dock_solv.prm

>  <Rbt.Receptor>
prm/blind_docking_20.prm

>  <SCORE>
18.5679

>  <SCORE.INTER>
-13.2487

>  <SCORE.INTER.CONST>
1

>  <SCORE.INTER.POLAR>
-3.26713

>  <SCORE.INTER.ROT>
14

>  <SCORE.INTER.SOLV>
15.1948

>  <SCORE.INTER.VDW>
-15.9403

>  <SCORE.INTER.norm>
-0.315444

>  <SCORE.INTRA>
1.07962

>  <SCORE.INTRA.DIHEDRAL>
-19.4379

>  <SCORE.INTRA.DIHEDRAL.0>
48.7173

>  <SCORE.INTRA.POLAR>
0.745774

>  <SCORE.INTRA.POLAR.0>
-1.54691

>  <SCORE.INTRA.REPUL>
0.00727878

>  <SCORE.INTRA.REPUL.0>
0

>  <SCORE.INTRA.SOLV>
-1.21581

>  <SCORE.INTRA.SOLV.lig_0>
-64.052

>  <SCORE.INTRA.VDW>
8.83447

>  <SCORE.INTRA.VDW.0>
-7.0667

>  <SCORE.INTRA.norm>
0.0257053

>  <SCORE.RESTR>
30.737

>  <SCORE.RESTR.CAVITY>
30.737

>  <SCORE.RESTR.norm>
0.731832

>  <SCORE.SYSTEM>
0

>  <SCORE.SYSTEM.CONST>
0

>  <SCORE.SYSTEM.DIHEDRAL>
0

>  <SCORE.SYSTEM.SOLV>
0

>  <SCORE.SYSTEM.norm>
0

>  <SCORE.heavy>
42

>  <SCORE.norm>
0.442093

>  <RMSD>
17.054

$$$$
1fyp_lig
 OpenBabel11021811393D
libRbt.so/2013.1/901 2013/11/27
 42 45  0  0  0  0  0  0  0  0999 V2000
   -4.0683   -5.3492   16.9915 C   0  0  2  0  0  0  0  0  0  0  0  0
   -2.9544   -4.5369   17.4625 O   0  0  0  0  0  0  0  0  0  0  0  0
   -0.5761   -3.4609   20.8429 C   0  0  2  0  0  0  0  0  0  0  0  0
    0.0045   -3.2638   22.1839 N   0  0  0  0  0  0  0  0  0  0  0  0
   -0.3215   -7.1575   17.6902 C   0  0  1  0  0  0  0  0  0  0  0  0
    2.8933   -8.9179   15.3666 C   0  0  1  0  0  0  0  0  0  0  0  0
   -3.5918   -6.4452   15.9846 C   0  0  2  0  0  0  0  0  0  0  0  0
   -2.4565   -7.2185   16.5311 N   0  0  0  0  0  0  0  0  0  0  0  0
   -2.0466   -2.9975   20.8474 C   0  0  0  0  0  0  0  0  0  0  0  0
    1.1221   -6.7000   17.9142 C   0  0  2  0  0  0  0  0  0  0  0  0
    1.3822   -5.5379   17.1260 O   0  0  0  0  0  0  0  0  0  0  0  0
    4.0815   -9.3024   16.3002 C   0  0  2  0  0  0  0  0  0  0  0  0
    4.7967   -8.1170   16.8326 N   0  0  0  0  0  0  0  0  0  0  0  0
   -3.2036   -5.8092   14.6131 C   0  0  1  0  0  0  0  0  0  0  0  0
   -2.9246   -6.8307   13.6589 O   0  0  0  0  0  0  0  0  0  0  0  0
   -2.7157   -3.1516   19.4543 C   0  0  2  0  0  0  0  0  0  0  0  0
   -4.1340   -2.7589   19.5888 N   0  0  0  0  0  0  0  0  0  0  0  0
    1.9160   -7.9063   17.4051 C   0  0  2  0  0  0  0  0  0  0  0  0
    2.0698   -7.8796   15.9586 O   0  0  0  0  0  0  0  0  0  0  0  0
    5.0608  -10.2794   15.5795 C   0  0  1  0  0  0  0  0  0  0  0  0
    4.4428  -11.5619   15.4970 O   0  0  0  0  0  0  0  0  0  0  0  0
   -4.3340   -4.9089   14.0548 C   0  0  2  0  0  0  0  0  0  0  0  0
   -3.8838   -4.2876   12.8547 O   0  0  0  0  0  0  0  0  0  0  0  0
   -2.5750   -4.6020   18.8672 C   0  0  2  0  0  0  0  0  0  0  0  0
    1.0249   -9.0812   17.8315 C   0  0  2  0  0  0  0  0  0  0  0  0
   -0.3290   -8.5915   17.7764 O   0  0  0  0  0  0  0  0  0  0  0  0
    5.4571   -9.8354   14.1388 C   0  0  2  0  0  0  0  0  0  0  0  0
    6.3579   -8.7309   14.2356 O   0  0  0  0  0  0  0  0  0  0  0  0
   -4.7409   -3.8379   15.1063 C   0  0  2  0  0  0  0  0  0  0  0  0
   -5.0866   -4.5039   16.3580 O   0  0  0  0  0  0  0  0  0  0  0  0
   -1.1147   -5.1708   18.9857 C   0  0  2  0  0  0  0  0  0  0  0  0
   -1.1654   -6.5999   18.7374 O   0  0  0  0  0  0  0  0  0  0  0  0
    1.3436   -9.5974   19.2460 C   0  0  0  0  0  0  0  0  0  0  0  0
    2.7032   -9.3684   19.5728 O   0  0  0  0  0  0  0  0  0  0  0  0
    4.1943   -9.4304   13.3169 C   0  0  1  0  0  0  0  0  0  0  0  0
    3.4092   -8.4574   14.0715 O   0  0  0  0  0  0  0  0  0  0  0  0
   -5.9600   -2.9737   14.7138 C   0  0  0  0  0  0  0  0  0  0  0  0
   -5.7028   -2.2242   13.5384 O   0  0  0  0  0  0  0  0  0  0  0  0
   -0.4836   -4.9391   20.3937 C   0  0  1  0  0  0  0  0  0  0  0  0
    0.8878   -5.3307   20.3523 O   0  0  0  0  0  0  0  0  0  0  0  0
    4.5491   -8.8293   11.9327 C   0  0  0  0  0  0  0  0  0  0  0  0
    5.8146   -8.0737   11.9545 N   0  0  0  0  0  0  0  0  0  0  0  0
  1  2  1  6  0  0  0
  1  7  1  0  0  0  0
  1 30  1  0  0  0  0
  3  4  1  1  0  0  0
  3  9  1  0  0  0  0
  3 39  1  0  0  0  0
  5 10  1  0  0  0  0
  5 26  1  0  0  0  0
  5 32  1  1  0  0  0
  6 12  1  0  0  0  0
  6 36  1  0  0  0  0
  6 19  1  1  0  0  0
  7  8  1  1  0  0  0
  7 14  1  0  0  0  0
  9 16  1  0  0  0  0
 10 11  1  6  0  0  0
 10 18  1  0  0  0  0
 12 13  1  6  0  0  0
 12 20  1  0  0  0  0
 14 15  1  6  0  0  0
 14 22  1  0  0  0  0
 16 17  1  1  0  0  0
 16 24  1  0  0  0  0
 18 19  1  6  0  0  0
 18 25  1  0  0  0  0
 20 21  1  6  0  0  0
 20 27  1  0  0  0  0
 22 23  1  6  0  0  0
 22 29  1  0  0  0  0
 24  2  1  6  0  0  0
 24 31  1  0  0  0  0
 25 26  1  0  0  0  0
 25 33  1  1  0  0  0
 27 28  1  1  0  0  0
 27 35  1  0  0  0  0
 29 30  1  0  0  0  0
 29 37  1  6  0  0  0
 31 32  1  1  0  0  0
 31 39  1  0  0  0  0
 33 34  1  0  0  0  0
 35 36  1  0  0  0  0
 35 41  1  6  0  0  0
 37 38  1  0  0  0  0
 39 40  1  6  0  0  0
 41 42  1  0  0  0  0
M  END
>  <CHROM.1>
-114.14759431,-120.47415820,-60.09560942,111.43401394,53.78862179,-153.29020724
-57.41195861,-58.98532997,175.39870160,-34.52349717,-58.67478264,-169.19751549
-28.38530980,60.25676062,-62.03665630,124.61414826,52.12680196,-54.04543861
-32.76455674,-63.08444691,165.07497976,56.74247276,0.00317039,-6.53520528
16.68964460,2.82906373,-0.52930949,1.36563880

>  <Name>
1fyp_lig

>  <RI>
0

>  <Rbt.Current_Directory>
/home/afrankz/demos/rdock_decoys_rna/rnas/1fyp

>  <Rbt.Executable>
rbdock ($Id: //depot/dev/client3/rdock/2013.1/src/exe/rbdock.cxx#4 $)

>  <Rbt.Library>
libRbt.so (2013.1, Build901 2013/11/27)

>  <Rbt.Parameter_File>
/export/apps/rDock/src/rDock_2013.1_src/data/scripts/dock_solv.prm

>  <Rbt.Receptor>
prm/blind_docking_20.prm

>  <SCORE>
17.4598

>  <SCORE.INTER>
-20.8793

>  <SCORE.INTER.CONST>
1

>  <SCORE.INTER.POLAR>
-5.04927

>  <SCORE.INTER.ROT>
14

>  <SCORE.INTER.SOLV>
19.4592

>  <SCORE.INTER.VDW>
-16.5084

>  <SCORE.INTER.norm>
-0.497126

>  <SCORE.INTRA>
7.90189

>  <SCORE.INTRA.DIHEDRAL>
-13.4631

>  <SCORE.INTRA.DIHEDRAL.0>
48.7173

>  <SCORE.INTRA.POLAR>
1.08768

>  <SCORE.INTRA.POLAR.0>
-1.54691

>  <SCORE.INTRA.REPUL>
0

>  <SCORE.INTRA.REPUL.0>
0

>  <SCORE.INTRA.SOLV>
1.30762

>  <SCORE.INTRA.SOLV.lig_0>
-64.052

>  <SCORE.INTRA.VDW>
10.2815

>  <SCORE.INTRA.VDW.0>
-7.0667

>  <SCORE.INTRA.norm>
0.18814

>  <SCORE.RESTR>
30.4372

>  <SCORE.RESTR.CAVITY>
30.4372

>  <SCORE.RESTR.norm>
0.724695

>  <SCORE.SYSTEM>
0

>  <SCORE.SYSTEM.CONST>
0

>  <SCORE.SYSTEM.DIHEDRAL>
0

>  <SCORE.SYSTEM.SOLV>
0

>  <SCORE.SYSTEM.norm>
0

>  <SCORE.heavy>
42

>  <SCORE.norm>
0.415709

>  <RMSD>
17.104

$$$$
1fyp_lig
 OpenBabel11021811393D
libRbt.so/2013.1/901 2013/11/27
 42 45  0  0  0  0  0  0  0  0999 V2000
    1.5804   -8.6228   16.2408 C   0  0  2  0  0  0  0  0  0  0  0  0
    1.6437   -7.1674   16.2322 O   0  0  0  0  0  0  0  0  0  0  0  0
   -0.3933   -6.0209   19.8067 C   0  0  2  0  0  0  0  0  0  0  0  0
   -1.2319   -5.3823   20.8378 N   0  0  0  0  0  0  0  0  0  0  0  0
   -1.9559   -6.8966   15.7525 C   0  0  1  0  0  0  0  0  0  0  0  0
   -4.1234   -4.4856   14.0216 C   0  0  1  0  0  0  0  0  0  0  0  0
    2.5735   -9.2328   17.2818 C   0  0  2  0  0  0  0  0  0  0  0  0
    2.4115   -8.6038   18.6099 N   0  0  0  0  0  0  0  0  0  0  0  0
    0.4986   -4.9554   19.1387 C   0  0  0  0  0  0  0  0  0  0  0  0
   -2.0506   -7.4263   14.3192 C   0  0  2  0  0  0  0  0  0  0  0  0
   -0.9672   -6.9081   13.5465 O   0  0  0  0  0  0  0  0  0  0  0  0
   -5.6243   -4.8833   13.8796 C   0  0  2  0  0  0  0  0  0  0  0  0
   -5.9770   -5.3007   12.5006 N   0  0  0  0  0  0  0  0  0  0  0  0
    4.0487   -9.0915   16.7921 C   0  0  1  0  0  0  0  0  0  0  0  0
    4.9274   -9.7900   17.6706 O   0  0  0  0  0  0  0  0  0  0  0  0
    1.4317   -5.5644   18.0566 C   0  0  2  0  0  0  0  0  0  0  0  0
    2.1782   -4.4548   17.4280 N   0  0  0  0  0  0  0  0  0  0  0  0
   -3.3902   -6.8456   13.8581 C   0  0  2  0  0  0  0  0  0  0  0  0
   -3.2544   -5.4703   13.4035 O   0  0  0  0  0  0  0  0  0  0  0  0
   -6.5532   -3.7342   14.3795 C   0  0  1  0  0  0  0  0  0  0  0  0
   -6.4887   -3.6859   15.8032 O   0  0  0  0  0  0  0  0  0  0  0  0
    4.2365   -9.6514   15.3598 C   0  0  2  0  0  0  0  0  0  0  0  0
    5.5751   -9.4091   14.9375 O   0  0  0  0  0  0  0  0  0  0  0  0
    0.6534   -6.4113   16.9866 C   0  0  2  0  0  0  0  0  0  0  0  0
   -4.2279   -6.9092   15.1429 C   0  0  2  0  0  0  0  0  0  0  0  0
   -3.3001   -6.7255   16.2297 O   0  0  0  0  0  0  0  0  0  0  0  0
   -6.1778   -2.3261   13.8262 C   0  0  2  0  0  0  0  0  0  0  0  0
   -6.5544   -2.2638   12.4496 O   0  0  0  0  0  0  0  0  0  0  0  0
    3.2255   -8.9866   14.3829 C   0  0  2  0  0  0  0  0  0  0  0  0
    1.8735   -9.1560   14.9055 O   0  0  0  0  0  0  0  0  0  0  0  0
   -0.3816   -7.4051   17.6279 C   0  0  2  0  0  0  0  0  0  0  0  0
   -1.2648   -7.8772   16.5775 O   0  0  0  0  0  0  0  0  0  0  0  0
   -4.9787   -8.2425   15.3078 C   0  0  0  0  0  0  0  0  0  0  0  0
   -5.9489   -8.4054   14.2881 O   0  0  0  0  0  0  0  0  0  0  0  0
   -4.6478   -2.0608   13.9788 C   0  0  1  0  0  0  0  0  0  0  0  0
   -3.8973   -3.1734   13.4032 O   0  0  0  0  0  0  0  0  0  0  0  0
    3.2237   -9.5726   12.9533 C   0  0  0  0  0  0  0  0  0  0  0  0
    3.1636  -10.9887   12.9774 O   0  0  0  0  0  0  0  0  0  0  0  0
   -1.2522   -6.7429   18.7406 C   0  0  1  0  0  0  0  0  0  0  0  0
   -2.0331   -7.7543   19.3754 O   0  0  0  0  0  0  0  0  0  0  0  0
   -4.1987   -0.7423   13.2984 C   0  0  0  0  0  0  0  0  0  0  0  0
   -4.8217    0.4466   13.9080 N   0  0  0  0  0  0  0  0  0  0  0  0
  1  2  1  6  0  0  0
  1  7  1  0  0  0  0
  1 30  1  0  0  0  0
  3  4  1  1  0  0  0
  3  9  1  0  0  0  0
  3 39  1  0  0  0  0
  5 10  1  0  0  0  0
  5 26  1  0  0  0  0
  5 32  1  1  0  0  0
  6 12  1  0  0  0  0
  6 36  1  0  0  0  0
  6 19  1  6  0  0  0
  7  8  1  1  0  0  0
  7 14  1  0  0  0  0
  9 16  1  0  0  0  0
 10 11  1  6  0  0  0
 10 18  1  0  0  0  0
 12 13  1  6  0  0  0
 12 20  1  0  0  0  0
 14 15  1  1  0  0  0
 14 22  1  0  0  0  0
 16 17  1  6  0  0  0
 16 24  1  0  0  0  0
 18 19  1  1  0  0  0
 18 25  1  0  0  0  0
 20 21  1  1  0  0  0
 20 27  1  0  0  0  0
 22 23  1  6  0  0  0
 22 29  1  0  0  0  0
 24  2  1  1  0  0  0
 24 31  1  0  0  0  0
 25 26  1  0  0  0  0
 25 33  1  1  0  0  0
 27 28  1  6  0  0  0
 27 35  1  0  0  0  0
 29 30  1  0  0  0  0
 29 37  1  6  0  0  0
 31 32  1  6  0  0  0
 31 39  1  0  0  0  0
 33 34  1  0  0  0  0
 35 36  1  0  0  0  0
 35 41  1  6  0  0  0
 37 38  1  0  0  0  0
 39 40  1  1  0  0  0
 41 42  1  0  0  0  0
M  END
>  <CHROM.1>
-97.89201617,119.59755747,-174.30278238,51.49967861,-178.48962414,-17.17614415
-60.90023977,-60.66059813,-125.84724436,-55.74813480,47.18023269,176.93534870
-64.97932003,-32.26964338,48.28121927,-53.68597238,144.01794282,70.94595526
63.21613256,178.29254451,-59.76726802,-136.13326238,-1.24392861,-6.41571630
15.60513487,-0.00590118,0.60735530,-1.98050490

>  <Name>
1fyp_lig

>  <RI>
0

>  <Rbt.Current_Directory>
/home/afrankz/demos/rdock_decoys_rna/rnas/1fyp

>  <Rbt.Executable>
rbdock ($Id: //depot/dev/client3/rdock/2013.1/src/exe/rbdock.cxx#4 $)

>  <Rbt.Library>
libRbt.so (2013.1, Build901 2013/11/27)

>  <Rbt.Parameter_File>
/export/apps/rDock/src/rDock_2013.1_src/data/scripts/dock_solv.prm

>  <Rbt.Receptor>
prm/blind_docking_20.prm

>  <SCORE>
24.6996

>  <SCORE.INTER>
-9.53136

>  <SCORE.INTER.CONST>
1

>  <SCORE.INTER.POLAR>
-2.50323

>  <SCORE.INTER.ROT>
14

>  <SCORE.INTER.SOLV>
14.4253

>  <SCORE.INTER.VDW>
-15.7519

>  <SCORE.INTER.norm>
-0.226937

>  <SCORE.INTRA>
2.41548

>  <SCORE.INTRA.DIHEDRAL>
-14.8804

>  <SCORE.INTRA.DIHEDRAL.0>
48.7173

>  <SCORE.INTRA.POLAR>
0.700138

>  <SCORE.INTRA.POLAR.0>
-1.54691

>  <SCORE.INTRA.REPUL>
0

>  <SCORE.INTRA.REPUL.0>
0

>  <SCORE.INTRA.SOLV>
-1.14697

>  <SCORE.INTRA.SOLV.lig_0>
-64.052

>  <SCORE.INTRA.VDW>
8.04872

>  <SCORE.INTRA.VDW.0>
-7.0667

>  <SCORE.INTRA.norm>
0.0575115

>  <SCORE.RESTR>
31.8155

>  <SCORE.RESTR.CAVITY>
31.8155

>  <SCORE.RESTR.norm>
0.757512

>  <SCORE.SYSTEM>
0

>  <SCORE.SYSTEM.CONST>
0

>  <SCORE.SYSTEM.DIHEDRAL>
0

>  <SCORE.SYSTEM.SOLV>
0

>  <SCORE.SYSTEM.norm>
0

>  <SCORE.heavy>
42

>  <SCORE.norm>
0.588086

>  <RMSD>
17.163

$$$$
1fyp_lig
 OpenBabel11021811393D
libRbt.so/2013.1/901 2013/11/27
 42 45  0  0  0  0  0  0  0  0999 V2000
   -4.2470   -5.4100   16.9508 C   0  0  2  0  0  0  0  0  0  0  0  0
   -3.0518   -4.7274   17.4283 O   0  0  0  0  0  0  0  0  0  0  0  0
   -0.4981   -4.0537   20.7847 C   0  0  2  0  0  0  0  0  0  0  0  0
    0.1370   -3.9901   22.1140 N   0  0  0  0  0  0  0  0  0  0  0  0
   -0.2942   -7.6667   17.7920 C   0  0  1  0  0  0  0  0  0  0  0  0
    3.0970   -8.7640   15.4363 C   0  0  1  0  0  0  0  0  0  0  0  0
   -3.8856   -6.6820   16.1181 C   0  0  2  0  0  0  0  0  0  0  0  0
   -2.9346   -7.5479   16.8472 N   0  0  0  0  0  0  0  0  0  0  0  0
   -1.9310   -3.4918   20.8734 C   0  0  0  0  0  0  0  0  0  0  0  0
   -0.2327   -7.1454   16.3539 C   0  0  2  0  0  0  0  0  0  0  0  0
   -0.9700   -8.0190   15.4977 O   0  0  0  0  0  0  0  0  0  0  0  0
    3.4522   -8.7137   13.9189 C   0  0  2  0  0  0  0  0  0  0  0  0
    2.5280   -9.5239   13.0885 N   0  0  0  0  0  0  0  0  0  0  0  0
   -3.3008   -6.2876   14.7258 C   0  0  1  0  0  0  0  0  0  0  0  0
   -3.1252   -7.4496   13.9192 O   0  0  0  0  0  0  0  0  0  0  0  0
   -2.6529   -3.5029   19.4982 C   0  0  2  0  0  0  0  0  0  0  0  0
   -4.0348   -3.0240   19.7099 N   0  0  0  0  0  0  0  0  0  0  0  0
    1.2682   -7.2143   16.0592 C   0  0  2  0  0  0  0  0  0  0  0  0
    1.6781   -8.5504   15.6549 O   0  0  0  0  0  0  0  0  0  0  0  0
    4.9376   -9.1269   13.6820 C   0  0  1  0  0  0  0  0  0  0  0  0
    5.7798   -8.0644   14.1240 O   0  0  0  0  0  0  0  0  0  0  0  0
   -4.2253   -5.2994   13.9714 C   0  0  2  0  0  0  0  0  0  0  0  0
   -3.5943   -4.9078   12.7560 O   0  0  0  0  0  0  0  0  0  0  0  0
   -2.6341   -4.9155   18.8109 C   0  0  2  0  0  0  0  0  0  0  0  0
    1.8802   -6.8504   17.4191 C   0  0  2  0  0  0  0  0  0  0  0  0
    0.9615   -7.3463   18.4120 O   0  0  0  0  0  0  0  0  0  0  0  0
    5.3627  -10.4284   14.4271 C   0  0  2  0  0  0  0  0  0  0  0  0
    4.7669  -11.5456   13.7656 O   0  0  0  0  0  0  0  0  0  0  0  0
   -4.5256   -4.0571   14.8573 C   0  0  2  0  0  0  0  0  0  0  0  0
   -5.0649   -4.5023   16.1382 O   0  0  0  0  0  0  0  0  0  0  0  0
   -1.2148   -5.5900   18.8381 C   0  0  2  0  0  0  0  0  0  0  0  0
   -1.3745   -6.9916   18.4970 O   0  0  0  0  0  0  0  0  0  0  0  0
    2.0889   -5.3364   17.6007 C   0  0  0  0  0  0  0  0  0  0  0  0
    0.8460   -4.6584   17.6566 O   0  0  0  0  0  0  0  0  0  0  0  0
    4.9131  -10.3839   15.9205 C   0  0  1  0  0  0  0  0  0  0  0  0
    3.4903  -10.0634   15.9950 O   0  0  0  0  0  0  0  0  0  0  0  0
   -5.5552   -3.0702   14.2630 C   0  0  0  0  0  0  0  0  0  0  0  0
   -5.4231   -1.7807   14.8368 O   0  0  0  0  0  0  0  0  0  0  0  0
   -0.5249   -5.5001   20.2347 C   0  0  1  0  0  0  0  0  0  0  0  0
    0.8133   -5.9812   20.1176 O   0  0  0  0  0  0  0  0  0  0  0  0
    5.1698  -11.7205   16.6625 C   0  0  0  0  0  0  0  0  0  0  0  0
    4.5025  -12.8628   16.0122 N   0  0  0  0  0  0  0  0  0  0  0  0
  1  2  1  6  0  0  0
  1  7  1  0  0  0  0
  1 30  1  0  0  0  0
  3  4  1  1  0  0  0
  3  9  1  0  0  0  0
  3 39  1  0  0  0  0
  5 10  1  0  0  0  0
  5 26  1  0  0  0  0
  5 32  1  1  0  0  0
  6 12  1  0  0  0  0
  6 36  1  0  0  0  0
  6 19  1  6  0  0  0
  7  8  1  1  0  0  0
  7 14  1  0  0  0  0
  9 16  1  0  0  0  0
 10 11  1  6  0  0  0
 10 18  1  0  0  0  0
 12 13  1  6  0  0  0
 12 20  1  0  0  0  0
 14 15  1  6  0  0  0
 14 22  1  0  0  0  0
 16 17  1  1  0  0  0
 16 24  1  0  0  0  0
 18 19  1  1  0  0  0
 18 25  1  0  0  0  0
 20 21  1  1  0  0  0
 20 27  1  0  0  0  0
 22 23  1  6  0  0  0
 22 29  1  0  0  0  0
 24  2  1  6  0  0  0
 24 31  1  0  0  0  0
 25 26  1  0  0  0  0
 25 33  1  6  0  0  0
 27 28  1  6  0  0  0
 27 35  1  0  0  0  0
 29 30  1  0  0  0  0
 29 37  1  6  0  0  0
 31 32  1  1  0  0  0
 31 39  1  0  0  0  0
 33 34  1  0  0  0  0
 35 36  1  0  0  0  0
 35 41  1  6  0  0  0
 37 38  1  0  0  0  0
 39 40  1  6  0  0  0
 41 42  1  0  0  0  0
M  END
>  <CHROM.1>
-101.08513012,-119.49833223,-173.60363570,79.92160400,-65.22003723,65.43457288
-72.40914419,92.28314309,-175.91391210,-99.71396996,-173.20069401,-54.09641227
66.62896774,-44.67896007,-158.49890083,148.55934210,-71.04592793,-105.97355904
-57.24638769,-179.65344062,-34.60061464,-55.68459074,-0.18193563,-6.74094543
16.58312143,2.71097864,-0.53246139,1.16786893

>  <Name>
1fyp_lig

>  <RI>
0

>  <Rbt.Current_Directory>
/home/afrankz/demos/rdock_decoys_rna/rnas/1fyp

>  <Rbt.Executable>
rbdock ($Id: //depot/dev/client3/rdock/2013.1/src/exe/rbdock.cxx#4 $)

>  <Rbt.Library>
libRbt.so (2013.1, Build901 2013/11/27)

>  <Rbt.Parameter_File>
/export/apps/rDock/src/rDock_2013.1_src/data/scripts/dock_solv.prm

>  <Rbt.Receptor>
prm/blind_docking_20.prm

>  <SCORE>
36.5217

>  <SCORE.INTER>
2.34459

>  <SCORE.INTER.CONST>
1

>  <SCORE.INTER.POLAR>
-2.13219

>  <SCORE.INTER.ROT>
14

>  <SCORE.INTER.SOLV>
15.5686

>  <SCORE.INTER.VDW>
-9.4525

>  <SCORE.INTER.norm>
0.0558236

>  <SCORE.INTRA>
4.64204

>  <SCORE.INTRA.DIHEDRAL>
-10.6242

>  <SCORE.INTRA.DIHEDRAL.0>
48.7173

>  <SCORE.INTRA.POLAR>
-0.857054

>  <SCORE.INTRA.POLAR.0>
-1.54691

>  <SCORE.INTRA.REPUL>
0.00340054

>  <SCORE.INTRA.REPUL.0>
0

>  <SCORE.INTRA.SOLV>
4.20422

>  <SCORE.INTRA.SOLV.lig_0>
-64.052

>  <SCORE.INTRA.VDW>
10.749

>  <SCORE.INTRA.VDW.0>
-7.0667

>  <SCORE.INTRA.norm>
0.110525

>  <SCORE.RESTR>
29.535

>  <SCORE.RESTR.CAVITY>
29.535

>  <SCORE.RESTR.norm>
0.703215

>  <SCORE.SYSTEM>
0

>  <SCORE.SYSTEM.CONST>
0

>  <SCORE.SYSTEM.DIHEDRAL>
0

>  <SCORE.SYSTEM.SOLV>
0

>  <SCORE.SYSTEM.norm>
0

>  <SCORE.heavy>
42

>  <SCORE.norm>
0.869564

>  <RMSD>
17.181

$$$$
1fyp_lig
 OpenBabel11021811393D
libRbt.so/2013.1/901 2013/11/27
 42 45  0  0  0  0  0  0  0  0999 V2000
   -4.0202   -4.9283   17.3365 C   0  0  2  0  0  0  0  0  0  0  0  0
   -2.7989   -4.1952   17.6423 O   0  0  0  0  0  0  0  0  0  0  0  0
   -0.1164   -3.0342   20.7563 C   0  0  2  0  0  0  0  0  0  0  0  0
    0.6103   -2.8371   22.0242 N   0  0  0  0  0  0  0  0  0  0  0  0
    0.0774   -6.5575   17.4116 C   0  0  1  0  0  0  0  0  0  0  0  0
    3.0038   -8.8912   14.9854 C   0  0  1  0  0  0  0  0  0  0  0  0
   -3.7116   -6.3943   16.8918 C   0  0  2  0  0  0  0  0  0  0  0  0
   -2.8157   -7.0694   17.8546 N   0  0  0  0  0  0  0  0  0  0  0  0
   -1.6101   -2.7155   20.9663 C   0  0  0  0  0  0  0  0  0  0  0  0
    1.1135   -7.5972   17.8467 C   0  0  2  0  0  0  0  0  0  0  0  0
    2.3656   -6.9527   18.0840 O   0  0  0  0  0  0  0  0  0  0  0  0
    4.1336   -9.2923   15.9823 C   0  0  2  0  0  0  0  0  0  0  0  0
    4.7184   -8.1234   16.6837 N   0  0  0  0  0  0  0  0  0  0  0  0
   -3.0884   -6.4219   15.4611 C   0  0  1  0  0  0  0  0  0  0  0  0
   -2.9603   -7.7668   15.0065 O   0  0  0  0  0  0  0  0  0  0  0  0
   -2.4348   -2.8763   19.6600 C   0  0  2  0  0  0  0  0  0  0  0  0
   -3.8540   -2.6283   19.9887 N   0  0  0  0  0  0  0  0  0  0  0  0
    1.1806   -8.5068   16.6169 C   0  0  2  0  0  0  0  0  0  0  0  0
    2.0641   -7.9678   15.5944 O   0  0  0  0  0  0  0  0  0  0  0  0
    5.2347  -10.1328   15.2652 C   0  0  1  0  0  0  0  0  0  0  0  0
    4.7158  -11.4362   15.0098 O   0  0  0  0  0  0  0  0  0  0  0  0
   -3.9514   -5.6373   14.4413 C   0  0  2  0  0  0  0  0  0  0  0  0
   -3.2847   -5.6213   13.1828 O   0  0  0  0  0  0  0  0  0  0  0  0
   -2.2392   -4.2810   18.9842 C   0  0  2  0  0  0  0  0  0  0  0  0
   -0.2755   -8.4988   16.1309 C   0  0  2  0  0  0  0  0  0  0  0  0
   -0.8002   -7.2016   16.4742 O   0  0  0  0  0  0  0  0  0  0  0  0
    5.7183   -9.5267   13.9129 C   0  0  2  0  0  0  0  0  0  0  0  0
    6.5294   -8.3843   14.1914 O   0  0  0  0  0  0  0  0  0  0  0  0
   -4.2012   -4.1881   14.9470 C   0  0  2  0  0  0  0  0  0  0  0  0
   -4.7800   -4.2417   16.2856 O   0  0  0  0  0  0  0  0  0  0  0  0
   -0.7301   -4.7104   18.8918 C   0  0  2  0  0  0  0  0  0  0  0  0
   -0.6822   -6.1263   18.5765 O   0  0  0  0  0  0  0  0  0  0  0  0
   -1.1323   -9.6034   16.7748 C   0  0  0  0  0  0  0  0  0  0  0  0
   -1.6643  -10.4697   15.7879 O   0  0  0  0  0  0  0  0  0  0  0  0
    4.5035   -9.1206   13.0220 C   0  0  1  0  0  0  0  0  0  0  0  0
    3.5929   -8.2757   13.7897 O   0  0  0  0  0  0  0  0  0  0  0  0
   -5.1714   -3.3563   14.0787 C   0  0  0  0  0  0  0  0  0  0  0  0
   -5.3922   -2.0729   14.6386 O   0  0  0  0  0  0  0  0  0  0  0  0
    0.0518   -4.4768   20.2216 C   0  0  1  0  0  0  0  0  0  0  0  0
    1.4365   -4.7321   19.9911 O   0  0  0  0  0  0  0  0  0  0  0  0
    4.9302   -8.3666   11.7365 C   0  0  0  0  0  0  0  0  0  0  0  0
    5.9999   -9.0660   11.0021 N   0  0  0  0  0  0  0  0  0  0  0  0
  1  2  1  6  0  0  0
  1  7  1  0  0  0  0
  1 30  1  0  0  0  0
  3  4  1  1  0  0  0
  3  9  1  0  0  0  0
  3 39  1  0  0  0  0
  5 10  1  0  0  0  0
  5 26  1  0  0  0  0
  5 32  1  1  0  0  0
  6 12  1  0  0  0  0
  6 36  1  0  0  0  0
  6 19  1  1  0  0  0
  7  8  1  1  0  0  0
  7 14  1  0  0  0  0
  9 16  1  0  0  0  0
 10 11  1  6  0  0  0
 10 18  1  0  0  0  0
 12 13  1  6  0  0  0
 12 20  1  0  0  0  0
 14 15  1  6  0  0  0
 14 22  1  0  0  0  0
 16 17  1  1  0  0  0
 16 24  1  0  0  0  0
 18 19  1  6  0  0  0
 18 25  1  0  0  0  0
 20 21  1  6  0  0  0
 20 27  1  0  0  0  0
 22 23  1  6  0  0  0
 22 29  1  0  0  0  0
 24  2  1  6  0  0  0
 24 31  1  0  0  0  0
 25 26  1  0  0  0  0
 25 33  1  1  0  0  0
 27 28  1  1  0  0  0
 27 35  1  0  0  0  0
 29 30  1  0  0  0  0
 29 37  1  6  0  0  0
 31 32  1  1  0  0  0
 31 39  1  0  0  0  0
 33 34  1  0  0  0  0
 35 36  1  0  0  0  0
 35 41  1  6  0  0  0
 37 38  1  0  0  0  0
 39 40  1  6  0  0  0
 41 42  1  0  0  0  0
M  END
>  <CHROM.1>
-86.68877627,-110.48188067,65.56961356,47.01741954,51.70235088,-57.40721942
47.77191533,98.35695803,134.01972646,-71.06042342,64.15744797,59.79908568
-120.31210625,49.84837771,177.34167161,125.11711743,124.22011037,171.51503763
49.70512136,-75.02675097,71.58826617,71.23967384,0.01478011,-6.54581478,16.50722867
2.55005581,-0.36144679,1.07823748

>  <Name>
1fyp_lig

>  <RI>
0

>  <Rbt.Current_Directory>
/home/afrankz/demos/rdock_decoys_rna/rnas/1fyp

>  <Rbt.Executable>
rbdock ($Id: //depot/dev/client3/rdock/2013.1/src/exe/rbdock.cxx#4 $)

>  <Rbt.Library>
libRbt.so (2013.1, Build901 2013/11/27)

>  <Rbt.Parameter_File>
/export/apps/rDock/src/rDock_2013.1_src/data/scripts/dock_solv.prm

>  <Rbt.Receptor>
prm/blind_docking_20.prm

>  <SCORE>
21.7784

>  <SCORE.INTER>
-6.5317

>  <SCORE.INTER.CONST>
1

>  <SCORE.INTER.POLAR>
-2.24986

>  <SCORE.INTER.ROT>
14

>  <SCORE.INTER.SOLV>
18.2924

>  <SCORE.INTER.VDW>
-15.8857

>  <SCORE.INTER.norm>
-0.155517

>  <SCORE.INTRA>
-0.718453

>  <SCORE.INTRA.DIHEDRAL>
-6.13338

>  <SCORE.INTRA.DIHEDRAL.0>
48.7173

>  <SCORE.INTRA.POLAR>
-0.460013

>  <SCORE.INTRA.POLAR.0>
-1.54691

>  <SCORE.INTRA.REPUL>
0.0352782

>  <SCORE.INTRA.REPUL.0>
0

>  <SCORE.INTRA.SOLV>
1.92996

>  <SCORE.INTRA.SOLV.lig_0>
-64.052

>  <SCORE.INTRA.VDW>
2.77091

>  <SCORE.INTRA.VDW.0>
-7.0667

>  <SCORE.INTRA.norm>
-0.017106

>  <SCORE.RESTR>
29.0285

>  <SCORE.RESTR.CAVITY>
29.0285

>  <SCORE.RESTR.norm>
0.691155

>  <SCORE.SYSTEM>
0

>  <SCORE.SYSTEM.CONST>
0

>  <SCORE.SYSTEM.DIHEDRAL>
0

>  <SCORE.SYSTEM.SOLV>
0

>  <SCORE.SYSTEM.norm>
0

>  <SCORE.heavy>
42

>  <SCORE.norm>
0.518532

>  <RMSD>
17.189

$$$$
1fyp_lig
 OpenBabel11021811393D
libRbt.so/2013.1/901 2013/11/27
 42 45  0  0  0  0  0  0  0  0999 V2000
   -4.1738   -4.9317   16.9988 C   0  0  2  0  0  0  0  0  0  0  0  0
   -3.0479   -4.1332   17.4649 O   0  0  0  0  0  0  0  0  0  0  0  0
   -0.4973   -3.2568   20.7765 C   0  0  2  0  0  0  0  0  0  0  0  0
    0.1599   -3.1513   22.0924 N   0  0  0  0  0  0  0  0  0  0  0  0
    0.1216   -6.8540   18.0098 C   0  0  1  0  0  0  0  0  0  0  0  0
    3.0028   -9.6353   16.0685 C   0  0  1  0  0  0  0  0  0  0  0  0
   -3.6974   -6.1427   16.1336 C   0  0  2  0  0  0  0  0  0  0  0  0
   -2.6428   -6.9141   16.8253 N   0  0  0  0  0  0  0  0  0  0  0  0
   -1.9786   -2.8501   20.9090 C   0  0  0  0  0  0  0  0  0  0  0  0
   -0.1746   -8.2855   17.5551 C   0  0  2  0  0  0  0  0  0  0  0  0
    0.0710   -9.1891   18.6334 O   0  0  0  0  0  0  0  0  0  0  0  0
    4.3677   -9.9640   16.7468 C   0  0  2  0  0  0  0  0  0  0  0  0
    4.9941   -8.7757   17.3759 N   0  0  0  0  0  0  0  0  0  0  0  0
   -3.1902   -5.6633   14.7375 C   0  0  1  0  0  0  0  0  0  0  0  0
   -2.9097   -6.7853   13.9044 O   0  0  0  0  0  0  0  0  0  0  0  0
   -2.7287   -2.9117   19.5504 C   0  0  2  0  0  0  0  0  0  0  0  0
   -4.1475   -2.5845   19.8029 N   0  0  0  0  0  0  0  0  0  0  0  0
    0.8450   -8.4741   16.4285 C   0  0  2  0  0  0  0  0  0  0  0  0
    2.1545   -8.8455   16.9422 O   0  0  0  0  0  0  0  0  0  0  0  0
    5.3391  -10.6495   15.7370 C   0  0  1  0  0  0  0  0  0  0  0  0
    4.8940  -11.9861   15.5158 O   0  0  0  0  0  0  0  0  0  0  0  0
   -4.2321   -4.7670   14.0225 C   0  0  2  0  0  0  0  0  0  0  0  0
   -3.6746   -4.2885   12.8022 O   0  0  0  0  0  0  0  0  0  0  0  0
   -2.5792   -4.3017   18.8336 C   0  0  2  0  0  0  0  0  0  0  0  0
    0.8896   -7.0755   15.7974 C   0  0  2  0  0  0  0  0  0  0  0  0
    0.6428   -6.1482   16.8722 O   0  0  0  0  0  0  0  0  0  0  0  0
    5.4324   -9.9317   14.3564 C   0  0  2  0  0  0  0  0  0  0  0  0
    6.1801   -8.7257   14.5211 O   0  0  0  0  0  0  0  0  0  0  0  0
   -4.6434   -3.5800   14.9390 C   0  0  2  0  0  0  0  0  0  0  0  0
   -5.1025   -4.1030   16.2218 O   0  0  0  0  0  0  0  0  0  0  0  0
   -1.0969   -4.8239   18.8150 C   0  0  2  0  0  0  0  0  0  0  0  0
   -1.1175   -6.2281   18.4484 O   0  0  0  0  0  0  0  0  0  0  0  0
   -0.1541   -6.8833   14.6827 C   0  0  0  0  0  0  0  0  0  0  0  0
   -0.0858   -7.9385   13.7395 O   0  0  0  0  0  0  0  0  0  0  0  0
    4.0098   -9.6121   13.8010 C   0  0  1  0  0  0  0  0  0  0  0  0
    3.2344   -8.9048   14.8163 O   0  0  0  0  0  0  0  0  0  0  0  0
   -5.7859   -2.6991   14.3861 C   0  0  0  0  0  0  0  0  0  0  0  0
   -7.0500   -3.3070   14.5911 O   0  0  0  0  0  0  0  0  0  0  0  0
   -0.3862   -4.6877   20.1974 C   0  0  1  0  0  0  0  0  0  0  0  0
    0.9916   -5.0234   20.0404 O   0  0  0  0  0  0  0  0  0  0  0  0
    4.0506   -8.7565   12.5089 C   0  0  0  0  0  0  0  0  0  0  0  0
    5.4175   -8.3291   12.1594 N   0  0  0  0  0  0  0  0  0  0  0  0
  1  2  1  6  0  0  0
  1  7  1  0  0  0  0
  1 30  1  0  0  0  0
  3  4  1  1  0  0  0
  3  9  1  0  0  0  0
  3 39  1  0  0  0  0
  5 10  1  0  0  0  0
  5 26  1  0  0  0  0
  5 32  1  6  0  0  0
  6 12  1  0  0  0  0
  6 36  1  0  0  0  0
  6 19  1  1  0  0  0
  7  8  1  1  0  0  0
  7 14  1  0  0  0  0
  9 16  1  0  0  0  0
 10 11  1  1  0  0  0
 10 18  1  0  0  0  0
 12 13  1  6  0  0  0
 12 20  1  0  0  0  0
 14 15  1  6  0  0  0
 14 22  1  0  0  0  0
 16 17  1  1  0  0  0
 16 24  1  0  0  0  0
 18 19  1  1  0  0  0
 18 25  1  0  0  0  0
 20 21  1  6  0  0  0
 20 27  1  0  0  0  0
 22 23  1  6  0  0  0
 22 29  1  0  0  0  0
 24  2  1  6  0  0  0
 24 31  1  0  0  0  0
 25 26  1  0  0  0  0
 25 33  1  6  0  0  0
 27 28  1  1  0  0  0
 27 35  1  0  0  0  0
 29 30  1  0  0  0  0
 29 37  1  6  0  0  0
 31 32  1  1  0  0  0
 31 39  1  0  0  0  0
 33 34  1  0  0  0  0
 35 36  1  0  0  0  0
 35 41  1  6  0  0  0
 37 38  1  0  0  0  0
 39 40  1  6  0  0  0
 41 42  1  0  0  0  0
M  END
>  <CHROM.1>
-100.95363367,-119.69467556,63.44516039,-178.80415581,-56.35834345,62.20310790
-168.31319726,-30.22772605,152.00248283,-179.78105133,67.83495513,75.65902313
-50.81794828,-179.23177700,79.17474672,163.58879604,-174.68722511,71.91755226
-5.28913100,-56.03362941,-63.11746522,-115.05639548,-0.18528270,-6.49103312
16.51187988,2.74830357,-0.51307772,1.22351041

>  <Name>
1fyp_lig

>  <RI>
0

>  <Rbt.Current_Directory>
/home/afrankz/demos/rdock_decoys_rna/rnas/1fyp

>  <Rbt.Executable>
rbdock ($Id: //depot/dev/client3/rdock/2013.1/src/exe/rbdock.cxx#4 $)

>  <Rbt.Library>
libRbt.so (2013.1, Build901 2013/11/27)

>  <Rbt.Parameter_File>
/export/apps/rDock/src/rDock_2013.1_src/data/scripts/dock_solv.prm

>  <Rbt.Receptor>
prm/blind_docking_20.prm

>  <SCORE>
31.9273

>  <SCORE.INTER>
5.09666

>  <SCORE.INTER.CONST>
1

>  <SCORE.INTER.POLAR>
-2.43425

>  <SCORE.INTER.ROT>
14

>  <SCORE.INTER.SOLV>
16.5308

>  <SCORE.INTER.VDW>
-6.93166

>  <SCORE.INTER.norm>
0.121349

>  <SCORE.INTRA>
-0.627714

>  <SCORE.INTRA.DIHEDRAL>
-17.8652

>  <SCORE.INTRA.DIHEDRAL.0>
48.7173

>  <SCORE.INTRA.POLAR>
0.378851

>  <SCORE.INTRA.POLAR.0>
-1.54691

>  <SCORE.INTRA.REPUL>
0

>  <SCORE.INTRA.REPUL.0>
0

>  <SCORE.INTRA.SOLV>
0.956938

>  <SCORE.INTRA.SOLV.lig_0>
-64.052

>  <SCORE.INTRA.VDW>
6.5383

>  <SCORE.INTRA.VDW.0>
-7.0667

>  <SCORE.INTRA.norm>
-0.0149456

>  <SCORE.RESTR>
27.4584

>  <SCORE.RESTR.CAVITY>
27.4584

>  <SCORE.RESTR.norm>
0.653771

>  <SCORE.SYSTEM>
0

>  <SCORE.SYSTEM.CONST>
0

>  <SCORE.SYSTEM.DIHEDRAL>
0

>  <SCORE.SYSTEM.SOLV>
0

>  <SCORE.SYSTEM.norm>
0

>  <SCORE.heavy>
42

>  <SCORE.norm>
0.760174

>  <RMSD>
17.203

$$$$
1fyp_lig
 OpenBabel11021811393D
libRbt.so/2013.1/901 2013/11/27
 42 45  0  0  0  0  0  0  0  0999 V2000
   -3.8711   -4.9897   17.1405 C   0  0  2  0  0  0  0  0  0  0  0  0
   -2.6477   -4.2884   17.5064 O   0  0  0  0  0  0  0  0  0  0  0  0
   -0.1111   -3.2206   20.7723 C   0  0  2  0  0  0  0  0  0  0  0  0
    0.5700   -3.0774   22.0724 N   0  0  0  0  0  0  0  0  0  0  0  0
    0.6798   -6.5707   17.5678 C   0  0  1  0  0  0  0  0  0  0  0  0
    3.5895   -8.6435   15.1296 C   0  0  1  0  0  0  0  0  0  0  0  0
   -3.5623   -6.3365   16.4105 C   0  0  2  0  0  0  0  0  0  0  0  0
   -2.5935   -7.1508   17.1747 N   0  0  0  0  0  0  0  0  0  0  0  0
   -1.6236   -2.9860   20.9570 C   0  0  0  0  0  0  0  0  0  0  0  0
    1.0850   -8.0007   17.9348 C   0  0  2  0  0  0  0  0  0  0  0  0
    2.1280   -7.9658   18.9098 O   0  0  0  0  0  0  0  0  0  0  0  0
    3.4679  -10.1944   15.0245 C   0  0  2  0  0  0  0  0  0  0  0  0
    3.8441  -10.8837   16.2829 N   0  0  0  0  0  0  0  0  0  0  0  0
   -3.0310   -6.0770   14.9660 C   0  0  1  0  0  0  0  0  0  0  0  0
   -2.9053   -7.3087   14.2597 O   0  0  0  0  0  0  0  0  0  0  0  0
   -2.4031   -3.0949   19.6180 C   0  0  2  0  0  0  0  0  0  0  0  0
   -3.8411   -2.9354   19.9186 N   0  0  0  0  0  0  0  0  0  0  0  0
    1.5950   -8.5360   16.5940 C   0  0  2  0  0  0  0  0  0  0  0  0
    2.9745   -8.1458   16.3465 O   0  0  0  0  0  0  0  0  0  0  0  0
    4.2894  -10.7353   13.8139 C   0  0  1  0  0  0  0  0  0  0  0  0
    3.6026  -10.3949   12.6114 O   0  0  0  0  0  0  0  0  0  0  0  0
   -3.9727   -5.1435   14.1647 C   0  0  2  0  0  0  0  0  0  0  0  0
   -3.3879   -4.8720   12.8946 O   0  0  0  0  0  0  0  0  0  0  0  0
   -2.1218   -4.4398   18.8562 C   0  0  2  0  0  0  0  0  0  0  0  0
    0.6527   -7.8509   15.5945 C   0  0  2  0  0  0  0  0  0  0  0  0
    0.3138   -6.5781   16.1787 O   0  0  0  0  0  0  0  0  0  0  0  0
    5.7390  -10.1692   13.7246 C   0  0  2  0  0  0  0  0  0  0  0  0
    6.5272  -10.7750   14.7505 O   0  0  0  0  0  0  0  0  0  0  0  0
   -4.2187   -3.8227   14.9478 C   0  0  2  0  0  0  0  0  0  0  0  0
   -4.7098   -4.1434   16.2841 O   0  0  0  0  0  0  0  0  0  0  0  0
   -0.5920   -4.7922   18.7818 C   0  0  2  0  0  0  0  0  0  0  0  0
   -0.4676   -6.1795   18.3742 O   0  0  0  0  0  0  0  0  0  0  0  0
   -0.6251   -8.6625   15.3167 C   0  0  0  0  0  0  0  0  0  0  0  0
   -1.1340   -9.2282   16.5120 O   0  0  0  0  0  0  0  0  0  0  0  0
    5.7390   -8.6178   13.8905 C   0  0  1  0  0  0  0  0  0  0  0  0
    5.0046   -8.2537   15.0991 O   0  0  0  0  0  0  0  0  0  0  0  0
   -5.2586   -2.8746   14.3101 C   0  0  0  0  0  0  0  0  0  0  0  0
   -6.5390   -3.0476   14.8935 O   0  0  0  0  0  0  0  0  0  0  0  0
    0.1407   -4.6142   20.1479 C   0  0  1  0  0  0  0  0  0  0  0  0
    1.5419   -4.7892   19.9436 O   0  0  0  0  0  0  0  0  0  0  0  0
    7.1691   -8.0248   13.9701 C   0  0  0  0  0  0  0  0  0  0  0  0
    7.5066   -7.2080   12.7902 N   0  0  0  0  0  0  0  0  0  0  0  0
  1  2  1  6  0  0  0
  1  7  1  0  0  0  0
  1 30  1  0  0  0  0
  3  4  1  1  0  0  0
  3  9  1  0  0  0  0
  3 39  1  0  0  0  0
  5 10  1  0  0  0  0
  5 26  1  0  0  0  0
  5 32  1  1  0  0  0
  6 12  1  0  0  0  0
  6 36  1  0  0  0  0
  6 19  1  1  0  0  0
  7  8  1  1  0  0  0
  7 14  1  0  0  0  0
  9 16  1  0  0  0  0
 10 11  1  1  0  0  0
 10 18  1  0  0  0  0
 12 13  1  1  0  0  0
 12 20  1  0  0  0  0
 14 15  1  6  0  0  0
 14 22  1  0  0  0  0
 16 17  1  1  0  0  0
 16 24  1  0  0  0  0
 18 19  1  6  0  0  0
 18 25  1  0  0  0  0
 20 21  1  6  0  0  0
 20 27  1  0  0  0  0
 22 23  1  6  0  0  0
 22 29  1  0  0  0  0
 24  2  1  6  0  0  0
 24 31  1  0  0  0  0
 25 26  1  0  0  0  0
 25 33  1  1  0  0  0
 27 28  1  1  0  0  0
 27 35  1  0  0  0  0
 29 30  1  0  0  0  0
 29 37  1  6  0  0  0
 31 32  1  1  0  0  0
 31 39  1  0  0  0  0
 33 34  1  0  0  0  0
 35 36  1  0  0  0  0
 35 41  1  1  0  0  0
 37 38  1  0  0  0  0
 39 40  1  6  0  0  0
 41 42  1  0  0  0  0
M  END
>  <CHROM.1>
-96.63563311,-106.69282185,56.46387757,-44.27792221,-65.65514932,-158.98886669
-176.99243721,100.09562448,177.42977459,-53.48013713,-50.22617944,176.68219713
41.21455983,-73.45829507,96.37403528,147.63754145,146.50052125,-51.47489718
111.93511420,75.77735504,-74.69603225,54.36720169,0.20920704,-6.57659957
16.47048377,2.64841914,-0.39651765,1.10824834

>  <Name>
1fyp_lig

>  <RI>
0

>  <Rbt.Current_Directory>
/home/afrankz/demos/rdock_decoys_rna/rnas/1fyp

>  <Rbt.Executable>
rbdock ($Id: //depot/dev/client3/rdock/2013.1/src/exe/rbdock.cxx#4 $)

>  <Rbt.Library>
libRbt.so (2013.1, Build901 2013/11/27)

>  <Rbt.Parameter_File>
/export/apps/rDock/src/rDock_2013.1_src/data/scripts/dock_solv.prm

>  <Rbt.Receptor>
prm/blind_docking_20.prm

>  <SCORE>
10.6106

>  <SCORE.INTER>
-16.1493

>  <SCORE.INTER.CONST>
1

>  <SCORE.INTER.POLAR>
-4.30052

>  <SCORE.INTER.ROT>
14

>  <SCORE.INTER.SOLV>
17.4234

>  <SCORE.INTER.VDW>
-15.1722

>  <SCORE.INTER.norm>
-0.384506

>  <SCORE.INTRA>
0.352841

>  <SCORE.INTRA.DIHEDRAL>
-12.0399

>  <SCORE.INTRA.DIHEDRAL.0>
48.7173

>  <SCORE.INTRA.POLAR>
0.337802

>  <SCORE.INTRA.POLAR.0>
-1.54691

>  <SCORE.INTRA.REPUL>
0.104863

>  <SCORE.INTRA.REPUL.0>
0

>  <SCORE.INTRA.SOLV>
1.1212

>  <SCORE.INTRA.SOLV.lig_0>
-64.052

>  <SCORE.INTRA.VDW>
4.13936

>  <SCORE.INTRA.VDW.0>
-7.0667

>  <SCORE.INTRA.norm>
0.00840097

>  <SCORE.RESTR>
26.407

>  <SCORE.RESTR.CAVITY>
26.407

>  <SCORE.RESTR.norm>
0.628739

>  <SCORE.SYSTEM>
0

>  <SCORE.SYSTEM.CONST>
0

>  <SCORE.SYSTEM.DIHEDRAL>
0

>  <SCORE.SYSTEM.SOLV>
0

>  <SCORE.SYSTEM.norm>
0

>  <SCORE.heavy>
42

>  <SCORE.norm>
0.252634

>  <RMSD>
17.250

$$$$
1fyp_lig
 OpenBabel11021811393D
libRbt.so/2013.1/901 2013/11/27
 42 45  0  0  0  0  0  0  0  0999 V2000
    2.2797   -8.4523   16.6402 C   0  0  2  0  0  0  0  0  0  0  0  0
    1.5456   -7.3403   16.0513 O   0  0  0  0  0  0  0  0  0  0  0  0
   -0.1003   -6.1357   19.8037 C   0  0  2  0  0  0  0  0  0  0  0  0
   -0.8093   -5.4683   20.9111 N   0  0  0  0  0  0  0  0  0  0  0  0
   -1.9841   -6.8956   15.8230 C   0  0  1  0  0  0  0  0  0  0  0  0
   -4.0240   -4.3852   14.0557 C   0  0  1  0  0  0  0  0  0  0  0  0
    3.8197   -8.1865   16.6384 C   0  0  2  0  0  0  0  0  0  0  0  0
    4.1365   -6.8651   17.2208 N   0  0  0  0  0  0  0  0  0  0  0  0
    0.7799   -5.1079   19.0648 C   0  0  0  0  0  0  0  0  0  0  0  0
   -2.0747   -7.4125   14.3849 C   0  0  2  0  0  0  0  0  0  0  0  0
   -0.9556   -6.9373   13.6357 O   0  0  0  0  0  0  0  0  0  0  0  0
   -5.5312   -4.7701   13.9496 C   0  0  2  0  0  0  0  0  0  0  0  0
   -5.9091   -5.2312   12.5914 N   0  0  0  0  0  0  0  0  0  0  0  0
    4.4010   -8.2950   15.1940 C   0  0  1  0  0  0  0  0  0  0  0  0
    5.8234   -8.2086   15.2287 O   0  0  0  0  0  0  0  0  0  0  0  0
    1.5798   -5.7497   17.8984 C   0  0  2  0  0  0  0  0  0  0  0  0
    2.3211   -4.6712   17.2122 N   0  0  0  0  0  0  0  0  0  0  0  0
   -3.3790   -6.7715   13.9028 C   0  0  2  0  0  0  0  0  0  0  0  0
   -3.1754   -5.4008   13.4598 O   0  0  0  0  0  0  0  0  0  0  0  0
   -6.4397   -3.5937   14.4226 C   0  0  1  0  0  0  0  0  0  0  0  0
   -6.3534   -3.4966   15.8427 O   0  0  0  0  0  0  0  0  0  0  0  0
    4.0051   -9.6287   14.5122 C   0  0  2  0  0  0  0  0  0  0  0  0
    4.4848   -9.6257   13.1711 O   0  0  0  0  0  0  0  0  0  0  0  0
    0.6666   -6.5451   16.8976 C   0  0  2  0  0  0  0  0  0  0  0  0
   -4.2426   -6.8061   15.1714 C   0  0  2  0  0  0  0  0  0  0  0  0
   -3.3284   -6.6690   16.2765 O   0  0  0  0  0  0  0  0  0  0  0  0
   -6.0571   -2.2101   13.8149 C   0  0  2  0  0  0  0  0  0  0  0  0
   -6.4535   -2.1914   12.4427 O   0  0  0  0  0  0  0  0  0  0  0  0
    2.4612   -9.8126   14.5409 C   0  0  2  0  0  0  0  0  0  0  0  0
    1.9912   -9.6964   15.9177 O   0  0  0  0  0  0  0  0  0  0  0  0
   -0.3547   -7.4939   17.6234 C   0  0  2  0  0  0  0  0  0  0  0  0
   -1.3517   -7.9100   16.6542 O   0  0  0  0  0  0  0  0  0  0  0  0
   -5.0534   -8.1065   15.3137 C   0  0  0  0  0  0  0  0  0  0  0  0
   -5.8218   -8.3527   14.1490 O   0  0  0  0  0  0  0  0  0  0  0  0
   -4.5221   -1.9574   13.9359 C   0  0  1  0  0  0  0  0  0  0  0  0
   -3.7927   -3.0980   13.3886 O   0  0  0  0  0  0  0  0  0  0  0  0
    1.9605  -11.1769   14.0165 C   0  0  0  0  0  0  0  0  0  0  0  0
    2.4237  -12.2423   14.8289 O   0  0  0  0  0  0  0  0  0  0  0  0
   -1.0870   -6.8024   18.8151 C   0  0  1  0  0  0  0  0  0  0  0  0
   -1.8571   -7.7812   19.5111 O   0  0  0  0  0  0  0  0  0  0  0  0
   -4.0687   -0.6686   13.2033 C   0  0  0  0  0  0  0  0  0  0  0  0
   -4.5750    0.5550   13.8510 N   0  0  0  0  0  0  0  0  0  0  0  0
  1  2  1  6  0  0  0
  1  7  1  0  0  0  0
  1 30  1  0  0  0  0
  3  4  1  1  0  0  0
  3  9  1  0  0  0  0
  3 39  1  0  0  0  0
  5 10  1  0  0  0  0
  5 26  1  0  0  0  0
  5 32  1  1  0  0  0
  6 12  1  0  0  0  0
  6 36  1  0  0  0  0
  6 19  1  6  0  0  0
  7  8  1  6  0  0  0
  7 14  1  0  0  0  0
  9 16  1  0  0  0  0
 10 11  1  6  0  0  0
 10 18  1  0  0  0  0
 12 13  1  6  0  0  0
 12 20  1  0  0  0  0
 14 15  1  1  0  0  0
 14 22  1  0  0  0  0
 16 17  1  6  0  0  0
 16 24  1  0  0  0  0
 18 19  1  1  0  0  0
 18 25  1  0  0  0  0
 20 21  1  1  0  0  0
 20 27  1  0  0  0  0
 22 23  1  6  0  0  0
 22 29  1  0  0  0  0
 24  2  1  6  0  0  0
 24 31  1  0  0  0  0
 25 26  1  0  0  0  0
 25 33  1  1  0  0  0
 27 28  1  6  0  0  0
 27 35  1  0  0  0  0
 29 30  1  0  0  0  0
 29 37  1  1  0  0  0
 31 32  1  6  0  0  0
 31 39  1  0  0  0  0
 33 34  1  0  0  0  0
 35 36  1  0  0  0  0
 35 41  1  6  0  0  0
 37 38  1  0  0  0  0
 39 40  1  1  0  0  0
 41 42  1  0  0  0  0
M  END
>  <CHROM.1>
-113.52015161,68.36713634,-46.09882715,99.70681501,-74.83338405,90.06194689
72.31805416,167.01985459,-126.60836783,-51.92638044,-42.63335679,-54.90368752
-53.60822694,172.22318847,63.48988427,-48.61171670,137.15384829,-68.97033024
68.18811619,176.13119827,-44.31434279,-51.23029139,-1.15995591,-6.37801308
15.49888248,-0.21555348,-0.56383171,0.83173682

>  <Name>
1fyp_lig

>  <RI>
0

>  <Rbt.Current_Directory>
/home/afrankz/demos/rdock_decoys_rna/rnas/1fyp

>  <Rbt.Executable>
rbdock ($Id: //depot/dev/client3/rdock/2013.1/src/exe/rbdock.cxx#4 $)

>  <Rbt.Library>
libRbt.so (2013.1, Build901 2013/11/27)

>  <Rbt.Parameter_File>
/export/apps/rDock/src/rDock_2013.1_src/data/scripts/dock_solv.prm

>  <Rbt.Receptor>
prm/blind_docking_20.prm

>  <SCORE>
23.4667

>  <SCORE.INTER>
-10.053

>  <SCORE.INTER.CONST>
1

>  <SCORE.INTER.POLAR>
-3.04036

>  <SCORE.INTER.ROT>
14

>  <SCORE.INTER.SOLV>
17.6932

>  <SCORE.INTER.VDW>
-15.3985

>  <SCORE.INTER.norm>
-0.239356

>  <SCORE.INTRA>
1.59639

>  <SCORE.INTRA.DIHEDRAL>
-18.3348

>  <SCORE.INTRA.DIHEDRAL.0>
48.7173

>  <SCORE.INTRA.POLAR>
0.836345

>  <SCORE.INTRA.POLAR.0>
-1.54691

>  <SCORE.INTRA.REPUL>
0

>  <SCORE.INTRA.REPUL.0>
0

>  <SCORE.INTRA.SOLV>
-0.600573

>  <SCORE.INTRA.SOLV.lig_0>
-64.052

>  <SCORE.INTRA.VDW>
8.2205

>  <SCORE.INTRA.VDW.0>
-7.0667

>  <SCORE.INTRA.norm>
0.0380092

>  <SCORE.RESTR>
31.9232

>  <SCORE.RESTR.CAVITY>
31.9232

>  <SCORE.RESTR.norm>
0.760077

>  <SCORE.SYSTEM>
0

>  <SCORE.SYSTEM.CONST>
0

>  <SCORE.SYSTEM.DIHEDRAL>
0

>  <SCORE.SYSTEM.SOLV>
0

>  <SCORE.SYSTEM.norm>
0

>  <SCORE.heavy>
42

>  <SCORE.norm>
0.55873

>  <RMSD>
17.261

$$$$
1fyp_lig
 OpenBabel11021811393D
libRbt.so/2013.1/901 2013/11/27
 42 45  0  0  0  0  0  0  0  0999 V2000
   -3.9660   -5.2732   16.9087 C   0  0  2  0  0  0  0  0  0  0  0  0
   -2.7818   -4.5612   17.3705 O   0  0  0  0  0  0  0  0  0  0  0  0
   -0.1222   -3.9302   20.6522 C   0  0  2  0  0  0  0  0  0  0  0  0
    0.5677   -3.9057   21.9552 N   0  0  0  0  0  0  0  0  0  0  0  0
    0.0535   -7.2890   17.2825 C   0  0  1  0  0  0  0  0  0  0  0  0
    3.9504   -8.6049   15.5527 C   0  0  1  0  0  0  0  0  0  0  0  0
   -3.5857   -6.4970   16.0145 C   0  0  2  0  0  0  0  0  0  0  0  0
   -2.5754   -7.3506   16.6751 N   0  0  0  0  0  0  0  0  0  0  0  0
   -1.5800   -3.4629   20.8348 C   0  0  0  0  0  0  0  0  0  0  0  0
    1.4592   -7.0076   17.8197 C   0  0  2  0  0  0  0  0  0  0  0  0
    1.9518   -5.7923   17.2541 O   0  0  0  0  0  0  0  0  0  0  0  0
    4.2126   -8.4659   14.0220 C   0  0  2  0  0  0  0  0  0  0  0  0
    3.0470   -8.8791   13.2028 N   0  0  0  0  0  0  0  0  0  0  0  0
   -3.0682   -6.0267   14.6191 C   0  0  1  0  0  0  0  0  0  0  0  0
   -2.8769   -7.1492   13.7617 O   0  0  0  0  0  0  0  0  0  0  0  0
   -2.3616   -3.4377   19.4928 C   0  0  2  0  0  0  0  0  0  0  0  0
   -3.7581   -3.0571   19.7908 N   0  0  0  0  0  0  0  0  0  0  0  0
    2.2408   -8.2184   17.3025 C   0  0  2  0  0  0  0  0  0  0  0  0
    2.6674   -8.0366   15.9235 O   0  0  0  0  0  0  0  0  0  0  0  0
    5.5012   -9.2404   13.6064 C   0  0  1  0  0  0  0  0  0  0  0  0
    6.6366   -8.5157   14.0744 O   0  0  0  0  0  0  0  0  0  0  0  0
   -4.0578   -5.0489   13.9371 C   0  0  2  0  0  0  0  0  0  0  0  0
   -3.4876   -4.5862   12.7167 O   0  0  0  0  0  0  0  0  0  0  0  0
   -2.2915   -4.8039   18.7204 C   0  0  2  0  0  0  0  0  0  0  0  0
    1.1980   -9.3406   17.4013 C   0  0  2  0  0  0  0  0  0  0  0  0
   -0.0795   -8.7151   17.1722 O   0  0  0  0  0  0  0  0  0  0  0  0
    5.5818  -10.6911   14.1711 C   0  0  2  0  0  0  0  0  0  0  0  0
    4.6531  -11.5087   13.4571 O   0  0  0  0  0  0  0  0  0  0  0  0
   -4.3740   -3.8544   14.8812 C   0  0  2  0  0  0  0  0  0  0  0  0
   -4.8481   -4.3693   16.1618 O   0  0  0  0  0  0  0  0  0  0  0  0
   -0.8355   -5.3910   18.6471 C   0  0  2  0  0  0  0  0  0  0  0  0
   -0.9283   -6.7775   18.2281 O   0  0  0  0  0  0  0  0  0  0  0  0
    1.2027  -10.0495   18.7674 C   0  0  0  0  0  0  0  0  0  0  0  0
    0.0558  -10.8683   18.9154 O   0  0  0  0  0  0  0  0  0  0  0  0
    5.2549  -10.7106   15.6967 C   0  0  1  0  0  0  0  0  0  0  0  0
    3.9899  -10.0215   15.9361 O   0  0  0  0  0  0  0  0  0  0  0  0
   -5.4626   -2.8883   14.3627 C   0  0  0  0  0  0  0  0  0  0  0  0
   -5.0310   -2.2027   13.1995 O   0  0  0  0  0  0  0  0  0  0  0  0
   -0.0894   -5.3410   20.0166 C   0  0  1  0  0  0  0  0  0  0  0  0
    1.2679   -5.7318   19.8146 O   0  0  0  0  0  0  0  0  0  0  0  0
    5.1642  -12.1479   16.2705 C   0  0  0  0  0  0  0  0  0  0  0  0
    6.4584  -12.8525   16.2314 N   0  0  0  0  0  0  0  0  0  0  0  0
  1  2  1  6  0  0  0
  1  7  1  0  0  0  0
  1 30  1  0  0  0  0
  3  4  1  1  0  0  0
  3  9  1  0  0  0  0
  3 39  1  0  0  0  0
  5 10  1  0  0  0  0
  5 26  1  0  0  0  0
  5 32  1  1  0  0  0
  6 12  1  0  0  0  0
  6 36  1  0  0  0  0
  6 19  1  6  0  0  0
  7  8  1  1  0  0  0
  7 14  1  0  0  0  0
  9 16  1  0  0  0  0
 10 11  1  6  0  0  0
 10 18  1  0  0  0  0
 12 13  1  6  0  0  0
 12 20  1  0  0  0  0
 14 15  1  6  0  0  0
 14 22  1  0  0  0  0
 16 17  1  1  0  0  0
 16 24  1  0  0  0  0
 18 19  1  6  0  0  0
 18 25  1  0  0  0  0
 20 21  1  1  0  0  0
 20 27  1  0  0  0  0
 22 23  1  6  0  0  0
 22 29  1  0  0  0  0
 24  2  1  6  0  0  0
 24 31  1  0  0  0  0
 25 26  1  0  0  0  0
 25 33  1  1  0  0  0
 27 28  1  6  0  0  0
 27 35  1  0  0  0  0
 29 30  1  0  0  0  0
 29 37  1  6  0  0  0
 31 32  1  1  0  0  0
 31 39  1  0  0  0  0
 33 34  1  0  0  0  0
 35 36  1  0  0  0  0
 35 41  1  6  0  0  0
 37 38  1  0  0  0  0
 39 40  1  6  0  0  0
 41 42  1  0  0  0  0
M  END
>  <CHROM.1>
-99.91120225,-118.68979337,86.03729298,67.48489976,64.17094006,58.73361041
67.42737805,96.58928463,145.10658914,174.09460212,65.65070940,-46.90201509
167.53028454,-40.62210386,-66.21213801,139.81611057,53.56323396,-51.82568910
65.67409489,56.05852003,-36.93129829,89.21049898,0.21580780,-6.97846410,16.60649654
2.85212075,-0.59843473,1.31231130

>  <Name>
1fyp_lig

>  <RI>
0

>  <Rbt.Current_Directory>
/home/afrankz/demos/rdock_decoys_rna/rnas/1fyp

>  <Rbt.Executable>
rbdock ($Id: //depot/dev/client3/rdock/2013.1/src/exe/rbdock.cxx#4 $)

>  <Rbt.Library>
libRbt.so (2013.1, Build901 2013/11/27)

>  <Rbt.Parameter_File>
/export/apps/rDock/src/rDock_2013.1_src/data/scripts/dock_solv.prm

>  <Rbt.Receptor>
prm/blind_docking_20.prm

>  <SCORE>
32.7455

>  <SCORE.INTER>
-3.87227

>  <SCORE.INTER.CONST>
1

>  <SCORE.INTER.POLAR>
-2.25365

>  <SCORE.INTER.ROT>
14

>  <SCORE.INTER.SOLV>
14.9839

>  <SCORE.INTER.VDW>
-12.9973

>  <SCORE.INTER.norm>
-0.0921969

>  <SCORE.INTRA>
3.27692

>  <SCORE.INTRA.DIHEDRAL>
-15.2761

>  <SCORE.INTRA.DIHEDRAL.0>
48.7173

>  <SCORE.INTRA.POLAR>
0.227449

>  <SCORE.INTRA.POLAR.0>
-1.54691

>  <SCORE.INTRA.REPUL>
0.0448493

>  <SCORE.INTRA.REPUL.0>
0

>  <SCORE.INTRA.SOLV>
-0.191748

>  <SCORE.INTRA.SOLV.lig_0>
-64.052

>  <SCORE.INTRA.VDW>
10.0133

>  <SCORE.INTRA.VDW.0>
-7.0667

>  <SCORE.INTRA.norm>
0.078022

>  <SCORE.RESTR>
33.3409

>  <SCORE.RESTR.CAVITY>
33.3409

>  <SCORE.RESTR.norm>
0.793831

>  <SCORE.SYSTEM>
0

>  <SCORE.SYSTEM.CONST>
0

>  <SCORE.SYSTEM.DIHEDRAL>
0

>  <SCORE.SYSTEM.SOLV>
0

>  <SCORE.SYSTEM.norm>
0

>  <SCORE.heavy>
42

>  <SCORE.norm>
0.779656

>  <RMSD>
17.287

$$$$
1fyp_lig
 OpenBabel11021811393D
libRbt.so/2013.1/901 2013/11/27
 42 45  0  0  0  0  0  0  0  0999 V2000
   -3.6712   -6.6226   15.7820 C   0  0  2  0  0  0  0  0  0  0  0  0
   -2.5650   -6.1772   16.6188 O   0  0  0  0  0  0  0  0  0  0  0  0
   -2.2482   -3.7352   20.1083 C   0  0  2  0  0  0  0  0  0  0  0  0
   -2.3731   -3.1109   21.4384 N   0  0  0  0  0  0  0  0  0  0  0  0
    0.3873   -7.5010   18.7171 C   0  0  1  0  0  0  0  0  0  0  0  0
    3.1949   -9.0711   16.2239 C   0  0  1  0  0  0  0  0  0  0  0  0
   -3.1627   -7.2136   14.4277 C   0  0  2  0  0  0  0  0  0  0  0  0
   -2.1117   -8.2299   14.6471 N   0  0  0  0  0  0  0  0  0  0  0  0
   -3.6446   -3.8583   19.4664 C   0  0  0  0  0  0  0  0  0  0  0  0
    0.5942   -7.5591   17.2014 C   0  0  2  0  0  0  0  0  0  0  0  0
    0.4758   -8.9105   16.7551 O   0  0  0  0  0  0  0  0  0  0  0  0
    4.7085   -9.2859   15.9173 C   0  0  2  0  0  0  0  0  0  0  0  0
    5.4540   -8.0091   15.7974 N   0  0  0  0  0  0  0  0  0  0  0  0
   -2.6351   -6.0825   13.4905 C   0  0  1  0  0  0  0  0  0  0  0  0
   -2.3242   -6.6142   12.2051 O   0  0  0  0  0  0  0  0  0  0  0  0
   -3.5855   -4.4852   18.0466 C   0  0  2  0  0  0  0  0  0  0  0  0
   -4.9730   -4.6314   17.5596 N   0  0  0  0  0  0  0  0  0  0  0  0
    2.0318   -7.0512   17.0613 C   0  0  2  0  0  0  0  0  0  0  0  0
    3.0031   -8.1091   17.2937 O   0  0  0  0  0  0  0  0  0  0  0  0
    4.8979  -10.1746   14.6495 C   0  0  1  0  0  0  0  0  0  0  0  0
    4.5648  -11.5200   14.9849 O   0  0  0  0  0  0  0  0  0  0  0  0
   -3.6747   -4.9472   13.3158 C   0  0  2  0  0  0  0  0  0  0  0  0
   -3.1001   -3.9075   12.5299 O   0  0  0  0  0  0  0  0  0  0  0  0
   -2.8193   -5.8564   18.0166 C   0  0  2  0  0  0  0  0  0  0  0  0
    2.1092   -5.9940   18.1717 C   0  0  2  0  0  0  0  0  0  0  0  0
    1.2358   -6.4565   19.2201 O   0  0  0  0  0  0  0  0  0  0  0  0
    4.0224   -9.7439   13.4338 C   0  0  2  0  0  0  0  0  0  0  0  0
    4.5675   -8.5434   12.8841 O   0  0  0  0  0  0  0  0  0  0  0  0
   -4.1187   -4.4031   14.7032 C   0  0  2  0  0  0  0  0  0  0  0  0
   -4.5955   -5.5131   15.5220 O   0  0  0  0  0  0  0  0  0  0  0  0
   -1.4555   -5.8121   18.7965 C   0  0  2  0  0  0  0  0  0  0  0  0
   -1.0047   -7.1773   18.9953 O   0  0  0  0  0  0  0  0  0  0  0  0
    1.6768   -4.5936   17.7021 C   0  0  0  0  0  0  0  0  0  0  0  0
    0.5032   -4.1748   18.3765 O   0  0  0  0  0  0  0  0  0  0  0  0
    2.5426   -9.5129   13.8711 C   0  0  1  0  0  0  0  0  0  0  0  0
    2.5050   -8.6054   15.0146 O   0  0  0  0  0  0  0  0  0  0  0  0
   -5.2619   -3.3647   14.6571 C   0  0  0  0  0  0  0  0  0  0  0  0
   -6.4897   -3.9668   14.2840 O   0  0  0  0  0  0  0  0  0  0  0  0
   -1.5748   -5.1261   20.1928 C   0  0  1  0  0  0  0  0  0  0  0  0
   -0.2678   -4.9805   20.7460 O   0  0  0  0  0  0  0  0  0  0  0  0
    1.6669   -8.9287   12.7330 C   0  0  0  0  0  0  0  0  0  0  0  0
    1.0432   -7.6457   13.1043 N   0  0  0  0  0  0  0  0  0  0  0  0
  1  2  1  1  0  0  0
  1  7  1  0  0  0  0
  1 30  1  0  0  0  0
  3  4  1  1  0  0  0
  3  9  1  0  0  0  0
  3 39  1  0  0  0  0
  5 10  1  0  0  0  0
  5 26  1  0  0  0  0
  5 32  1  6  0  0  0
  6 12  1  0  0  0  0
  6 36  1  0  0  0  0
  6 19  1  1  0  0  0
  7  8  1  1  0  0  0
  7 14  1  0  0  0  0
  9 16  1  0  0  0  0
 10 11  1  1  0  0  0
 10 18  1  0  0  0  0
 12 13  1  6  0  0  0
 12 20  1  0  0  0  0
 14 15  1  6  0  0  0
 14 22  1  0  0  0  0
 16 17  1  1  0  0  0
 16 24  1  0  0  0  0
 18 19  1  1  0  0  0
 18 25  1  0  0  0  0
 20 21  1  1  0  0  0
 20 27  1  0  0  0  0
 22 23  1  6  0  0  0
 22 29  1  0  0  0  0
 24  2  1  6  0  0  0
 24 31  1  0  0  0  0
 25 26  1  0  0  0  0
 25 33  1  6  0  0  0
 27 28  1  1  0  0  0
 27 35  1  0  0  0  0
 29 30  1  0  0  0  0
 29 37  1  6  0  0  0
 31 32  1  1  0  0  0
 31 39  1  0  0  0  0
 33 34  1  0  0  0  0
 35 36  1  0  0  0  0
 35 41  1  6  0  0  0
 37 38  1  0  0  0  0
 39 40  1  6  0  0  0
 41 42  1  0  0  0  0
M  END
>  <CHROM.1>
-167.45759707,-73.55794814,-165.84871442,179.62298586,65.00758721,-95.34591179
-68.20967926,-90.82861465,76.29512797,131.64989393,63.22955158,178.96408764
115.22759386,175.45299930,70.04086680,134.00673276,-74.98487329,47.25701638
-122.12458527,-59.02258685,65.57953363,30.99780132,-0.39596243,-6.59134070
16.28238934,2.77221676,-0.46806984,1.25209946

>  <Name>
1fyp_lig

>  <RI>
0

>  <Rbt.Current_Directory>
/home/afrankz/demos/rdock_decoys_rna/rnas/1fyp

>  <Rbt.Executable>
rbdock ($Id: //depot/dev/client3/rdock/2013.1/src/exe/rbdock.cxx#4 $)

>  <Rbt.Library>
libRbt.so (2013.1, Build901 2013/11/27)

>  <Rbt.Parameter_File>
/export/apps/rDock/src/rDock_2013.1_src/data/scripts/dock_solv.prm

>  <Rbt.Receptor>
prm/blind_docking_20.prm

>  <SCORE>
34.9265

>  <SCORE.INTER>
-0.328399

>  <SCORE.INTER.CONST>
1

>  <SCORE.INTER.POLAR>
-1.41615

>  <SCORE.INTER.ROT>
14

>  <SCORE.INTER.SOLV>
14.6393

>  <SCORE.INTER.VDW>
-13.3115

>  <SCORE.INTER.norm>
-0.00781903

>  <SCORE.INTRA>
5.15453

>  <SCORE.INTRA.DIHEDRAL>
-14.8943

>  <SCORE.INTRA.DIHEDRAL.0>
48.7173

>  <SCORE.INTRA.POLAR>
0.239234

>  <SCORE.INTRA.POLAR.0>
-1.54691

>  <SCORE.INTRA.REPUL>
0.41418

>  <SCORE.INTRA.REPUL.0>
0

>  <SCORE.INTRA.SOLV>
4.9813

>  <SCORE.INTRA.SOLV.lig_0>
-64.052

>  <SCORE.INTRA.VDW>
7.22671

>  <SCORE.INTRA.VDW.0>
-7.0667

>  <SCORE.INTRA.norm>
0.122727

>  <SCORE.RESTR>
30.1004

>  <SCORE.RESTR.CAVITY>
30.1004

>  <SCORE.RESTR.norm>
0.716676

>  <SCORE.SYSTEM>
0

>  <SCORE.SYSTEM.CONST>
0

>  <SCORE.SYSTEM.DIHEDRAL>
0

>  <SCORE.SYSTEM.SOLV>
0

>  <SCORE.SYSTEM.norm>
0

>  <SCORE.heavy>
42

>  <SCORE.norm>
0.831584

>  <RMSD>
17.293

$$$$
1fyp_lig
 OpenBabel11021811393D
libRbt.so/2013.1/901 2013/11/27
 42 45  0  0  0  0  0  0  0  0999 V2000
    2.3092   -8.2752   17.1612 C   0  0  2  0  0  0  0  0  0  0  0  0
    2.0638   -6.8837   16.8064 O   0  0  0  0  0  0  0  0  0  0  0  0
   -1.1115   -5.8818   19.4812 C   0  0  2  0  0  0  0  0  0  0  0  0
   -2.3149   -5.3424   20.1409 N   0  0  0  0  0  0  0  0  0  0  0  0
   -1.4879   -7.4422   15.4486 C   0  0  1  0  0  0  0  0  0  0  0  0
   -3.2333   -5.5736   13.9177 C   0  0  1  0  0  0  0  0  0  0  0  0
    3.8046   -8.6685   16.9349 C   0  0  2  0  0  0  0  0  0  0  0  0
    4.7172   -7.7007   17.5801 N   0  0  0  0  0  0  0  0  0  0  0  0
   -0.2527   -4.7172   18.9492 C   0  0  0  0  0  0  0  0  0  0  0  0
   -0.9217   -7.6786   14.0461 C   0  0  2  0  0  0  0  0  0  0  0  0
   -0.0745   -6.5877   13.6834 O   0  0  0  0  0  0  0  0  0  0  0  0
   -4.5128   -6.2607   14.4852 C   0  0  2  0  0  0  0  0  0  0  0  0
   -5.4320   -6.7270   13.4184 N   0  0  0  0  0  0  0  0  0  0  0  0
    4.1253   -8.7824   15.4116 C   0  0  1  0  0  0  0  0  0  0  0  0
    5.4422   -9.2942   15.2234 O   0  0  0  0  0  0  0  0  0  0  0  0
    1.0498   -5.2128   18.2633 C   0  0  2  0  0  0  0  0  0  0  0  0
    1.7529   -4.0310   17.7223 N   0  0  0  0  0  0  0  0  0  0  0  0
   -2.1937   -7.7019   13.1941 C   0  0  2  0  0  0  0  0  0  0  0  0
   -2.6390   -6.3597   12.8522 O   0  0  0  0  0  0  0  0  0  0  0  0
   -5.2447   -5.3244   15.4954 C   0  0  1  0  0  0  0  0  0  0  0  0
   -4.4861   -5.2777   16.7019 O   0  0  0  0  0  0  0  0  0  0  0  0
    3.1258   -9.7134   14.6805 C   0  0  2  0  0  0  0  0  0  0  0  0
    3.4140   -9.7013   13.2857 O   0  0  0  0  0  0  0  0  0  0  0  0
    0.7810   -6.2826   17.1447 C   0  0  2  0  0  0  0  0  0  0  0  0
   -3.1989   -8.3806   14.1350 C   0  0  2  0  0  0  0  0  0  0  0  0
   -2.8123   -7.9984   15.4693 O   0  0  0  0  0  0  0  0  0  0  0  0
   -5.4387   -3.8645   14.9844 C   0  0  2  0  0  0  0  0  0  0  0  0
   -6.4575   -3.8654   13.9830 O   0  0  0  0  0  0  0  0  0  0  0  0
    1.6648   -9.2490   14.9416 C   0  0  2  0  0  0  0  0  0  0  0  0
    1.4402   -9.1635   16.3810 O   0  0  0  0  0  0  0  0  0  0  0  0
   -0.2163   -7.4081   17.6018 C   0  0  2  0  0  0  0  0  0  0  0  0
   -0.6523   -8.1314   16.4215 O   0  0  0  0  0  0  0  0  0  0  0  0
   -3.2059   -9.9142   14.0051 C   0  0  0  0  0  0  0  0  0  0  0  0
   -2.5217  -10.5162   15.0900 O   0  0  0  0  0  0  0  0  0  0  0  0
   -4.1070   -3.3015   14.3977 C   0  0  1  0  0  0  0  0  0  0  0  0
   -3.5706   -4.2369   13.4130 O   0  0  0  0  0  0  0  0  0  0  0  0
    0.5751  -10.1889   14.3791 C   0  0  0  0  0  0  0  0  0  0  0  0
    0.7536  -10.4112   12.9905 O   0  0  0  0  0  0  0  0  0  0  0  0
   -1.4781   -6.8455   18.3269 C   0  0  1  0  0  0  0  0  0  0  0  0
   -2.2318   -7.9378   18.8508 O   0  0  0  0  0  0  0  0  0  0  0  0
   -4.2869   -1.9135   13.7311 C   0  0  0  0  0  0  0  0  0  0  0  0
   -5.1898   -1.9607   12.5668 N   0  0  0  0  0  0  0  0  0  0  0  0
  1  2  1  6  0  0  0
  1  7  1  0  0  0  0
  1 30  1  0  0  0  0
  3  4  1  6  0  0  0
  3  9  1  0  0  0  0
  3 39  1  0  0  0  0
  5 10  1  0  0  0  0
  5 26  1  0  0  0  0
  5 32  1  1  0  0  0
  6 12  1  0  0  0  0
  6 36  1  0  0  0  0
  6 19  1  6  0  0  0
  7  8  1  6  0  0  0
  7 14  1  0  0  0  0
  9 16  1  0  0  0  0
 10 11  1  6  0  0  0
 10 18  1  0  0  0  0
 12 13  1  6  0  0  0
 12 20  1  0  0  0  0
 14 15  1  1  0  0  0
 14 22  1  0  0  0  0
 16 17  1  6  0  0  0
 16 24  1  0  0  0  0
 18 19  1  1  0  0  0
 18 25  1  0  0  0  0
 20 21  1  1  0  0  0
 20 27  1  0  0  0  0
 22 23  1  6  0  0  0
 22 29  1  0  0  0  0
 24  2  1  1  0  0  0
 24 31  1  0  0  0  0
 25 26  1  0  0  0  0
 25 33  1  1  0  0  0
 27 28  1  6  0  0  0
 27 35  1  0  0  0  0
 29 30  1  0  0  0  0
 29 37  1  1  0  0  0
 31 32  1  6  0  0  0
 31 39  1  0  0  0  0
 33 34  1  0  0  0  0
 35 36  1  0  0  0  0
 35 41  1  6  0  0  0
 37 38  1  0  0  0  0
 39 40  1  1  0  0  0
 41 42  1  0  0  0  0
M  END
>  <CHROM.1>
-170.59333895,111.38816937,60.81064639,168.13719722,176.27025688,59.85404757
54.68039023,149.73386312,-72.83692067,-60.74165802,67.31169090,-175.36499266
103.54261693,-39.22803945,-55.23928338,-67.54829902,131.92958667,-33.84104645
-63.17501203,179.45797057,172.44128253,169.62623908,-1.00736616,-6.94079529
15.53223730,-0.15876658,-0.50367362,0.89740245

>  <Name>
1fyp_lig

>  <RI>
0

>  <Rbt.Current_Directory>
/home/afrankz/demos/rdock_decoys_rna/rnas/1fyp

>  <Rbt.Executable>
rbdock ($Id: //depot/dev/client3/rdock/2013.1/src/exe/rbdock.cxx#4 $)

>  <Rbt.Library>
libRbt.so (2013.1, Build901 2013/11/27)

>  <Rbt.Parameter_File>
/export/apps/rDock/src/rDock_2013.1_src/data/scripts/dock_solv.prm

>  <Rbt.Receptor>
prm/blind_docking_20.prm

>  <SCORE>
28.2805

>  <SCORE.INTER>
-8.09458

>  <SCORE.INTER.CONST>
1

>  <SCORE.INTER.POLAR>
-3.04258

>  <SCORE.INTER.ROT>
14

>  <SCORE.INTER.SOLV>
13.4751

>  <SCORE.INTER.VDW>
-12.6795

>  <SCORE.INTER.norm>
-0.192728

>  <SCORE.INTRA>
2.19003

>  <SCORE.INTRA.DIHEDRAL>
-21.4506

>  <SCORE.INTRA.DIHEDRAL.0>
48.7173

>  <SCORE.INTRA.POLAR>
-0.859897

>  <SCORE.INTRA.POLAR.0>
-1.54691

>  <SCORE.INTRA.REPUL>
0

>  <SCORE.INTRA.REPUL.0>
0

>  <SCORE.INTRA.SOLV>
2.87255

>  <SCORE.INTRA.SOLV.lig_0>
-64.052

>  <SCORE.INTRA.VDW>
14.4027

>  <SCORE.INTRA.VDW.0>
-7.0667

>  <SCORE.INTRA.norm>
0.0521435

>  <SCORE.RESTR>
34.1851

>  <SCORE.RESTR.CAVITY>
34.1851

>  <SCORE.RESTR.norm>
0.81393

>  <SCORE.SYSTEM>
0

>  <SCORE.SYSTEM.CONST>
0

>  <SCORE.SYSTEM.DIHEDRAL>
0

>  <SCORE.SYSTEM.SOLV>
0

>  <SCORE.SYSTEM.norm>
0

>  <SCORE.heavy>
42

>  <SCORE.norm>
0.673346

>  <RMSD>
17.313

$$$$
1fyp_lig
 OpenBabel11021811393D
libRbt.so/2013.1/901 2013/11/27
 42 45  0  0  0  0  0  0  0  0999 V2000
   -3.6624   -6.6527   16.5377 C   0  0  2  0  0  0  0  0  0  0  0  0
   -2.3568   -6.3533   17.1105 O   0  0  0  0  0  0  0  0  0  0  0  0
   -1.0837   -3.2834   19.7930 C   0  0  2  0  0  0  0  0  0  0  0  0
   -0.8698   -2.3721   20.9324 N   0  0  0  0  0  0  0  0  0  0  0  0
    0.6010   -7.7509   18.6634 C   0  0  1  0  0  0  0  0  0  0  0  0
    3.6767   -9.0980   15.9272 C   0  0  1  0  0  0  0  0  0  0  0  0
   -3.5567   -7.7140   15.3955 C   0  0  2  0  0  0  0  0  0  0  0  0
   -2.7929   -8.9009   15.8354 N   0  0  0  0  0  0  0  0  0  0  0  0
   -2.5863   -3.3333   19.4512 C   0  0  0  0  0  0  0  0  0  0  0  0
    0.3540   -7.6819   17.1542 C   0  0  2  0  0  0  0  0  0  0  0  0
   -0.3416   -8.8549   16.7304 O   0  0  0  0  0  0  0  0  0  0  0  0
    3.7081   -8.5326   14.4744 C   0  0  2  0  0  0  0  0  0  0  0  0
    2.5813   -9.0251   13.6450 N   0  0  0  0  0  0  0  0  0  0  0  0
   -2.9065   -7.0943   14.1191 C   0  0  1  0  0  0  0  0  0  0  0  0
   -2.9615   -8.0229   13.0390 O   0  0  0  0  0  0  0  0  0  0  0  0
   -2.8827   -4.2568   18.2381 C   0  0  2  0  0  0  0  0  0  0  0  0
   -4.3477   -4.2965   18.0483 N   0  0  0  0  0  0  0  0  0  0  0  0
    1.7824   -7.6530   16.6036 C   0  0  2  0  0  0  0  0  0  0  0  0
    2.3514   -8.9886   16.5089 O   0  0  0  0  0  0  0  0  0  0  0  0
    5.0818   -8.8228   13.7949 C   0  0  1  0  0  0  0  0  0  0  0  0
    6.0629   -7.9624   14.3700 O   0  0  0  0  0  0  0  0  0  0  0  0
   -3.6204   -5.7899   13.6841 C   0  0  2  0  0  0  0  0  0  0  0  0
   -2.9254   -5.2268   12.5756 O   0  0  0  0  0  0  0  0  0  0  0  0
   -2.2871   -5.7004   18.4106 C   0  0  2  0  0  0  0  0  0  0  0  0
    2.5201   -6.8261   17.6658 C   0  0  2  0  0  0  0  0  0  0  0  0
    1.8612   -7.1090   18.9155 O   0  0  0  0  0  0  0  0  0  0  0  0
    5.5714  -10.2944   13.9520 C   0  0  2  0  0  0  0  0  0  0  0  0
    4.7812  -11.1289   13.1035 O   0  0  0  0  0  0  0  0  0  0  0  0
   -3.6721   -4.7819   14.8672 C   0  0  2  0  0  0  0  0  0  0  0  0
   -4.2875   -5.4299   16.0209 O   0  0  0  0  0  0  0  0  0  0  0  0
   -0.7966   -5.6915   18.9089 C   0  0  2  0  0  0  0  0  0  0  0  0
   -0.4610   -7.0319   19.3527 O   0  0  0  0  0  0  0  0  0  0  0  0
    2.4888   -5.3138   17.3817 C   0  0  0  0  0  0  0  0  0  0  0  0
    1.1624   -4.8180   17.4309 O   0  0  0  0  0  0  0  0  0  0  0  0
    5.4487  -10.7636   15.4350 C   0  0  1  0  0  0  0  0  0  0  0  0
    4.0962  -10.5049   15.9210 O   0  0  0  0  0  0  0  0  0  0  0  0
   -4.4892   -3.4999   14.5919 C   0  0  0  0  0  0  0  0  0  0  0  0
   -5.8820   -3.7473   14.6843 O   0  0  0  0  0  0  0  0  0  0  0  0
   -0.5574   -4.7070   20.0955 C   0  0  1  0  0  0  0  0  0  0  0  0
    0.8427   -4.6414   20.3626 O   0  0  0  0  0  0  0  0  0  0  0  0
    5.7711  -12.2693   15.6144 C   0  0  0  0  0  0  0  0  0  0  0  0
    7.1865  -12.5785   15.3422 N   0  0  0  0  0  0  0  0  0  0  0  0
  1  2  1  6  0  0  0
  1  7  1  0  0  0  0
  1 30  1  0  0  0  0
  3  4  1  1  0  0  0
  3  9  1  0  0  0  0
  3 39  1  0  0  0  0
  5 10  1  0  0  0  0
  5 26  1  0  0  0  0
  5 32  1  1  0  0  0
  6 12  1  0  0  0  0
  6 36  1  0  0  0  0
  6 19  1  6  0  0  0
  7  8  1  1  0  0  0
  7 14  1  0  0  0  0
  9 16  1  0  0  0  0
 10 11  1  6  0  0  0
 10 18  1  0  0  0  0
 12 13  1  6  0  0  0
 12 20  1  0  0  0  0
 14 15  1  6  0  0  0
 14 22  1  0  0  0  0
 16 17  1  1  0  0  0
 16 24  1  0  0  0  0
 18 19  1  1  0  0  0
 18 25  1  0  0  0  0
 20 21  1  1  0  0  0
 20 27  1  0  0  0  0
 22 23  1  6  0  0  0
 22 29  1  0  0  0  0
 24  2  1  6  0  0  0
 24 31  1  0  0  0  0
 25 26  1  0  0  0  0
 25 33  1  6  0  0  0
 27 28  1  6  0  0  0
 27 35  1  0  0  0  0
 29 30  1  0  0  0  0
 29 37  1  6  0  0  0
 31 32  1  1  0  0  0
 31 39  1  0  0  0  0
 33 34  1  0  0  0  0
 35 36  1  0  0  0  0
 35 41  1  6  0  0  0
 37 38  1  0  0  0  0
 39 40  1  6  0  0  0
 41 42  1  0  0  0  0
M  END
>  <CHROM.1>
-162.49958476,-66.13407556,176.17421511,-168.27604587,-64.31977996,-57.92070999
64.97200543,148.53810074,176.55733961,-58.87161320,70.86915705,68.29938813
63.98532089,72.73229967,77.47331295,117.85686397,-49.60883362,-161.80285846
66.84289869,-55.82443124,73.85509486,75.81359100,0.20500981,-7.02374788,16.41719035
2.67900325,-0.42175736,1.02482615

>  <Name>
1fyp_lig

>  <RI>
0

>  <Rbt.Current_Directory>
/home/afrankz/demos/rdock_decoys_rna/rnas/1fyp

>  <Rbt.Executable>
rbdock ($Id: //depot/dev/client3/rdock/2013.1/src/exe/rbdock.cxx#4 $)

>  <Rbt.Library>
libRbt.so (2013.1, Build901 2013/11/27)

>  <Rbt.Parameter_File>
/export/apps/rDock/src/rDock_2013.1_src/data/scripts/dock_solv.prm

>  <Rbt.Receptor>
prm/blind_docking_20.prm

>  <SCORE>
12.4661

>  <SCORE.INTER>
-9.0959

>  <SCORE.INTER.CONST>
1

>  <SCORE.INTER.POLAR>
-3.90523

>  <SCORE.INTER.ROT>
14

>  <SCORE.INTER.SOLV>
15.1142

>  <SCORE.INTER.VDW>
-11.0179

>  <SCORE.INTER.norm>
-0.216569

>  <SCORE.INTRA>
-8.01079

>  <SCORE.INTRA.DIHEDRAL>
-31.0192

>  <SCORE.INTRA.DIHEDRAL.0>
48.7173

>  <SCORE.INTRA.POLAR>
0.0149767

>  <SCORE.INTRA.POLAR.0>
-1.54691

>  <SCORE.INTRA.REPUL>
0.191038

>  <SCORE.INTRA.REPUL.0>
0

>  <SCORE.INTRA.SOLV>
3.4627

>  <SCORE.INTRA.SOLV.lig_0>
-64.052

>  <SCORE.INTRA.VDW>
4.76137

>  <SCORE.INTRA.VDW.0>
-7.0667

>  <SCORE.INTRA.norm>
-0.190733

>  <SCORE.RESTR>
29.5728

>  <SCORE.RESTR.CAVITY>
29.5728

>  <SCORE.RESTR.norm>
0.704114

>  <SCORE.SYSTEM>
0

>  <SCORE.SYSTEM.CONST>
0

>  <SCORE.SYSTEM.DIHEDRAL>
0

>  <SCORE.SYSTEM.SOLV>
0

>  <SCORE.SYSTEM.norm>
0

>  <SCORE.heavy>
42

>  <SCORE.norm>
0.296812

>  <RMSD>
17.420

$$$$
1fyp_lig
 OpenBabel11021811393D
libRbt.so/2013.1/901 2013/11/27
 42 45  0  0  0  0  0  0  0  0999 V2000
   -3.6871   -6.8031   16.5369 C   0  0  2  0  0  0  0  0  0  0  0  0
   -2.3857   -6.5034   17.1190 O   0  0  0  0  0  0  0  0  0  0  0  0
   -1.0734   -3.3067   19.6290 C   0  0  2  0  0  0  0  0  0  0  0  0
   -0.8557   -2.3302   20.7122 N   0  0  0  0  0  0  0  0  0  0  0  0
    0.4581   -7.9067   18.8074 C   0  0  1  0  0  0  0  0  0  0  0  0
    2.9563   -9.9471   15.7569 C   0  0  1  0  0  0  0  0  0  0  0  0
   -3.5771   -7.8867   15.4162 C   0  0  2  0  0  0  0  0  0  0  0  0
   -2.8282   -9.0712   15.8872 N   0  0  0  0  0  0  0  0  0  0  0  0
   -2.5685   -3.3311   19.2532 C   0  0  0  0  0  0  0  0  0  0  0  0
    0.0030   -8.2585   17.3886 C   0  0  2  0  0  0  0  0  0  0  0  0
   -0.6245   -9.5414   17.3932 O   0  0  0  0  0  0  0  0  0  0  0  0
    4.4175   -9.9756   16.3002 C   0  0  2  0  0  0  0  0  0  0  0  0
    4.7567   -8.7675   17.0913 N   0  0  0  0  0  0  0  0  0  0  0  0
   -2.9073   -7.2964   14.1359 C   0  0  1  0  0  0  0  0  0  0  0  0
   -2.9576   -8.2448   13.0730 O   0  0  0  0  0  0  0  0  0  0  0  0
   -2.8674   -4.3221   18.0952 C   0  0  2  0  0  0  0  0  0  0  0  0
   -4.3280   -4.3274   17.8712 N   0  0  0  0  0  0  0  0  0  0  0  0
    1.3337   -8.2932   16.6320 C   0  0  2  0  0  0  0  0  0  0  0  0
    2.0135   -9.5692   16.7937 O   0  0  0  0  0  0  0  0  0  0  0  0
    5.4370  -10.1994   15.1411 C   0  0  1  0  0  0  0  0  0  0  0  0
    5.3504  -11.5582   14.7171 O   0  0  0  0  0  0  0  0  0  0  0  0
   -3.6054   -5.9948   13.6682 C   0  0  2  0  0  0  0  0  0  0  0  0
   -2.8932   -5.4584   12.5575 O   0  0  0  0  0  0  0  0  0  0  0  0
   -2.3245   -5.7694   18.3756 C   0  0  2  0  0  0  0  0  0  0  0  0
    2.1236   -7.1700   17.3184 C   0  0  2  0  0  0  0  0  0  0  0  0
    1.6714   -7.1471   18.6862 O   0  0  0  0  0  0  0  0  0  0  0  0
    5.2010   -9.2854   13.9006 C   0  0  2  0  0  0  0  0  0  0  0  0
    5.6075   -7.9565   14.2316 O   0  0  0  0  0  0  0  0  0  0  0  0
   -3.6622   -4.9643   14.8315 C   0  0  2  0  0  0  0  0  0  0  0  0
   -4.2962   -5.5853   15.9900 O   0  0  0  0  0  0  0  0  0  0  0  0
   -0.8464   -5.7754   18.9099 C   0  0  2  0  0  0  0  0  0  0  0  0
   -0.5662   -7.0940   19.4478 O   0  0  0  0  0  0  0  0  0  0  0  0
    1.9051   -5.7934   16.6658 C   0  0  0  0  0  0  0  0  0  0  0  0
    2.8474   -4.8511   17.1471 O   0  0  0  0  0  0  0  0  0  0  0  0
    3.6987   -9.3002   13.4794 C   0  0  1  0  0  0  0  0  0  0  0  0
    2.8616   -9.0013   14.6380 O   0  0  0  0  0  0  0  0  0  0  0  0
   -4.4656   -3.6812   14.5227 C   0  0  0  0  0  0  0  0  0  0  0  0
   -3.9170   -2.9837   13.4172 O   0  0  0  0  0  0  0  0  0  0  0  0
   -0.6021   -4.7236   20.0361 C   0  0  1  0  0  0  0  0  0  0  0  0
    0.7928   -4.6852   20.3338 O   0  0  0  0  0  0  0  0  0  0  0  0
    3.3836   -8.2837   12.3522 C   0  0  0  0  0  0  0  0  0  0  0  0
    4.1883   -8.5197   11.1399 N   0  0  0  0  0  0  0  0  0  0  0  0
  1  2  1  6  0  0  0
  1  7  1  0  0  0  0
  1 30  1  0  0  0  0
  3  4  1  1  0  0  0
  3  9  1  0  0  0  0
  3 39  1  0  0  0  0
  5 10  1  0  0  0  0
  5 26  1  0  0  0  0
  5 32  1  6  0  0  0
  6 12  1  0  0  0  0
  6 36  1  0  0  0  0
  6 19  1  1  0  0  0
  7  8  1  1  0  0  0
  7 14  1  0  0  0  0
  9 16  1  0  0  0  0
 10 11  1  1  0  0  0
 10 18  1  0  0  0  0
 12 13  1  6  0  0  0
 12 20  1  0  0  0  0
 14 15  1  6  0  0  0
 14 22  1  0  0  0  0
 16 17  1  1  0  0  0
 16 24  1  0  0  0  0
 18 19  1  1  0  0  0
 18 25  1  0  0  0  0
 20 21  1  6  0  0  0
 20 27  1  0  0  0  0
 22 23  1  6  0  0  0
 22 29  1  0  0  0  0
 24  2  1  6  0  0  0
 24 31  1  0  0  0  0
 25 26  1  0  0  0  0
 25 33  1  6  0  0  0
 27 28  1  1  0  0  0
 27 35  1  0  0  0  0
 29 30  1  0  0  0  0
 29 37  1  6  0  0  0
 31 32  1  1  0  0  0
 31 39  1  0  0  0  0
 33 34  1  0  0  0  0
 35 36  1  0  0  0  0
 35 41  1  6  0  0  0
 37 38  1  0  0  0  0
 39 40  1  6  0  0  0
 41 42  1  0  0  0  0
M  END
>  <CHROM.1>
-165.44529308,-66.40294703,48.65671193,-51.09219263,-70.63045462,174.16746027
57.92626191,150.03665653,155.82854451,113.24724607,55.91860060,-68.17929700
-168.06204699,63.97667128,-59.91267498,115.95712818,-65.11515702,68.12693026
58.18839316,-64.68254295,71.54281732,51.31872823,0.09963430,-6.93770454,16.29802425
2.69749903,-0.42234217,1.16054700

>  <Name>
1fyp_lig

>  <RI>
0

>  <Rbt.Current_Directory>
/home/afrankz/demos/rdock_decoys_rna/rnas/1fyp

>  <Rbt.Executable>
rbdock ($Id: //depot/dev/client3/rdock/2013.1/src/exe/rbdock.cxx#4 $)

>  <Rbt.Library>
libRbt.so (2013.1, Build901 2013/11/27)

>  <Rbt.Parameter_File>
/export/apps/rDock/src/rDock_2013.1_src/data/scripts/dock_solv.prm

>  <Rbt.Receptor>
prm/blind_docking_20.prm

>  <SCORE>
38.0063

>  <SCORE.INTER>
10.6272

>  <SCORE.INTER.CONST>
1

>  <SCORE.INTER.POLAR>
-4.66022

>  <SCORE.INTER.ROT>
14

>  <SCORE.INTER.SOLV>
19.6436

>  <SCORE.INTER.VDW>
3.13773

>  <SCORE.INTER.norm>
0.253029

>  <SCORE.INTRA>
-3.60491

>  <SCORE.INTRA.DIHEDRAL>
-25.8486

>  <SCORE.INTRA.DIHEDRAL.0>
48.7173

>  <SCORE.INTRA.POLAR>
0.197337

>  <SCORE.INTRA.POLAR.0>
-1.54691

>  <SCORE.INTRA.REPUL>
0.144249

>  <SCORE.INTRA.REPUL.0>
0

>  <SCORE.INTRA.SOLV>
1.01853

>  <SCORE.INTRA.SOLV.lig_0>
-64.052

>  <SCORE.INTRA.VDW>
7.41792

>  <SCORE.INTRA.VDW.0>
-7.0667

>  <SCORE.INTRA.norm>
-0.0858312

>  <SCORE.RESTR>
30.984

>  <SCORE.RESTR.CAVITY>
30.984

>  <SCORE.RESTR.norm>
0.737714

>  <SCORE.SYSTEM>
0

>  <SCORE.SYSTEM.CONST>
0

>  <SCORE.SYSTEM.DIHEDRAL>
0

>  <SCORE.SYSTEM.SOLV>
0

>  <SCORE.SYSTEM.norm>
0

>  <SCORE.heavy>
42

>  <SCORE.norm>
0.904912

>  <RMSD>
17.420

$$$$
1fyp_lig
 OpenBabel11021811393D
libRbt.so/2013.1/901 2013/11/27
 42 45  0  0  0  0  0  0  0  0999 V2000
   -4.2748   -5.0849   16.7232 C   0  0  2  0  0  0  0  0  0  0  0  0
   -3.1372   -4.3289   17.2299 O   0  0  0  0  0  0  0  0  0  0  0  0
   -0.5176   -3.7299   20.5495 C   0  0  2  0  0  0  0  0  0  0  0  0
    0.1663   -3.7333   21.8559 N   0  0  0  0  0  0  0  0  0  0  0  0
    0.0509   -7.1158   17.5607 C   0  0  1  0  0  0  0  0  0  0  0  0
    3.0475   -9.6888   15.6086 C   0  0  1  0  0  0  0  0  0  0  0  0
   -3.8252   -6.1829   15.7062 C   0  0  2  0  0  0  0  0  0  0  0  0
   -2.7348   -7.0131   16.2606 N   0  0  0  0  0  0  0  0  0  0  0  0
   -1.9947   -3.3336   20.7450 C   0  0  0  0  0  0  0  0  0  0  0  0
   -0.2139   -8.5818   17.2079 C   0  0  2  0  0  0  0  0  0  0  0  0
    0.0931   -9.4063   18.3328 O   0  0  0  0  0  0  0  0  0  0  0  0
    4.4830   -9.7787   16.2105 C   0  0  2  0  0  0  0  0  0  0  0  0
    4.9058   -8.5193   16.8704 N   0  0  0  0  0  0  0  0  0  0  0  0
   -3.3830   -5.5409   14.3540 C   0  0  1  0  0  0  0  0  0  0  0  0
   -3.1285   -6.5569   13.3873 O   0  0  0  0  0  0  0  0  0  0  0  0
   -2.7724   -3.2828   19.4015 C   0  0  2  0  0  0  0  0  0  0  0  0
   -4.1848   -2.9757   19.7087 N   0  0  0  0  0  0  0  0  0  0  0  0
    0.7760   -8.8125   16.0627 C   0  0  2  0  0  0  0  0  0  0  0  0
    2.1117   -9.1112   16.5558 O   0  0  0  0  0  0  0  0  0  0  0  0
    5.5128  -10.2250   15.1273 C   0  0  1  0  0  0  0  0  0  0  0  0
    5.3167  -11.6118   14.8594 O   0  0  0  0  0  0  0  0  0  0  0  0
   -4.4629   -4.5837   13.7902 C   0  0  2  0  0  0  0  0  0  0  0  0
   -3.9629   -3.9619   12.6103 O   0  0  0  0  0  0  0  0  0  0  0  0
   -2.6413   -4.6096   18.5703 C   0  0  2  0  0  0  0  0  0  0  0  0
    0.7570   -7.4568   15.3429 C   0  0  2  0  0  0  0  0  0  0  0  0
    0.5143   -6.4698   16.3641 O   0  0  0  0  0  0  0  0  0  0  0  0
    5.3980   -9.4472   13.7813 C   0  0  2  0  0  0  0  0  0  0  0  0
    5.9126   -8.1285   13.9734 O   0  0  0  0  0  0  0  0  0  0  0  0
   -4.8450   -3.5144   14.8526 C   0  0  2  0  0  0  0  0  0  0  0  0
   -5.2436   -4.1862   16.0854 O   0  0  0  0  0  0  0  0  0  0  0  0
   -1.1612   -5.1303   18.4789 C   0  0  2  0  0  0  0  0  0  0  0  0
   -1.1933   -6.4997   17.9991 O   0  0  0  0  0  0  0  0  0  0  0  0
   -0.3260   -7.3678   14.2531 C   0  0  0  0  0  0  0  0  0  0  0  0
    0.0544   -6.4574   13.2361 O   0  0  0  0  0  0  0  0  0  0  0  0
    3.9140   -9.3822   13.3038 C   0  0  1  0  0  0  0  0  0  0  0  0
    3.0725   -8.8774   14.3853 O   0  0  0  0  0  0  0  0  0  0  0  0
   -6.0184   -2.5925   14.4522 C   0  0  0  0  0  0  0  0  0  0  0  0
   -5.6720   -1.7658   13.3540 O   0  0  0  0  0  0  0  0  0  0  0  0
   -0.4224   -5.1087   19.8530 C   0  0  1  0  0  0  0  0  0  0  0  0
    0.9510   -5.4320   19.6410 O   0  0  0  0  0  0  0  0  0  0  0  0
    3.7263   -8.4828   12.0552 C   0  0  0  0  0  0  0  0  0  0  0  0
    2.3214   -8.0844   11.8542 N   0  0  0  0  0  0  0  0  0  0  0  0
  1  2  1  6  0  0  0
  1  7  1  0  0  0  0
  1 30  1  0  0  0  0
  3  4  1  1  0  0  0
  3  9  1  0  0  0  0
  3 39  1  0  0  0  0
  5 10  1  0  0  0  0
  5 26  1  0  0  0  0
  5 32  1  6  0  0  0
  6 12  1  0  0  0  0
  6 36  1  0  0  0  0
  6 19  1  1  0  0  0
  7  8  1  1  0  0  0
  7 14  1  0  0  0  0
  9 16  1  0  0  0  0
 10 11  1  1  0  0  0
 10 18  1  0  0  0  0
 12 13  1  6  0  0  0
 12 20  1  0  0  0  0
 14 15  1  6  0  0  0
 14 22  1  0  0  0  0
 16 17  1  1  0  0  0
 16 24  1  0  0  0  0
 18 19  1  1  0  0  0
 18 25  1  0  0  0  0
 20 21  1  6  0  0  0
 20 27  1  0  0  0  0
 22 23  1  6  0  0  0
 22 29  1  0  0  0  0
 24  2  1  6  0  0  0
 24 31  1  0  0  0  0
 25 26  1  0  0  0  0
 25 33  1  6  0  0  0
 27 28  1  1  0  0  0
 27 35  1  0  0  0  0
 29 30  1  0  0  0  0
 29 37  1  6  0  0  0
 31 32  1  1  0  0  0
 31 39  1  0  0  0  0
 33 34  1  0  0  0  0
 35 36  1  0  0  0  0
 35 41  1  6  0  0  0
 37 38  1  0  0  0  0
 39 40  1  6  0  0  0
 41 42  1  0  0  0  0
M  END
>  <CHROM.1>
-103.33810065,-119.67418515,55.54679446,178.47976070,61.59213206,47.21890420
50.47044028,-40.28700396,164.24161887,172.35607163,-179.03950694,56.96971878
-152.28468243,-43.38107123,-66.23045545,167.24260242,175.57601048,58.03586836
-162.26802970,39.33889791,157.45231162,-30.50230798,-0.30081659,-6.48188317
16.12495476,2.82123043,-0.55306070,1.34180522

>  <Name>
1fyp_lig

>  <RI>
0

>  <Rbt.Current_Directory>
/home/afrankz/demos/rdock_decoys_rna/rnas/1fyp

>  <Rbt.Executable>
rbdock ($Id: //depot/dev/client3/rdock/2013.1/src/exe/rbdock.cxx#4 $)

>  <Rbt.Library>
libRbt.so (2013.1, Build901 2013/11/27)

>  <Rbt.Parameter_File>
/export/apps/rDock/src/rDock_2013.1_src/data/scripts/dock_solv.prm

>  <Rbt.Receptor>
prm/blind_docking_20.prm

>  <SCORE>
19.4089

>  <SCORE.INTER>
1.94296

>  <SCORE.INTER.CONST>
1

>  <SCORE.INTER.POLAR>
-1.14796

>  <SCORE.INTER.ROT>
14

>  <SCORE.INTER.SOLV>
16.272

>  <SCORE.INTER.VDW>
-13.2355

>  <SCORE.INTER.norm>
0.046261

>  <SCORE.INTRA>
-10.7394

>  <SCORE.INTRA.DIHEDRAL>
-21.1241

>  <SCORE.INTRA.DIHEDRAL.0>
48.7173

>  <SCORE.INTRA.POLAR>
-1.35743

>  <SCORE.INTRA.POLAR.0>
-1.54691

>  <SCORE.INTRA.REPUL>
0.000993807

>  <SCORE.INTRA.REPUL.0>
0

>  <SCORE.INTRA.SOLV>
0.640235

>  <SCORE.INTRA.SOLV.lig_0>
-64.052

>  <SCORE.INTRA.VDW>
4.11289

>  <SCORE.INTRA.VDW.0>
-7.0667

>  <SCORE.INTRA.norm>
-0.255699

>  <SCORE.RESTR>
28.2053

>  <SCORE.RESTR.CAVITY>
28.2053

>  <SCORE.RESTR.norm>
0.671555

>  <SCORE.SYSTEM>
0

>  <SCORE.SYSTEM.CONST>
0

>  <SCORE.SYSTEM.DIHEDRAL>
0

>  <SCORE.SYSTEM.SOLV>
0

>  <SCORE.SYSTEM.norm>
0

>  <SCORE.heavy>
42

>  <SCORE.norm>
0.462117

>  <RMSD>
17.425

$$$$
1fyp_lig
 OpenBabel11021811393D
libRbt.so/2013.1/901 2013/11/27
 42 45  0  0  0  0  0  0  0  0999 V2000
   -3.9017   -5.0960   17.1835 C   0  0  2  0  0  0  0  0  0  0  0  0
   -2.6657   -4.4124   17.5404 O   0  0  0  0  0  0  0  0  0  0  0  0
    0.0061   -3.5207   20.7510 C   0  0  2  0  0  0  0  0  0  0  0  0
    0.7357   -3.4414   22.0300 N   0  0  0  0  0  0  0  0  0  0  0  0
    0.5843   -6.7402   17.3443 C   0  0  1  0  0  0  0  0  0  0  0  0
    3.4798   -8.8819   14.8696 C   0  0  1  0  0  0  0  0  0  0  0  0
   -3.6182   -6.4320   16.4241 C   0  0  2  0  0  0  0  0  0  0  0  0
   -2.6439   -7.2687   17.1563 N   0  0  0  0  0  0  0  0  0  0  0  0
   -1.4941   -3.2668   20.9997 C   0  0  0  0  0  0  0  0  0  0  0  0
    1.2177   -8.0504   17.8196 C   0  0  2  0  0  0  0  0  0  0  0  0
    2.3624   -7.7629   18.6236 O   0  0  0  0  0  0  0  0  0  0  0  0
    3.6971  -10.3965   15.1692 C   0  0  2  0  0  0  0  0  0  0  0  0
    4.3394  -10.6323   16.4853 N   0  0  0  0  0  0  0  0  0  0  0  0
   -3.1098   -6.1511   14.9754 C   0  0  1  0  0  0  0  0  0  0  0  0
   -3.0079   -7.3708   14.2449 O   0  0  0  0  0  0  0  0  0  0  0  0
   -2.3230   -3.3085   19.6868 C   0  0  2  0  0  0  0  0  0  0  0  0
   -3.7460   -3.1355   20.0456 N   0  0  0  0  0  0  0  0  0  0  0  0
    1.6189   -8.7037   16.4943 C   0  0  2  0  0  0  0  0  0  0  0  0
    2.8922   -8.1967   16.0063 O   0  0  0  0  0  0  0  0  0  0  0  0
    4.4951  -11.0818   14.0175 C   0  0  1  0  0  0  0  0  0  0  0  0
    3.6348  -11.2185   12.8885 O   0  0  0  0  0  0  0  0  0  0  0  0
   -4.0567   -5.1948   14.2077 C   0  0  2  0  0  0  0  0  0  0  0  0
   -3.4916   -4.9055   12.9327 O   0  0  0  0  0  0  0  0  0  0  0  0
   -2.0949   -4.6268   18.8632 C   0  0  2  0  0  0  0  0  0  0  0  0
    0.4752   -8.2747   15.5647 C   0  0  2  0  0  0  0  0  0  0  0  0
    0.0487   -6.9806   16.0331 O   0  0  0  0  0  0  0  0  0  0  0  0
    5.7662  -10.2981   13.5700 C   0  0  2  0  0  0  0  0  0  0  0  0
    6.7666  -10.4407   14.5797 O   0  0  0  0  0  0  0  0  0  0  0  0
   -4.2766   -3.8863   15.0187 C   0  0  2  0  0  0  0  0  0  0  0  0
   -4.7474   -4.2268   16.3574 O   0  0  0  0  0  0  0  0  0  0  0  0
   -0.5757   -5.0030   18.7194 C   0  0  2  0  0  0  0  0  0  0  0  0
   -0.4926   -6.3750   18.2535 O   0  0  0  0  0  0  0  0  0  0  0  0
   -0.7095   -9.2571   15.5731 C   0  0  0  0  0  0  0  0  0  0  0  0
   -0.3431  -10.4951   14.9893 O   0  0  0  0  0  0  0  0  0  0  0  0
    5.4368   -8.7894   13.3471 C   0  0  1  0  0  0  0  0  0  0  0  0
    4.7624   -8.2551   14.5270 O   0  0  0  0  0  0  0  0  0  0  0  0
   -5.3187   -2.9174   14.4166 C   0  0  0  0  0  0  0  0  0  0  0  0
   -6.5955   -3.5266   14.3248 O   0  0  0  0  0  0  0  0  0  0  0  0
    0.2086   -4.8926   20.0637 C   0  0  1  0  0  0  0  0  0  0  0  0
    1.5980   -5.0842   19.8018 O   0  0  0  0  0  0  0  0  0  0  0  0
    6.6996   -7.9380   13.0576 C   0  0  0  0  0  0  0  0  0  0  0  0
    7.5804   -7.8191   14.2336 N   0  0  0  0  0  0  0  0  0  0  0  0
  1  2  1  6  0  0  0
  1  7  1  0  0  0  0
  1 30  1  0  0  0  0
  3  4  1  1  0  0  0
  3  9  1  0  0  0  0
  3 39  1  0  0  0  0
  5 10  1  0  0  0  0
  5 26  1  0  0  0  0
  5 32  1  1  0  0  0
  6 12  1  0  0  0  0
  6 36  1  0  0  0  0
  6 19  1  1  0  0  0
  7  8  1  1  0  0  0
  7 14  1  0  0  0  0
  9 16  1  0  0  0  0
 10 11  1  1  0  0  0
 10 18  1  0  0  0  0
 12 13  1  1  0  0  0
 12 20  1  0  0  0  0
 14 15  1  6  0  0  0
 14 22  1  0  0  0  0
 16 17  1  1  0  0  0
 16 24  1  0  0  0  0
 18 19  1  6  0  0  0
 18 25  1  0  0  0  0
 20 21  1  6  0  0  0
 20 27  1  0  0  0  0
 22 23  1  6  0  0  0
 22 29  1  0  0  0  0
 24  2  1  6  0  0  0
 24 31  1  0  0  0  0
 25 26  1  0  0  0  0
 25 33  1  1  0  0  0
 27 28  1  1  0  0  0
 27 35  1  0  0  0  0
 29 30  1  0  0  0  0
 29 37  1  6  0  0  0
 31 32  1  1  0  0  0
 31 39  1  0  0  0  0
 33 34  1  0  0  0  0
 35 36  1  0  0  0  0
 35 41  1  1  0  0  0
 37 38  1  0  0  0  0
 39 40  1  6  0  0  0
 41 42  1  0  0  0  0
M  END
>  <CHROM.1>
-94.68829537,-107.80302761,173.83244922,155.98486206,-177.29263736,-79.62403493
-59.61785952,-170.85878045,170.81288736,-57.51784069,-167.29986012,176.21313082
-67.63784020,160.95440656,60.18124218,144.98740463,134.02738885,71.83114752
-68.71623352,-179.53458435,-76.95136920,125.26325815,0.23538612,-6.78951207
16.38790595,2.64067166,-0.38531194,1.07169593

>  <Name>
1fyp_lig

>  <RI>
0

>  <Rbt.Current_Directory>
/home/afrankz/demos/rdock_decoys_rna/rnas/1fyp

>  <Rbt.Executable>
rbdock ($Id: //depot/dev/client3/rdock/2013.1/src/exe/rbdock.cxx#4 $)

>  <Rbt.Library>
libRbt.so (2013.1, Build901 2013/11/27)

>  <Rbt.Parameter_File>
/export/apps/rDock/src/rDock_2013.1_src/data/scripts/dock_solv.prm

>  <Rbt.Receptor>
prm/blind_docking_20.prm

>  <SCORE>
17.3163

>  <SCORE.INTER>
-7.06612

>  <SCORE.INTER.CONST>
1

>  <SCORE.INTER.POLAR>
-2.72541

>  <SCORE.INTER.ROT>
14

>  <SCORE.INTER.SOLV>
15.8243

>  <SCORE.INTER.VDW>
-13.8341

>  <SCORE.INTER.norm>
-0.168241

>  <SCORE.INTRA>
-4.80006

>  <SCORE.INTRA.DIHEDRAL>
-16.8857

>  <SCORE.INTRA.DIHEDRAL.0>
48.7173

>  <SCORE.INTRA.POLAR>
0.144467

>  <SCORE.INTRA.POLAR.0>
-1.54691

>  <SCORE.INTRA.REPUL>
0.0112452

>  <SCORE.INTRA.REPUL.0>
0

>  <SCORE.INTRA.SOLV>
1.22442

>  <SCORE.INTRA.SOLV.lig_0>
-64.052

>  <SCORE.INTRA.VDW>
2.48319

>  <SCORE.INTRA.VDW.0>
-7.0667

>  <SCORE.INTRA.norm>
-0.114287

>  <SCORE.RESTR>
29.1825

>  <SCORE.RESTR.CAVITY>
29.1825

>  <SCORE.RESTR.norm>
0.694821

>  <SCORE.SYSTEM>
0

>  <SCORE.SYSTEM.CONST>
0

>  <SCORE.SYSTEM.DIHEDRAL>
0

>  <SCORE.SYSTEM.SOLV>
0

>  <SCORE.SYSTEM.norm>
0

>  <SCORE.heavy>
42

>  <SCORE.norm>
0.412293

>  <RMSD>
17.425

$$$$
1fyp_lig
 OpenBabel11021811393D
libRbt.so/2013.1/901 2013/11/27
 42 45  0  0  0  0  0  0  0  0999 V2000
   -4.5484   -5.1674   16.7039 C   0  0  2  0  0  0  0  0  0  0  0  0
   -3.2013   -4.6562   16.9188 O   0  0  0  0  0  0  0  0  0  0  0  0
    0.1930   -4.8050   19.5068 C   0  0  2  0  0  0  0  0  0  0  0  0
    1.1947   -5.1199   20.5422 N   0  0  0  0  0  0  0  0  0  0  0  0
    0.0716   -7.3859   15.9158 C   0  0  1  0  0  0  0  0  0  0  0  0
    2.5466   -8.7105   15.6233 C   0  0  1  0  0  0  0  0  0  0  0  0
   -4.5448   -6.4097   15.7559 C   0  0  2  0  0  0  0  0  0  0  0  0
   -3.5681   -7.4244   16.2055 N   0  0  0  0  0  0  0  0  0  0  0  0
   -1.1829   -4.5971   20.1707 C   0  0  0  0  0  0  0  0  0  0  0  0
   -0.3200   -8.6808   15.1991 C   0  0  2  0  0  0  0  0  0  0  0  0
   -0.1011   -9.7924   16.0686 O   0  0  0  0  0  0  0  0  0  0  0  0
    4.0766   -8.4632   15.4533 C   0  0  2  0  0  0  0  0  0  0  0  0
    4.7737   -9.6087   14.8191 N   0  0  0  0  0  0  0  0  0  0  0  0
   -4.2459   -5.9853   14.2840 C   0  0  1  0  0  0  0  0  0  0  0  0
   -4.4023   -7.0999   13.4094 O   0  0  0  0  0  0  0  0  0  0  0  0
   -2.2849   -4.2340   19.1381 C   0  0  2  0  0  0  0  0  0  0  0  0
   -3.5688   -4.1375   19.8632 N   0  0  0  0  0  0  0  0  0  0  0  0
    0.6580   -8.6953   14.0211 C   0  0  2  0  0  0  0  0  0  0  0  0
    1.9558   -9.2301   14.4036 O   0  0  0  0  0  0  0  0  0  0  0  0
    4.7331   -8.0839   16.8164 C   0  0  1  0  0  0  0  0  0  0  0  0
    4.3471   -6.7524   17.1507 O   0  0  0  0  0  0  0  0  0  0  0  0
   -5.1876   -4.8505   13.8090 C   0  0  2  0  0  0  0  0  0  0  0  0
   -4.8044   -4.4463   12.4981 O   0  0  0  0  0  0  0  0  0  0  0  0
   -2.3714   -5.2606   17.9520 C   0  0  2  0  0  0  0  0  0  0  0  0
    0.7692   -7.2035   13.6767 C   0  0  2  0  0  0  0  0  0  0  0  0
    0.6047   -6.4967   14.9214 O   0  0  0  0  0  0  0  0  0  0  0  0
    4.3325   -9.0189   17.9977 C   0  0  2  0  0  0  0  0  0  0  0  0
    4.9975  -10.2721   17.8305 O   0  0  0  0  0  0  0  0  0  0  0  0
   -5.1239   -3.6481   14.7931 C   0  0  2  0  0  0  0  0  0  0  0  0
   -5.4103   -4.1201   16.1440 O   0  0  0  0  0  0  0  0  0  0  0  0
   -0.9650   -5.6165   17.3473 C   0  0  2  0  0  0  0  0  0  0  0  0
   -1.1170   -6.7950   16.5140 O   0  0  0  0  0  0  0  0  0  0  0  0
   -0.2891   -6.7387   12.6605 C   0  0  0  0  0  0  0  0  0  0  0  0
   -1.5371   -6.5207   13.2950 O   0  0  0  0  0  0  0  0  0  0  0  0
    2.7871   -9.2300   18.0376 C   0  0  1  0  0  0  0  0  0  0  0  0
    2.3162   -9.6559   16.7226 O   0  0  0  0  0  0  0  0  0  0  0  0
   -6.1311   -2.5142   14.4980 C   0  0  0  0  0  0  0  0  0  0  0  0
   -7.4682   -2.9683   14.6215 O   0  0  0  0  0  0  0  0  0  0  0  0
    0.1072   -5.9219   18.4389 C   0  0  1  0  0  0  0  0  0  0  0  0
    1.3785   -6.0636   17.8068 O   0  0  0  0  0  0  0  0  0  0  0  0
    2.3539  -10.2786   19.0939 C   0  0  0  0  0  0  0  0  0  0  0  0
    2.9015  -11.6185   18.8149 N   0  0  0  0  0  0  0  0  0  0  0  0
  1  2  1  6  0  0  0
  1  7  1  0  0  0  0
  1 30  1  0  0  0  0
  3  4  1  1  0  0  0
  3  9  1  0  0  0  0
  3 39  1  0  0  0  0
  5 10  1  0  0  0  0
  5 26  1  0  0  0  0
  5 32  1  6  0  0  0
  6 12  1  0  0  0  0
  6 36  1  0  0  0  0
  6 19  1  6  0  0  0
  7  8  1  1  0  0  0
  7 14  1  0  0  0  0
  9 16  1  0  0  0  0
 10 11  1  1  0  0  0
 10 18  1  0  0  0  0
 12 13  1  1  0  0  0
 12 20  1  0  0  0  0
 14 15  1  6  0  0  0
 14 22  1  0  0  0  0
 16 17  1  1  0  0  0
 16 24  1  0  0  0  0
 18 19  1  1  0  0  0
 18 25  1  0  0  0  0
 20 21  1  1  0  0  0
 20 27  1  0  0  0  0
 22 23  1  6  0  0  0
 22 29  1  0  0  0  0
 24  2  1  6  0  0  0
 24 31  1  0  0  0  0
 25 26  1  0  0  0  0
 25 33  1  6  0  0  0
 27 28  1  6  0  0  0
 27 35  1  0  0  0  0
 29 30  1  0  0  0  0
 29 37  1  6  0  0  0
 31 32  1  6  0  0  0
 31 39  1  0  0  0  0
 33 34  1  0  0  0  0
 35 36  1  0  0  0  0
 35 41  1  1  0  0  0
 37 38  1  0  0  0  0
 39 40  1  6  0  0  0
 41 42  1  0  0  0  0
M  END
>  <CHROM.1>
-84.42914245,-107.27102580,62.88735238,-70.50661041,64.21525858,-145.03960926
-176.66517329,58.70413454,-47.65699399,-138.65879473,57.24861959,-56.30138331
79.65592612,-54.13371041,63.01532681,-175.49457406,174.68199450,-179.51996507
-62.23295911,-178.84815925,-52.34105294,172.98290711,-0.60628882,-6.78223070
16.30226038,-3.13633852,0.54272512,-1.94585819

>  <Name>
1fyp_lig

>  <RI>
0

>  <Rbt.Current_Directory>
/home/afrankz/demos/rdock_decoys_rna/rnas/1fyp

>  <Rbt.Executable>
rbdock ($Id: //depot/dev/client3/rdock/2013.1/src/exe/rbdock.cxx#4 $)

>  <Rbt.Library>
libRbt.so (2013.1, Build901 2013/11/27)

>  <Rbt.Parameter_File>
/export/apps/rDock/src/rDock_2013.1_src/data/scripts/dock_solv.prm

>  <Rbt.Receptor>
prm/blind_docking_20.prm

>  <SCORE>
40.7598

>  <SCORE.INTER>
16.4629

>  <SCORE.INTER.CONST>
1

>  <SCORE.INTER.POLAR>
-3.00179

>  <SCORE.INTER.ROT>
14

>  <SCORE.INTER.SOLV>
15.9624

>  <SCORE.INTER.VDW>
2.72706

>  <SCORE.INTER.norm>
0.391973

>  <SCORE.INTRA>
-10.7287

>  <SCORE.INTRA.DIHEDRAL>
-28.8522

>  <SCORE.INTRA.DIHEDRAL.0>
48.7173

>  <SCORE.INTRA.POLAR>
-0.497447

>  <SCORE.INTRA.POLAR.0>
-1.54691

>  <SCORE.INTRA.REPUL>
0.0011473

>  <SCORE.INTRA.REPUL.0>
0

>  <SCORE.INTRA.SOLV>
4.29583

>  <SCORE.INTRA.SOLV.lig_0>
-64.052

>  <SCORE.INTRA.VDW>
3.2351

>  <SCORE.INTRA.VDW.0>
-7.0667

>  <SCORE.INTRA.norm>
-0.255444

>  <SCORE.RESTR>
35.0256

>  <SCORE.RESTR.CAVITY>
35.0256

>  <SCORE.RESTR.norm>
0.833942

>  <SCORE.SYSTEM>
0

>  <SCORE.SYSTEM.CONST>
0

>  <SCORE.SYSTEM.DIHEDRAL>
0

>  <SCORE.SYSTEM.SOLV>
0

>  <SCORE.SYSTEM.norm>
0

>  <SCORE.heavy>
42

>  <SCORE.norm>
0.970471

>  <RMSD>
17.469

$$$$
1fyp_lig
 OpenBabel11021811393D
libRbt.so/2013.1/901 2013/11/27
 42 45  0  0  0  0  0  0  0  0999 V2000
    2.5206   -8.4102   16.8386 C   0  0  2  0  0  0  0  0  0  0  0  0
    2.1125   -7.0153   16.7385 O   0  0  0  0  0  0  0  0  0  0  0  0
   -1.4295   -7.3879   19.0956 C   0  0  2  0  0  0  0  0  0  0  0  0
   -2.7384   -7.2215   19.7543 N   0  0  0  0  0  0  0  0  0  0  0  0
   -1.1462   -6.8357   14.7828 C   0  0  1  0  0  0  0  0  0  0  0  0
   -3.8350   -4.3276   12.5398 C   0  0  1  0  0  0  0  0  0  0  0  0
    4.0628   -8.5707   16.6442 C   0  0  2  0  0  0  0  0  0  0  0  0
    4.8130   -7.6476   17.5220 N   0  0  0  0  0  0  0  0  0  0  0  0
   -0.5891   -6.1108   19.2950 C   0  0  0  0  0  0  0  0  0  0  0  0
   -1.5693   -7.2803   13.3803 C   0  0  2  0  0  0  0  0  0  0  0  0
   -0.5884   -6.8611   12.4307 O   0  0  0  0  0  0  0  0  0  0  0  0
   -3.4588   -2.9537   11.9056 C   0  0  2  0  0  0  0  0  0  0  0  0
   -2.3151   -2.3025   12.5898 N   0  0  0  0  0  0  0  0  0  0  0  0
    4.4619   -8.3436   15.1524 C   0  0  1  0  0  0  0  0  0  0  0  0
    5.8411   -8.6482   14.9606 O   0  0  0  0  0  0  0  0  0  0  0  0
    0.8182   -6.2264   18.6479 C   0  0  2  0  0  0  0  0  0  0  0  0
    1.5045   -4.9298   18.8253 N   0  0  0  0  0  0  0  0  0  0  0  0
   -2.8847   -6.5193   13.1936 C   0  0  2  0  0  0  0  0  0  0  0  0
   -2.6590   -5.1504   12.7557 O   0  0  0  0  0  0  0  0  0  0  0  0
   -4.6990   -2.0093   11.8499 C   0  0  1  0  0  0  0  0  0  0  0  0
   -5.5765   -2.4732   10.8260 O   0  0  0  0  0  0  0  0  0  0  0  0
    3.6246   -9.2244   14.1914 C   0  0  2  0  0  0  0  0  0  0  0  0
    3.9696   -8.9037   12.8472 O   0  0  0  0  0  0  0  0  0  0  0  0
    0.7611   -6.6430   17.1341 C   0  0  2  0  0  0  0  0  0  0  0  0
   -3.4738   -6.5423   14.6110 C   0  0  2  0  0  0  0  0  0  0  0  0
   -2.3467   -6.5255   15.5083 O   0  0  0  0  0  0  0  0  0  0  0  0
   -5.5022   -1.9343   13.1837 C   0  0  2  0  0  0  0  0  0  0  0  0
   -4.7478   -1.1703   14.1259 O   0  0  0  0  0  0  0  0  0  0  0  0
    2.1057   -8.9974   14.4358 C   0  0  2  0  0  0  0  0  0  0  0  0
    1.8091   -9.2243   15.8466 O   0  0  0  0  0  0  0  0  0  0  0  0
   -0.2097   -7.8501   16.8682 C   0  0  2  0  0  0  0  0  0  0  0  0
   -0.4474   -7.9318   15.4388 O   0  0  0  0  0  0  0  0  0  0  0  0
   -4.3467   -7.7807   14.8812 C   0  0  0  0  0  0  0  0  0  0  0  0
   -5.3702   -7.4833   15.8147 O   0  0  0  0  0  0  0  0  0  0  0  0
   -5.7773   -3.3635   13.7459 C   0  0  1  0  0  0  0  0  0  0  0  0
   -4.5253   -4.1118   13.8174 O   0  0  0  0  0  0  0  0  0  0  0  0
    1.1728   -9.9307   13.6322 C   0  0  0  0  0  0  0  0  0  0  0  0
    1.2208   -9.6377   12.2461 O   0  0  0  0  0  0  0  0  0  0  0  0
   -1.5860   -7.6940   17.5866 C   0  0  1  0  0  0  0  0  0  0  0  0
   -2.3262   -8.9035   17.4287 O   0  0  0  0  0  0  0  0  0  0  0  0
   -6.4319   -3.3378   15.1508 C   0  0  0  0  0  0  0  0  0  0  0  0
   -7.8609   -2.9795   15.0999 N   0  0  0  0  0  0  0  0  0  0  0  0
  1  2  1  6  0  0  0
  1  7  1  0  0  0  0
  1 30  1  0  0  0  0
  3  4  1  6  0  0  0
  3  9  1  0  0  0  0
  3 39  1  0  0  0  0
  5 10  1  0  0  0  0
  5 26  1  0  0  0  0
  5 32  1  1  0  0  0
  6 12  1  0  0  0  0
  6 36  1  0  0  0  0
  6 19  1  1  0  0  0
  7  8  1  1  0  0  0
  7 14  1  0  0  0  0
  9 16  1  0  0  0  0
 10 11  1  6  0  0  0
 10 18  1  0  0  0  0
 12 13  1  1  0  0  0
 12 20  1  0  0  0  0
 14 15  1  1  0  0  0
 14 22  1  0  0  0  0
 16 17  1  6  0  0  0
 16 24  1  0  0  0  0
 18 19  1  1  0  0  0
 18 25  1  0  0  0  0
 20 21  1  6  0  0  0
 20 27  1  0  0  0  0
 22 23  1  6  0  0  0
 22 29  1  0  0  0  0
 24  2  1  1  0  0  0
 24 31  1  0  0  0  0
 25 26  1  0  0  0  0
 25 33  1  6  0  0  0
 27 28  1  1  0  0  0
 27 35  1  0  0  0  0
 29 30  1  0  0  0  0
 29 37  1  6  0  0  0
 31 32  1  6  0  0  0
 31 39  1  0  0  0  0
 33 34  1  0  0  0  0
 35 36  1  0  0  0  0
 35 41  1  1  0  0  0
 37 38  1  0  0  0  0
 39 40  1  1  0  0  0
 41 42  1  0  0  0  0
M  END
>  <CHROM.1>
-168.79800811,92.32151599,78.07539294,17.57964646,-54.37405378,65.89015406
-175.35543662,34.92477094,179.81434830,-172.86024287,-54.08602930,-46.24792509
-149.77293304,-43.12574306,-68.55973935,-64.82167080,-166.74835769,-54.03694379
75.62904404,56.82751977,65.15685374,-174.48864109,-1.13121591,-6.36244291
15.05938411,0.35979671,-0.49675375,1.79877298

>  <Name>
1fyp_lig

>  <RI>
0

>  <Rbt.Current_Directory>
/home/afrankz/demos/rdock_decoys_rna/rnas/1fyp

>  <Rbt.Executable>
rbdock ($Id: //depot/dev/client3/rdock/2013.1/src/exe/rbdock.cxx#4 $)

>  <Rbt.Library>
libRbt.so (2013.1, Build901 2013/11/27)

>  <Rbt.Parameter_File>
/export/apps/rDock/src/rDock_2013.1_src/data/scripts/dock_solv.prm

>  <Rbt.Receptor>
prm/blind_docking_20.prm

>  <SCORE>
18.2494

>  <SCORE.INTER>
-8.68879

>  <SCORE.INTER.CONST>
1

>  <SCORE.INTER.POLAR>
-3.38549

>  <SCORE.INTER.ROT>
14

>  <SCORE.INTER.SOLV>
16.2924

>  <SCORE.INTER.VDW>
-12.8717

>  <SCORE.INTER.norm>
-0.206876

>  <SCORE.INTRA>
-8.88815

>  <SCORE.INTRA.DIHEDRAL>
-31.9939

>  <SCORE.INTRA.DIHEDRAL.0>
48.7173

>  <SCORE.INTRA.POLAR>
0.375929

>  <SCORE.INTRA.POLAR.0>
-1.54691

>  <SCORE.INTRA.REPUL>
0

>  <SCORE.INTRA.REPUL.0>
0

>  <SCORE.INTRA.SOLV>
-1.10287

>  <SCORE.INTRA.SOLV.lig_0>
-64.052

>  <SCORE.INTRA.VDW>
6.38208

>  <SCORE.INTRA.VDW.0>
-7.0667

>  <SCORE.INTRA.norm>
-0.211623

>  <SCORE.RESTR>
35.8263

>  <SCORE.RESTR.CAVITY>
35.8263

>  <SCORE.RESTR.norm>
0.853008

>  <SCORE.SYSTEM>
0

>  <SCORE.SYSTEM.CONST>
0

>  <SCORE.SYSTEM.DIHEDRAL>
0

>  <SCORE.SYSTEM.SOLV>
0

>  <SCORE.SYSTEM.norm>
0

>  <SCORE.heavy>
42

>  <SCORE.norm>
0.434509

>  <RMSD>
17.474

$$$$
1fyp_lig
 OpenBabel11021811393D
libRbt.so/2013.1/901 2013/11/27
 42 45  0  0  0  0  0  0  0  0999 V2000
   -4.3226   -4.7800   16.5563 C   0  0  2  0  0  0  0  0  0  0  0  0
   -3.1483   -4.1621   17.1576 O   0  0  0  0  0  0  0  0  0  0  0  0
   -0.7889   -3.8598   20.7049 C   0  0  2  0  0  0  0  0  0  0  0  0
   -0.1968   -3.9893   22.0491 N   0  0  0  0  0  0  0  0  0  0  0  0
    0.0460   -6.7390   17.1387 C   0  0  1  0  0  0  0  0  0  0  0  0
    3.3070   -9.0816   15.3000 C   0  0  1  0  0  0  0  0  0  0  0  0
   -3.9455   -6.0690   15.7575 C   0  0  2  0  0  0  0  0  0  0  0  0
   -3.1213   -6.9846   16.5749 N   0  0  0  0  0  0  0  0  0  0  0  0
   -2.2905   -3.5351   20.8350 C   0  0  0  0  0  0  0  0  0  0  0  0
    0.4519   -8.1379   17.6100 C   0  0  2  0  0  0  0  0  0  0  0  0
    1.4032   -8.0272   18.6694 O   0  0  0  0  0  0  0  0  0  0  0  0
    4.7524   -9.2501   15.8598 C   0  0  2  0  0  0  0  0  0  0  0  0
    5.3283   -7.9736   16.3489 N   0  0  0  0  0  0  0  0  0  0  0  0
   -3.2011   -5.7056   14.4346 C   0  0  1  0  0  0  0  0  0  0  0  0
   -3.0054   -6.8750   13.6434 O   0  0  0  0  0  0  0  0  0  0  0  0
   -2.9753   -3.3573   19.4523 C   0  0  2  0  0  0  0  0  0  0  0  0
   -4.4166   -3.1316   19.6881 N   0  0  0  0  0  0  0  0  0  0  0  0
    1.0916   -8.7209   16.3469 C   0  0  2  0  0  0  0  0  0  0  0  0
    2.4777   -8.3034   16.2019 O   0  0  0  0  0  0  0  0  0  0  0  0
    5.6821   -9.9241   14.8041 C   0  0  1  0  0  0  0  0  0  0  0  0
    5.3369  -11.3047   14.7116 O   0  0  0  0  0  0  0  0  0  0  0  0
   -3.9899   -4.6693   13.5955 C   0  0  2  0  0  0  0  0  0  0  0  0
   -3.2179   -4.3112   12.4534 O   0  0  0  0  0  0  0  0  0  0  0  0
   -2.7350   -4.5767   18.4913 C   0  0  2  0  0  0  0  0  0  0  0  0
    0.2251   -8.1109   15.2363 C   0  0  2  0  0  0  0  0  0  0  0  0
   -0.1952   -6.8224   15.7250 O   0  0  0  0  0  0  0  0  0  0  0  0
    5.5839   -9.3002   13.3790 C   0  0  2  0  0  0  0  0  0  0  0  0
    6.2355   -8.0291   13.3938 O   0  0  0  0  0  0  0  0  0  0  0  0
   -4.3134   -3.4133   14.4533 C   0  0  2  0  0  0  0  0  0  0  0  0
   -5.0039   -3.8297   15.6697 O   0  0  0  0  0  0  0  0  0  0  0  0
   -1.2328   -5.0367   18.4508 C   0  0  2  0  0  0  0  0  0  0  0  0
   -1.1776   -6.3434   17.8215 O   0  0  0  0  0  0  0  0  0  0  0  0
   -1.0028   -8.9711   14.8884 C   0  0  0  0  0  0  0  0  0  0  0  0
   -1.7999   -9.2015   16.0370 O   0  0  0  0  0  0  0  0  0  0  0  0
    4.0934   -9.1368   12.9473 C   0  0  1  0  0  0  0  0  0  0  0  0
    3.3567   -8.4248   13.9879 O   0  0  0  0  0  0  0  0  0  0  0  0
   -5.2231   -2.3728   13.7627 C   0  0  0  0  0  0  0  0  0  0  0  0
   -5.4908   -1.2745   14.6180 O   0  0  0  0  0  0  0  0  0  0  0  0
   -0.5916   -5.1473   19.8689 C   0  0  1  0  0  0  0  0  0  0  0  0
    0.8049   -5.4010   19.7230 O   0  0  0  0  0  0  0  0  0  0  0  0
    3.9393   -8.3738   11.6067 C   0  0  0  0  0  0  0  0  0  0  0  0
    4.5634   -9.0873   10.4777 N   0  0  0  0  0  0  0  0  0  0  0  0
  1  2  1  6  0  0  0
  1  7  1  0  0  0  0
  1 30  1  0  0  0  0
  3  4  1  1  0  0  0
  3  9  1  0  0  0  0
  3 39  1  0  0  0  0
  5 10  1  0  0  0  0
  5 26  1  0  0  0  0
  5 32  1  1  0  0  0
  6 12  1  0  0  0  0
  6 36  1  0  0  0  0
  6 19  1  1  0  0  0
  7  8  1  1  0  0  0
  7 14  1  0  0  0  0
  9 16  1  0  0  0  0
 10 11  1  1  0  0  0
 10 18  1  0  0  0  0
 12 13  1  6  0  0  0
 12 20  1  0  0  0  0
 14 15  1  6  0  0  0
 14 22  1  0  0  0  0
 16 17  1  1  0  0  0
 16 24  1  0  0  0  0
 18 19  1  6  0  0  0
 18 25  1  0  0  0  0
 20 21  1  6  0  0  0
 20 27  1  0  0  0  0
 22 23  1  6  0  0  0
 22 29  1  0  0  0  0
 24  2  1  6  0  0  0
 24 31  1  0  0  0  0
 25 26  1  0  0  0  0
 25 33  1  1  0  0  0
 27 28  1  1  0  0  0
 27 35  1  0  0  0  0
 29 30  1  0  0  0  0
 29 37  1  6  0  0  0
 31 32  1  1  0  0  0
 31 39  1  0  0  0  0
 33 34  1  0  0  0  0
 35 36  1  0  0  0  0
 35 41  1  6  0  0  0
 37 38  1  0  0  0  0
 39 40  1  6  0  0  0
 41 42  1  0  0  0  0
M  END
>  <CHROM.1>
-89.07058921,-112.13991577,-154.80022290,160.23679925,-70.19073523,25.44565445
-161.96509168,-34.29195870,161.99027704,-141.67272752,57.37508347,58.37522220
56.59835952,57.43147407,178.84177126,153.41819612,130.86223831,-173.22767340
62.73154403,-69.27098292,72.98035724,-158.86609320,-0.19542903,-6.47378307
16.08765685,2.73823875,-0.51446380,1.36581005

>  <Name>
1fyp_lig

>  <RI>
0

>  <Rbt.Current_Directory>
/home/afrankz/demos/rdock_decoys_rna/rnas/1fyp

>  <Rbt.Executable>
rbdock ($Id: //depot/dev/client3/rdock/2013.1/src/exe/rbdock.cxx#4 $)

>  <Rbt.Library>
libRbt.so (2013.1, Build901 2013/11/27)

>  <Rbt.Parameter_File>
/export/apps/rDock/src/rDock_2013.1_src/data/scripts/dock_solv.prm

>  <Rbt.Receptor>
prm/blind_docking_20.prm

>  <SCORE>
32.0666

>  <SCORE.INTER>
8.0413

>  <SCORE.INTER.CONST>
1

>  <SCORE.INTER.POLAR>
-1.79634

>  <SCORE.INTER.ROT>
14

>  <SCORE.INTER.SOLV>
18.4956

>  <SCORE.INTER.VDW>
-7.74987

>  <SCORE.INTER.norm>
0.19146

>  <SCORE.INTRA>
-3.33985

>  <SCORE.INTRA.DIHEDRAL>
-13.5651

>  <SCORE.INTRA.DIHEDRAL.0>
48.7173

>  <SCORE.INTRA.POLAR>
-0.275186

>  <SCORE.INTRA.POLAR.0>
-1.54691

>  <SCORE.INTRA.REPUL>
0.160054

>  <SCORE.INTRA.REPUL.0>
0

>  <SCORE.INTRA.SOLV>
1.43534

>  <SCORE.INTRA.SOLV.lig_0>
-64.052

>  <SCORE.INTRA.VDW>
2.8604

>  <SCORE.INTRA.VDW.0>
-7.0667

>  <SCORE.INTRA.norm>
-0.0795203

>  <SCORE.RESTR>
27.3651

>  <SCORE.RESTR.CAVITY>
27.3651

>  <SCORE.RESTR.norm>
0.65155

>  <SCORE.SYSTEM>
0

>  <SCORE.SYSTEM.CONST>
0

>  <SCORE.SYSTEM.DIHEDRAL>
0

>  <SCORE.SYSTEM.SOLV>
0

>  <SCORE.SYSTEM.norm>
0

>  <SCORE.heavy>
42

>  <SCORE.norm>
0.763489

>  <RMSD>
17.477

$$$$
1fyp_lig
 OpenBabel11021811393D
libRbt.so/2013.1/901 2013/11/27
 42 45  0  0  0  0  0  0  0  0999 V2000
   -3.9995   -4.9924   16.9580 C   0  0  2  0  0  0  0  0  0  0  0  0
   -2.7614   -4.3690   17.4059 O   0  0  0  0  0  0  0  0  0  0  0  0
   -0.0155   -4.0144   20.6579 C   0  0  2  0  0  0  0  0  0  0  0  0
    0.7337   -4.1346   21.9223 N   0  0  0  0  0  0  0  0  0  0  0  0
    0.4983   -6.8346   16.9891 C   0  0  1  0  0  0  0  0  0  0  0  0
    3.6191   -8.8989   14.7642 C   0  0  1  0  0  0  0  0  0  0  0  0
   -3.7310   -6.3713   16.2734 C   0  0  2  0  0  0  0  0  0  0  0  0
   -2.8812   -7.2344   17.1212 N   0  0  0  0  0  0  0  0  0  0  0  0
   -1.5017   -3.7440   20.9660 C   0  0  0  0  0  0  0  0  0  0  0  0
    1.1519   -8.0968   17.5577 C   0  0  2  0  0  0  0  0  0  0  0  0
    2.2249   -7.7290   18.4254 O   0  0  0  0  0  0  0  0  0  0  0  0
    3.9066  -10.3960   15.0917 C   0  0  2  0  0  0  0  0  0  0  0  0
    4.5109  -10.5816   16.4335 N   0  0  0  0  0  0  0  0  0  0  0  0
   -3.0760   -6.1774   14.8701 C   0  0  1  0  0  0  0  0  0  0  0  0
   -2.9834   -7.4285   14.1935 O   0  0  0  0  0  0  0  0  0  0  0  0
   -2.3490   -3.5784   19.6749 C   0  0  2  0  0  0  0  0  0  0  0  0
   -3.7597   -3.4058   20.0797 N   0  0  0  0  0  0  0  0  0  0  0  0
    1.6715   -8.7796   16.2895 C   0  0  2  0  0  0  0  0  0  0  0  0
    2.9530   -8.2341   15.8692 O   0  0  0  0  0  0  0  0  0  0  0  0
    4.7833  -11.0496   13.9794 C   0  0  1  0  0  0  0  0  0  0  0  0
    3.9747  -11.2457   12.8213 O   0  0  0  0  0  0  0  0  0  0  0  0
   -3.8878   -5.1980   13.9857 C   0  0  2  0  0  0  0  0  0  0  0  0
   -3.1918   -4.9922   12.7601 O   0  0  0  0  0  0  0  0  0  0  0  0
   -2.1813   -4.7803   18.6770 C   0  0  2  0  0  0  0  0  0  0  0  0
    0.5779   -8.4365   15.2683 C   0  0  2  0  0  0  0  0  0  0  0  0
    0.0657   -7.1466   15.6551 O   0  0  0  0  0  0  0  0  0  0  0  0
    6.0260  -10.2027   13.5688 C   0  0  2  0  0  0  0  0  0  0  0  0
    6.9940  -10.2792   14.6165 O   0  0  0  0  0  0  0  0  0  0  0  0
   -4.0996   -3.8483   14.7283 C   0  0  2  0  0  0  0  0  0  0  0  0
   -4.7108   -4.1082   16.0278 O   0  0  0  0  0  0  0  0  0  0  0  0
   -0.6793   -5.1867   18.4560 C   0  0  2  0  0  0  0  0  0  0  0  0
   -0.6536   -6.4851   17.8080 O   0  0  0  0  0  0  0  0  0  0  0  0
   -0.5619   -9.4702   15.2353 C   0  0  0  0  0  0  0  0  0  0  0  0
   -1.5071   -9.2127   16.2590 O   0  0  0  0  0  0  0  0  0  0  0  0
    5.6241   -8.7168   13.3139 C   0  0  1  0  0  0  0  0  0  0  0  0
    4.8778   -8.2069   14.4609 O   0  0  0  0  0  0  0  0  0  0  0  0
   -5.0204   -2.8443   13.9994 C   0  0  0  0  0  0  0  0  0  0  0  0
   -6.3545   -2.9335   14.4705 O   0  0  0  0  0  0  0  0  0  0  0  0
    0.1265   -5.2869   19.7884 C   0  0  1  0  0  0  0  0  0  0  0  0
    1.5042   -5.4899   19.4776 O   0  0  0  0  0  0  0  0  0  0  0  0
    6.8489   -7.8011   13.0599 C   0  0  0  0  0  0  0  0  0  0  0  0
    7.9216   -8.0080   14.0496 N   0  0  0  0  0  0  0  0  0  0  0  0
  1  2  1  6  0  0  0
  1  7  1  0  0  0  0
  1 30  1  0  0  0  0
  3  4  1  1  0  0  0
  3  9  1  0  0  0  0
  3 39  1  0  0  0  0
  5 10  1  0  0  0  0
  5 26  1  0  0  0  0
  5 32  1  1  0  0  0
  6 12  1  0  0  0  0
  6 36  1  0  0  0  0
  6 19  1  1  0  0  0
  7  8  1  1  0  0  0
  7 14  1  0  0  0  0
  9 16  1  0  0  0  0
 10 11  1  1  0  0  0
 10 18  1  0  0  0  0
 12 13  1  1  0  0  0
 12 20  1  0  0  0  0
 14 15  1  6  0  0  0
 14 22  1  0  0  0  0
 16 17  1  1  0  0  0
 16 24  1  0  0  0  0
 18 19  1  6  0  0  0
 18 25  1  0  0  0  0
 20 21  1  6  0  0  0
 20 27  1  0  0  0  0
 22 23  1  6  0  0  0
 22 29  1  0  0  0  0
 24  2  1  6  0  0  0
 24 31  1  0  0  0  0
 25 26  1  0  0  0  0
 25 33  1  1  0  0  0
 27 28  1  1  0  0  0
 27 35  1  0  0  0  0
 29 30  1  0  0  0  0
 29 37  1  6  0  0  0
 31 32  1  1  0  0  0
 31 39  1  0  0  0  0
 33 34  1  0  0  0  0
 35 36  1  0  0  0  0
 35 41  1  1  0  0  0
 37 38  1  0  0  0  0
 39 40  1  6  0  0  0
 41 42  1  0  0  0  0
M  END
>  <CHROM.1>
-81.98961575,-110.19627444,-165.49766092,161.48588617,17.50599818,163.10023119
-52.27022486,-179.78346171,173.41181963,-59.36847061,63.75168451,-59.78642144
83.01920454,-174.24670992,95.41277019,153.78760271,120.63196330,-67.70459297
-47.30224065,66.55793429,-47.05563314,-66.11136391,0.26813898,-6.81502129
16.27757800,2.71078009,-0.40721862,1.17467296

>  <Name>
1fyp_lig

>  <RI>
0

>  <Rbt.Current_Directory>
/home/afrankz/demos/rdock_decoys_rna/rnas/1fyp

>  <Rbt.Executable>
rbdock ($Id: //depot/dev/client3/rdock/2013.1/src/exe/rbdock.cxx#4 $)

>  <Rbt.Library>
libRbt.so (2013.1, Build901 2013/11/27)

>  <Rbt.Parameter_File>
/export/apps/rDock/src/rDock_2013.1_src/data/scripts/dock_solv.prm

>  <Rbt.Receptor>
prm/blind_docking_20.prm

>  <SCORE>
8.04986

>  <SCORE.INTER>
-8.59779

>  <SCORE.INTER.CONST>
1

>  <SCORE.INTER.POLAR>
-3.30005

>  <SCORE.INTER.ROT>
14

>  <SCORE.INTER.SOLV>
16.12

>  <SCORE.INTER.VDW>
-13.0384

>  <SCORE.INTER.norm>
-0.204709

>  <SCORE.INTRA>
-10.5927

>  <SCORE.INTRA.DIHEDRAL>
-14.684

>  <SCORE.INTRA.DIHEDRAL.0>
48.7173

>  <SCORE.INTRA.POLAR>
-2.81004

>  <SCORE.INTRA.POLAR.0>
-1.54691

>  <SCORE.INTRA.REPUL>
0

>  <SCORE.INTRA.REPUL.0>
0

>  <SCORE.INTRA.SOLV>
3.33425

>  <SCORE.INTRA.SOLV.lig_0>
-64.052

>  <SCORE.INTRA.VDW>
4.63632

>  <SCORE.INTRA.VDW.0>
-7.0667

>  <SCORE.INTRA.norm>
-0.252207

>  <SCORE.RESTR>
27.2404

>  <SCORE.RESTR.CAVITY>
27.2404

>  <SCORE.RESTR.norm>
0.64858

>  <SCORE.SYSTEM>
0

>  <SCORE.SYSTEM.CONST>
0

>  <SCORE.SYSTEM.DIHEDRAL>
0

>  <SCORE.SYSTEM.SOLV>
0

>  <SCORE.SYSTEM.norm>
0

>  <SCORE.heavy>
42

>  <SCORE.norm>
0.191663

>  <RMSD>
17.530

$$$$
1fyp_lig
 OpenBabel11021811393D
libRbt.so/2013.1/901 2013/11/27
 42 45  0  0  0  0  0  0  0  0999 V2000
   -3.9087   -5.6848   16.7473 C   0  0  2  0  0  0  0  0  0  0  0  0
   -2.9522   -4.7015   17.2377 O   0  0  0  0  0  0  0  0  0  0  0  0
   -0.5179   -3.5167   20.5409 C   0  0  2  0  0  0  0  0  0  0  0  0
    0.1332   -3.3390   21.8520 N   0  0  0  0  0  0  0  0  0  0  0  0
    0.1503   -6.7973   17.0281 C   0  0  1  0  0  0  0  0  0  0  0  0
    3.1570   -9.0718   14.7162 C   0  0  1  0  0  0  0  0  0  0  0  0
   -3.9539   -5.7099   15.1854 C   0  0  2  0  0  0  0  0  0  0  0  0
   -2.5972   -5.8347   14.6116 N   0  0  0  0  0  0  0  0  0  0  0  0
   -2.0414   -3.3382   20.6965 C   0  0  0  0  0  0  0  0  0  0  0  0
    0.8752   -8.1210   17.2855 C   0  0  2  0  0  0  0  0  0  0  0  0
    2.1592   -7.8593   17.8532 O   0  0  0  0  0  0  0  0  0  0  0  0
    4.1148   -9.4685   15.8808 C   0  0  2  0  0  0  0  0  0  0  0  0
    4.5931   -8.2953   16.6522 N   0  0  0  0  0  0  0  0  0  0  0  0
   -4.6620   -4.4351   14.6290 C   0  0  1  0  0  0  0  0  0  0  0  0
   -4.8374   -4.5461   13.2188 O   0  0  0  0  0  0  0  0  0  0  0  0
   -2.7916   -3.4855   19.3445 C   0  0  2  0  0  0  0  0  0  0  0  0
   -4.2398   -3.3785   19.6178 N   0  0  0  0  0  0  0  0  0  0  0  0
    0.9988   -8.6913   15.8700 C   0  0  2  0  0  0  0  0  0  0  0  0
    2.1416   -8.1353   15.1619 O   0  0  0  0  0  0  0  0  0  0  0  0
    5.3071  -10.3244   15.3526 C   0  0  1  0  0  0  0  0  0  0  0  0
    4.8235  -11.6274   15.0333 O   0  0  0  0  0  0  0  0  0  0  0  0
   -6.0495   -4.2152   15.2822 C   0  0  2  0  0  0  0  0  0  0  0  0
   -6.6003   -2.9920   14.8034 O   0  0  0  0  0  0  0  0  0  0  0  0
   -2.4458   -4.8239   18.5978 C   0  0  2  0  0  0  0  0  0  0  0  0
   -0.3141   -8.2306   15.2216 C   0  0  2  0  0  0  0  0  0  0  0  0
   -0.6422   -6.9727   15.8428 O   0  0  0  0  0  0  0  0  0  0  0  0
    5.9999   -9.7373   14.0856 C   0  0  2  0  0  0  0  0  0  0  0  0
    6.7672   -8.5970   14.4748 O   0  0  0  0  0  0  0  0  0  0  0  0
   -5.9190   -4.1874   16.8315 C   0  0  2  0  0  0  0  0  0  0  0  0
   -5.2482   -5.4046   17.2768 O   0  0  0  0  0  0  0  0  0  0  0  0
   -0.9026   -5.1186   18.5537 C   0  0  2  0  0  0  0  0  0  0  0  0
   -0.7185   -6.5029   18.1587 O   0  0  0  0  0  0  0  0  0  0  0  0
   -1.4662   -9.2326   15.4149 C   0  0  0  0  0  0  0  0  0  0  0  0
   -1.2063  -10.4409   14.7221 O   0  0  0  0  0  0  0  0  0  0  0  0
    4.9416   -9.3338   13.0124 C   0  0  1  0  0  0  0  0  0  0  0  0
    3.9297   -8.4742   13.6203 O   0  0  0  0  0  0  0  0  0  0  0  0
   -7.2607   -4.1176   17.5944 C   0  0  0  0  0  0  0  0  0  0  0  0
   -7.0670   -4.2615   18.9912 O   0  0  0  0  0  0  0  0  0  0  0  0
   -0.2023   -4.9038   19.9314 C   0  0  1  0  0  0  0  0  0  0  0  0
    1.2080   -5.0271   19.7538 O   0  0  0  0  0  0  0  0  0  0  0  0
    5.5691   -8.5976   11.8010 C   0  0  0  0  0  0  0  0  0  0  0  0
    4.5719   -7.8381   11.0253 N   0  0  0  0  0  0  0  0  0  0  0  0
  1  2  1  6  0  0  0
  1  7  1  0  0  0  0
  1 30  1  0  0  0  0
  3  4  1  1  0  0  0
  3  9  1  0  0  0  0
  3 39  1  0  0  0  0
  5 10  1  0  0  0  0
  5 26  1  0  0  0  0
  5 32  1  1  0  0  0
  6 12  1  0  0  0  0
  6 36  1  0  0  0  0
  6 19  1  1  0  0  0
  7  8  1  6  0  0  0
  7 14  1  0  0  0  0
  9 16  1  0  0  0  0
 10 11  1  6  0  0  0
 10 18  1  0  0  0  0
 12 13  1  6  0  0  0
 12 20  1  0  0  0  0
 14 15  1  6  0  0  0
 14 22  1  0  0  0  0
 16 17  1  1  0  0  0
 16 24  1  0  0  0  0
 18 19  1  6  0  0  0
 18 25  1  0  0  0  0
 20 21  1  6  0  0  0
 20 27  1  0  0  0  0
 22 23  1  6  0  0  0
 22 29  1  0  0  0  0
 24  2  1  6  0  0  0
 24 31  1  0  0  0  0
 25 26  1  0  0  0  0
 25 33  1  1  0  0  0
 27 28  1  1  0  0  0
 27 35  1  0  0  0  0
 29 30  1  0  0  0  0
 29 37  1  1  0  0  0
 31 32  1  1  0  0  0
 31 39  1  0  0  0  0
 33 34  1  0  0  0  0
 35 36  1  0  0  0  0
 35 41  1  6  0  0  0
 37 38  1  0  0  0  0
 39 40  1  6  0  0  0
 41 42  1  0  0  0  0
M  END
>  <CHROM.1>
-159.96786928,-122.34806249,-52.20201673,43.17976464,-73.01261622,-147.79189764
59.19154298,84.95671137,119.90520886,-80.07546674,-61.64866329,-87.41165107
-66.26598799,-58.59012597,172.78729098,126.53561932,145.35825621,65.74260488
-161.09713823,-60.27517962,-178.95150887,-60.10929473,-0.40505768,-6.56035381
16.40217063,2.67437137,-0.35014513,1.16208633

>  <Name>
1fyp_lig

>  <RI>
0

>  <Rbt.Current_Directory>
/home/afrankz/demos/rdock_decoys_rna/rnas/1fyp

>  <Rbt.Executable>
rbdock ($Id: //depot/dev/client3/rdock/2013.1/src/exe/rbdock.cxx#4 $)

>  <Rbt.Library>
libRbt.so (2013.1, Build901 2013/11/27)

>  <Rbt.Parameter_File>
/export/apps/rDock/src/rDock_2013.1_src/data/scripts/dock_solv.prm

>  <Rbt.Receptor>
prm/blind_docking_20.prm

>  <SCORE>
21.8904

>  <SCORE.INTER>
-7.9513

>  <SCORE.INTER.CONST>
1

>  <SCORE.INTER.POLAR>
-3.12098

>  <SCORE.INTER.ROT>
14

>  <SCORE.INTER.SOLV>
17.5601

>  <SCORE.INTER.VDW>
-13.6843

>  <SCORE.INTER.norm>
-0.189317

>  <SCORE.INTRA>
-3.80246

>  <SCORE.INTRA.DIHEDRAL>
-10.9207

>  <SCORE.INTRA.DIHEDRAL.0>
48.7173

>  <SCORE.INTRA.POLAR>
-0.165548

>  <SCORE.INTRA.POLAR.0>
-1.54691

>  <SCORE.INTRA.REPUL>
0

>  <SCORE.INTRA.REPUL.0>
0

>  <SCORE.INTRA.SOLV>
-0.226016

>  <SCORE.INTRA.SOLV.lig_0>
-64.052

>  <SCORE.INTRA.VDW>
2.33376

>  <SCORE.INTRA.VDW.0>
-7.0667

>  <SCORE.INTRA.norm>
-0.0905347

>  <SCORE.RESTR>
33.6442

>  <SCORE.RESTR.CAVITY>
33.6442

>  <SCORE.RESTR.norm>
0.801052

>  <SCORE.SYSTEM>
0

>  <SCORE.SYSTEM.CONST>
0

>  <SCORE.SYSTEM.DIHEDRAL>
0

>  <SCORE.SYSTEM.SOLV>
0

>  <SCORE.SYSTEM.norm>
0

>  <SCORE.heavy>
42

>  <SCORE.norm>
0.5212

>  <RMSD>
17.546

$$$$
1fyp_lig
 OpenBabel11021811393D
libRbt.so/2013.1/901 2013/11/27
 42 45  0  0  0  0  0  0  0  0999 V2000
   -4.4436   -5.0629   16.3992 C   0  0  2  0  0  0  0  0  0  0  0  0
   -3.3428   -4.3618   17.0465 O   0  0  0  0  0  0  0  0  0  0  0  0
   -0.9188   -4.1117   20.5540 C   0  0  2  0  0  0  0  0  0  0  0  0
   -0.3042   -4.2584   21.8864 N   0  0  0  0  0  0  0  0  0  0  0  0
   -0.0928   -7.1141   17.2530 C   0  0  1  0  0  0  0  0  0  0  0  0
    3.0856   -9.6085   15.4868 C   0  0  1  0  0  0  0  0  0  0  0  0
   -3.9350   -5.9837   15.2435 C   0  0  2  0  0  0  0  0  0  0  0  0
   -2.8342   -6.8587   15.6999 N   0  0  0  0  0  0  0  0  0  0  0  0
   -2.4149   -3.7752   20.7134 C   0  0  0  0  0  0  0  0  0  0  0  0
   -0.2392   -8.6214   17.0288 C   0  0  2  0  0  0  0  0  0  0  0  0
    0.1431   -9.3196   18.2145 O   0  0  0  0  0  0  0  0  0  0  0  0
    4.5078   -9.6475   16.1248 C   0  0  2  0  0  0  0  0  0  0  0  0
    4.8912   -8.3561   16.7459 N   0  0  0  0  0  0  0  0  0  0  0  0
   -3.4785   -5.1347   14.0160 C   0  0  1  0  0  0  0  0  0  0  0  0
   -3.1687   -5.9872   12.9164 O   0  0  0  0  0  0  0  0  0  0  0  0
   -3.1223   -3.5791   19.3447 C   0  0  2  0  0  0  0  0  0  0  0  0
   -4.5572   -3.3431   19.6079 N   0  0  0  0  0  0  0  0  0  0  0  0
    0.7574   -8.8678   15.8928 C   0  0  2  0  0  0  0  0  0  0  0  0
    2.1169   -9.0141   16.3896 O   0  0  0  0  0  0  0  0  0  0  0  0
    5.5713  -10.1139   15.0834 C   0  0  1  0  0  0  0  0  0  0  0  0
    5.4076  -11.5134   14.8639 O   0  0  0  0  0  0  0  0  0  0  0  0
   -4.5724   -4.1326   13.5695 C   0  0  2  0  0  0  0  0  0  0  0  0
   -4.0618   -3.3279   12.5109 O   0  0  0  0  0  0  0  0  0  0  0  0
   -2.9098   -4.7919   18.3690 C   0  0  2  0  0  0  0  0  0  0  0  0
    0.6217   -7.5843   15.0617 C   0  0  2  0  0  0  0  0  0  0  0  0
    0.3068   -6.5369   15.9996 O   0  0  0  0  0  0  0  0  0  0  0  0
    5.4741   -9.3896   13.7065 C   0  0  2  0  0  0  0  0  0  0  0  0
    5.9592   -8.0548   13.8601 O   0  0  0  0  0  0  0  0  0  0  0  0
   -5.0138   -3.2452   14.7678 C   0  0  2  0  0  0  0  0  0  0  0  0
   -5.4229   -4.1046   15.8741 O   0  0  0  0  0  0  0  0  0  0  0  0
   -1.4125   -5.2644   18.2978 C   0  0  2  0  0  0  0  0  0  0  0  0
   -1.3799   -6.5658   17.6561 O   0  0  0  0  0  0  0  0  0  0  0  0
   -0.4734   -7.6765   13.9842 C   0  0  0  0  0  0  0  0  0  0  0  0
   -0.2461   -6.7338   12.9511 O   0  0  0  0  0  0  0  0  0  0  0  0
    4.0009   -9.3717   13.1928 C   0  0  1  0  0  0  0  0  0  0  0  0
    3.1246   -8.8432   14.2345 O   0  0  0  0  0  0  0  0  0  0  0  0
   -6.2042   -2.3049   14.4748 C   0  0  0  0  0  0  0  0  0  0  0  0
   -5.8084   -0.9444   14.5178 O   0  0  0  0  0  0  0  0  0  0  0  0
   -0.7475   -5.3933   19.7034 C   0  0  1  0  0  0  0  0  0  0  0  0
    0.6439   -5.6577   19.5305 O   0  0  0  0  0  0  0  0  0  0  0  0
    3.8262   -8.5237   11.9069 C   0  0  0  0  0  0  0  0  0  0  0  0
    2.6098   -7.6918   11.9418 N   0  0  0  0  0  0  0  0  0  0  0  0
  1  2  1  6  0  0  0
  1  7  1  0  0  0  0
  1 30  1  0  0  0  0
  3  4  1  1  0  0  0
  3  9  1  0  0  0  0
  3 39  1  0  0  0  0
  5 10  1  0  0  0  0
  5 26  1  0  0  0  0
  5 32  1  6  0  0  0
  6 12  1  0  0  0  0
  6 36  1  0  0  0  0
  6 19  1  1  0  0  0
  7  8  1  1  0  0  0
  7 14  1  0  0  0  0
  9 16  1  0  0  0  0
 10 11  1  1  0  0  0
 10 18  1  0  0  0  0
 12 13  1  6  0  0  0
 12 20  1  0  0  0  0
 14 15  1  6  0  0  0
 14 22  1  0  0  0  0
 16 17  1  1  0  0  0
 16 24  1  0  0  0  0
 18 19  1  1  0  0  0
 18 25  1  0  0  0  0
 20 21  1  6  0  0  0
 20 27  1  0  0  0  0
 22 23  1  6  0  0  0
 22 29  1  0  0  0  0
 24  2  1  6  0  0  0
 24 31  1  0  0  0  0
 25 26  1  0  0  0  0
 25 33  1  6  0  0  0
 27 28  1  1  0  0  0
 27 35  1  0  0  0  0
 29 30  1  0  0  0  0
 29 37  1  6  0  0  0
 31 32  1  1  0  0  0
 31 39  1  0  0  0  0
 33 34  1  0  0  0  0
 35 36  1  0  0  0  0
 35 41  1  6  0  0  0
 37 38  1  0  0  0  0
 39 40  1  6  0  0  0
 41 42  1  0  0  0  0
M  END
>  <CHROM.1>
-105.89529219,-118.74558102,-178.53077788,174.58967505,-169.82449040,178.40023595
-72.68269307,92.37755701,163.46411855,177.56601683,-57.78762282,67.21326986
-158.03116648,-173.20885878,-113.65963689,169.07248005,162.01424981,62.25605519
-137.67670981,-172.59048480,159.58409203,-139.93550540,-0.41588356,-6.43563904
15.98151019,2.88751286,-0.56878824,1.44511686

>  <Name>
1fyp_lig

>  <RI>
0

>  <Rbt.Current_Directory>
/home/afrankz/demos/rdock_decoys_rna/rnas/1fyp

>  <Rbt.Executable>
rbdock ($Id: //depot/dev/client3/rdock/2013.1/src/exe/rbdock.cxx#4 $)

>  <Rbt.Library>
libRbt.so (2013.1, Build901 2013/11/27)

>  <Rbt.Parameter_File>
/export/apps/rDock/src/rDock_2013.1_src/data/scripts/dock_solv.prm

>  <Rbt.Receptor>
prm/blind_docking_20.prm

>  <SCORE>
23.276

>  <SCORE.INTER>
0.338715

>  <SCORE.INTER.CONST>
1

>  <SCORE.INTER.POLAR>
-2.62457

>  <SCORE.INTER.ROT>
14

>  <SCORE.INTER.SOLV>
17.9938

>  <SCORE.INTER.VDW>
-9.9569

>  <SCORE.INTER.norm>
0.00806463

>  <SCORE.INTRA>
-3.94961

>  <SCORE.INTRA.DIHEDRAL>
-13.3733

>  <SCORE.INTRA.DIHEDRAL.0>
48.7173

>  <SCORE.INTRA.POLAR>
-0.785309

>  <SCORE.INTRA.POLAR.0>
-1.54691

>  <SCORE.INTRA.REPUL>
0.0628101

>  <SCORE.INTRA.REPUL.0>
0

>  <SCORE.INTRA.SOLV>
0.940131

>  <SCORE.INTRA.SOLV.lig_0>
-64.052

>  <SCORE.INTRA.VDW>
4.62296

>  <SCORE.INTRA.VDW.0>
-7.0667

>  <SCORE.INTRA.norm>
-0.0940383

>  <SCORE.RESTR>
26.8869

>  <SCORE.RESTR.CAVITY>
26.8869

>  <SCORE.RESTR.norm>
0.640164

>  <SCORE.SYSTEM>
0

>  <SCORE.SYSTEM.CONST>
0

>  <SCORE.SYSTEM.DIHEDRAL>
0

>  <SCORE.SYSTEM.SOLV>
0

>  <SCORE.SYSTEM.norm>
0

>  <SCORE.heavy>
42

>  <SCORE.norm>
0.554191

>  <RMSD>
17.563

$$$$
1fyp_lig
 OpenBabel11021811393D
libRbt.so/2013.1/901 2013/11/27
 42 45  0  0  0  0  0  0  0  0999 V2000
   -3.5558   -6.7050   16.2851 C   0  0  2  0  0  0  0  0  0  0  0  0
   -2.3092   -6.0889   16.7197 O   0  0  0  0  0  0  0  0  0  0  0  0
   -0.8555   -3.8955   20.0837 C   0  0  2  0  0  0  0  0  0  0  0  0
   -0.5311   -3.3728   21.4238 N   0  0  0  0  0  0  0  0  0  0  0  0
    1.0770   -7.4990   17.4645 C   0  0  1  0  0  0  0  0  0  0  0  0
    4.8528   -8.5747   15.6938 C   0  0  1  0  0  0  0  0  0  0  0  0
   -3.3925   -7.4132   14.9017 C   0  0  2  0  0  0  0  0  0  0  0  0
   -2.2258   -8.3211   14.8985 N   0  0  0  0  0  0  0  0  0  0  0  0
   -2.3854   -4.0156   19.9364 C   0  0  0  0  0  0  0  0  0  0  0  0
    2.3623   -6.9298   18.0708 C   0  0  2  0  0  0  0  0  0  0  0  0
    2.6171   -5.6364   17.5215 O   0  0  0  0  0  0  0  0  0  0  0  0
    4.9428   -8.4375   14.1432 C   0  0  2  0  0  0  0  0  0  0  0  0
    3.6108   -8.4470   13.4904 N   0  0  0  0  0  0  0  0  0  0  0  0
   -3.2663   -6.3652   13.7519 C   0  0  1  0  0  0  0  0  0  0  0  0
   -3.2782   -7.0203   12.4861 O   0  0  0  0  0  0  0  0  0  0  0  0
   -2.8018   -4.5365   18.5337 C   0  0  2  0  0  0  0  0  0  0  0  0
   -4.2715   -4.6904   18.5272 N   0  0  0  0  0  0  0  0  0  0  0  0
    3.4067   -7.9476   17.6042 C   0  0  2  0  0  0  0  0  0  0  0  0
    3.8565   -7.6761   16.2475 O   0  0  0  0  0  0  0  0  0  0  0  0
    5.8771   -9.5322   13.5418 C   0  0  1  0  0  0  0  0  0  0  0  0
    7.2275   -9.1978   13.8550 O   0  0  0  0  0  0  0  0  0  0  0  0
   -4.4215   -5.3333   13.7835 C   0  0  2  0  0  0  0  0  0  0  0  0
   -4.1988   -4.3549   12.7726 O   0  0  0  0  0  0  0  0  0  0  0  0
   -2.0826   -5.8775   18.1429 C   0  0  2  0  0  0  0  0  0  0  0  0
    2.6195   -9.2644   17.6583 C   0  0  2  0  0  0  0  0  0  0  0  0
    1.2526   -8.9209   17.3590 O   0  0  0  0  0  0  0  0  0  0  0  0
    5.5953  -10.9707   14.0721 C   0  0  2  0  0  0  0  0  0  0  0  0
    4.3809  -11.4413   13.4854 O   0  0  0  0  0  0  0  0  0  0  0  0
   -4.5093   -4.6632   15.1840 C   0  0  2  0  0  0  0  0  0  0  0  0
   -4.6224   -5.7005   16.2043 O   0  0  0  0  0  0  0  0  0  0  0  0
   -0.5367   -5.8470   18.4244 C   0  0  2  0  0  0  0  0  0  0  0  0
   -0.0382   -7.2083   18.3542 O   0  0  0  0  0  0  0  0  0  0  0  0
    2.7022   -9.9604   19.0285 C   0  0  0  0  0  0  0  0  0  0  0  0
    4.0286  -10.3746   19.3054 O   0  0  0  0  0  0  0  0  0  0  0  0
    5.4790  -10.9747   15.6280 C   0  0  1  0  0  0  0  0  0  0  0  0
    4.5187   -9.9590   16.0506 O   0  0  0  0  0  0  0  0  0  0  0  0
   -5.7173   -3.7195   15.3770 C   0  0  0  0  0  0  0  0  0  0  0  0
   -5.5884   -2.5498   14.5867 O   0  0  0  0  0  0  0  0  0  0  0  0
   -0.1853   -5.2674   19.8298 C   0  0  1  0  0  0  0  0  0  0  0  0
    1.2307   -5.1213   19.9253 O   0  0  0  0  0  0  0  0  0  0  0  0
    5.0405  -12.3507   16.1914 C   0  0  0  0  0  0  0  0  0  0  0  0
    3.6923  -12.7403   15.7401 N   0  0  0  0  0  0  0  0  0  0  0  0
  1  2  1  6  0  0  0
  1  7  1  0  0  0  0
  1 30  1  0  0  0  0
  3  4  1  1  0  0  0
  3  9  1  0  0  0  0
  3 39  1  0  0  0  0
  5 10  1  0  0  0  0
  5 26  1  0  0  0  0
  5 32  1  1  0  0  0
  6 12  1  0  0  0  0
  6 36  1  0  0  0  0
  6 19  1  6  0  0  0
  7  8  1  1  0  0  0
  7 14  1  0  0  0  0
  9 16  1  0  0  0  0
 10 11  1  6  0  0  0
 10 18  1  0  0  0  0
 12 13  1  6  0  0  0
 12 20  1  0  0  0  0
 14 15  1  6  0  0  0
 14 22  1  0  0  0  0
 16 17  1  1  0  0  0
 16 24  1  0  0  0  0
 18 19  1  6  0  0  0
 18 25  1  0  0  0  0
 20 21  1  1  0  0  0
 20 27  1  0  0  0  0
 22 23  1  6  0  0  0
 22 29  1  0  0  0  0
 24  2  1  6  0  0  0
 24 31  1  0  0  0  0
 25 26  1  0  0  0  0
 25 33  1  1  0  0  0
 27 28  1  6  0  0  0
 27 35  1  0  0  0  0
 29 30  1  0  0  0  0
 29 37  1  6  0  0  0
 31 32  1  1  0  0  0
 31 39  1  0  0  0  0
 33 34  1  0  0  0  0
 35 36  1  0  0  0  0
 35 41  1  6  0  0  0
 37 38  1  0  0  0  0
 39 40  1  6  0  0  0
 41 42  1  0  0  0  0
M  END
>  <CHROM.1>
-154.91294729,-83.10015846,179.93071172,-146.94168321,-51.96289583,35.79786243
-67.98012609,50.02647131,179.85496584,163.60468737,67.58831885,-56.89046772
-65.08613174,-38.88805853,-68.91984468,126.05642916,73.44284540,177.13717549
-63.24566185,-163.55860031,-57.70118677,160.00731278,0.47104554,-7.25571949
16.45518165,2.86473163,-0.50168190,1.18317179

>  <Name>
1fyp_lig

>  <RI>
0

>  <Rbt.Current_Directory>
/home/afrankz/demos/rdock_decoys_rna/rnas/1fyp

>  <Rbt.Executable>
rbdock ($Id: //depot/dev/client3/rdock/2013.1/src/exe/rbdock.cxx#4 $)

>  <Rbt.Library>
libRbt.so (2013.1, Build901 2013/11/27)

>  <Rbt.Parameter_File>
/export/apps/rDock/src/rDock_2013.1_src/data/scripts/dock_solv.prm

>  <Rbt.Receptor>
prm/blind_docking_20.prm

>  <SCORE>
14.0527

>  <SCORE.INTER>
-7.4801

>  <SCORE.INTER.CONST>
1

>  <SCORE.INTER.POLAR>
-3.02746

>  <SCORE.INTER.ROT>
14

>  <SCORE.INTER.SOLV>
16.0482

>  <SCORE.INTER.VDW>
-13.1779

>  <SCORE.INTER.norm>
-0.178098

>  <SCORE.INTRA>
-11.1013

>  <SCORE.INTRA.DIHEDRAL>
-26.4025

>  <SCORE.INTRA.DIHEDRAL.0>
48.7173

>  <SCORE.INTRA.POLAR>
-0.96435

>  <SCORE.INTRA.POLAR.0>
-1.54691

>  <SCORE.INTRA.REPUL>
0.024957

>  <SCORE.INTRA.REPUL.0>
0

>  <SCORE.INTRA.SOLV>
0.419744

>  <SCORE.INTRA.SOLV.lig_0>
-64.052

>  <SCORE.INTRA.VDW>
5.04406

>  <SCORE.INTRA.VDW.0>
-7.0667

>  <SCORE.INTRA.norm>
-0.264318

>  <SCORE.RESTR>
32.6342

>  <SCORE.RESTR.CAVITY>
32.6342

>  <SCORE.RESTR.norm>
0.777004

>  <SCORE.SYSTEM>
0

>  <SCORE.SYSTEM.CONST>
0

>  <SCORE.SYSTEM.DIHEDRAL>
0

>  <SCORE.SYSTEM.SOLV>
0

>  <SCORE.SYSTEM.norm>
0

>  <SCORE.heavy>
42

>  <SCORE.norm>
0.334588

>  <RMSD>
17.571

$$$$
1fyp_lig
 OpenBabel11021811393D
libRbt.so/2013.1/901 2013/11/27
 42 45  0  0  0  0  0  0  0  0999 V2000
   -3.3643   -6.9307   16.1745 C   0  0  2  0  0  0  0  0  0  0  0  0
   -2.1799   -6.3615   16.8035 O   0  0  0  0  0  0  0  0  0  0  0  0
   -1.1371   -3.8816   20.1206 C   0  0  2  0  0  0  0  0  0  0  0  0
   -1.0332   -3.1949   21.4214 N   0  0  0  0  0  0  0  0  0  0  0  0
    0.5273   -8.1708   18.4454 C   0  0  1  0  0  0  0  0  0  0  0  0
    3.8238   -9.2488   15.8102 C   0  0  1  0  0  0  0  0  0  0  0  0
   -3.0531   -7.4519   14.7345 C   0  0  2  0  0  0  0  0  0  0  0  0
   -1.8696   -8.3381   14.7290 N   0  0  0  0  0  0  0  0  0  0  0  0
   -2.5859   -3.7824   19.6027 C   0  0  0  0  0  0  0  0  0  0  0  0
    0.4028   -7.9943   16.9298 C   0  0  2  0  0  0  0  0  0  0  0  0
   -0.2234   -9.1468   16.3650 O   0  0  0  0  0  0  0  0  0  0  0  0
    3.8931   -8.5365   14.4249 C   0  0  2  0  0  0  0  0  0  0  0  0
    2.7947   -8.9463   13.5161 N   0  0  0  0  0  0  0  0  0  0  0  0
   -2.8435   -6.2626   13.7457 C   0  0  1  0  0  0  0  0  0  0  0  0
   -2.7191   -6.7485   12.4115 O   0  0  0  0  0  0  0  0  0  0  0  0
   -2.7630   -4.4636   18.2181 C   0  0  2  0  0  0  0  0  0  0  0  0
   -4.1931   -4.3827   17.8548 N   0  0  0  0  0  0  0  0  0  0  0  0
    1.8702   -7.8940   16.5042 C   0  0  2  0  0  0  0  0  0  0  0  0
    2.4814   -9.2063   16.3604 O   0  0  0  0  0  0  0  0  0  0  0  0
    5.2882   -8.7484   13.7603 C   0  0  1  0  0  0  0  0  0  0  0  0
    6.2454   -7.9471   14.4498 O   0  0  0  0  0  0  0  0  0  0  0  0
   -4.0211   -5.2571   13.7960 C   0  0  2  0  0  0  0  0  0  0  0  0
   -3.7270   -4.1536   12.9449 O   0  0  0  0  0  0  0  0  0  0  0  0
   -2.2488   -5.9480   18.1983 C   0  0  2  0  0  0  0  0  0  0  0  0
    2.4956   -7.1334   17.6819 C   0  0  2  0  0  0  0  0  0  0  0  0
    1.7446   -7.5230   18.8481 O   0  0  0  0  0  0  0  0  0  0  0  0
    5.7845  -10.2260   13.7796 C   0  0  2  0  0  0  0  0  0  0  0  0
    5.0260  -10.9724   12.8266 O   0  0  0  0  0  0  0  0  0  0  0  0
   -4.2579   -4.7749   15.2554 C   0  0  2  0  0  0  0  0  0  0  0  0
   -4.4423   -5.9369   16.1190 O   0  0  0  0  0  0  0  0  0  0  0  0
   -0.8331   -6.1137   18.8605 C   0  0  2  0  0  0  0  0  0  0  0  0
   -0.6068   -7.5282   19.0940 O   0  0  0  0  0  0  0  0  0  0  0  0
    2.4463   -5.6051   17.5070 C   0  0  0  0  0  0  0  0  0  0  0  0
    1.1378   -5.1770   17.1720 O   0  0  0  0  0  0  0  0  0  0  0  0
    5.6225  -10.8462   15.2021 C   0  0  1  0  0  0  0  0  0  0  0  0
    4.2544  -10.6455   15.6717 O   0  0  0  0  0  0  0  0  0  0  0  0
   -5.5013   -3.8785   15.4487 C   0  0  0  0  0  0  0  0  0  0  0  0
   -5.4184   -2.7054   14.6573 O   0  0  0  0  0  0  0  0  0  0  0  0
   -0.7072   -5.3648   20.2235 C   0  0  1  0  0  0  0  0  0  0  0  0
    0.6499   -5.4295   20.6593 O   0  0  0  0  0  0  0  0  0  0  0  0
    5.9513  -12.3608   15.2351 C   0  0  0  0  0  0  0  0  0  0  0  0
    7.2994  -12.6558   14.7168 N   0  0  0  0  0  0  0  0  0  0  0  0
  1  2  1  6  0  0  0
  1  7  1  0  0  0  0
  1 30  1  0  0  0  0
  3  4  1  1  0  0  0
  3  9  1  0  0  0  0
  3 39  1  0  0  0  0
  5 10  1  0  0  0  0
  5 26  1  0  0  0  0
  5 32  1  1  0  0  0
  6 12  1  0  0  0  0
  6 36  1  0  0  0  0
  6 19  1  6  0  0  0
  7  8  1  1  0  0  0
  7 14  1  0  0  0  0
  9 16  1  0  0  0  0
 10 11  1  6  0  0  0
 10 18  1  0  0  0  0
 12 13  1  6  0  0  0
 12 20  1  0  0  0  0
 14 15  1  6  0  0  0
 14 22  1  0  0  0  0
 16 17  1  1  0  0  0
 16 24  1  0  0  0  0
 18 19  1  1  0  0  0
 18 25  1  0  0  0  0
 20 21  1  1  0  0  0
 20 27  1  0  0  0  0
 22 23  1  6  0  0  0
 22 29  1  0  0  0  0
 24  2  1  6  0  0  0
 24 31  1  0  0  0  0
 25 26  1  0  0  0  0
 25 33  1  6  0  0  0
 27 28  1  6  0  0  0
 27 35  1  0  0  0  0
 29 30  1  0  0  0  0
 29 37  1  6  0  0  0
 31 32  1  1  0  0  0
 31 39  1  0  0  0  0
 33 34  1  0  0  0  0
 35 36  1  0  0  0  0
 35 41  1  6  0  0  0
 37 38  1  0  0  0  0
 39 40  1  6  0  0  0
 41 42  1  0  0  0  0
M  END
>  <CHROM.1>
-173.86566303,-87.58579435,79.82596132,29.13319465,-62.06845545,64.85494666
-60.85385837,-127.44859893,173.00062615,-55.48291971,68.84274047,66.03663623
50.42843756,66.79290599,-59.52962345,119.55315677,-57.85144424,-63.50223123
55.46382198,-165.47531803,176.20562990,50.26740684,0.24026659,-7.09648902
16.30960787,2.76817577,-0.48569080,1.21291291

>  <Name>
1fyp_lig

>  <RI>
0

>  <Rbt.Current_Directory>
/home/afrankz/demos/rdock_decoys_rna/rnas/1fyp

>  <Rbt.Executable>
rbdock ($Id: //depot/dev/client3/rdock/2013.1/src/exe/rbdock.cxx#4 $)

>  <Rbt.Library>
libRbt.so (2013.1, Build901 2013/11/27)

>  <Rbt.Parameter_File>
/export/apps/rDock/src/rDock_2013.1_src/data/scripts/dock_solv.prm

>  <Rbt.Receptor>
prm/blind_docking_20.prm

>  <SCORE>
16.1201

>  <SCORE.INTER>
-7.29443

>  <SCORE.INTER.CONST>
1

>  <SCORE.INTER.POLAR>
-3.10431

>  <SCORE.INTER.ROT>
14

>  <SCORE.INTER.SOLV>
15.6067

>  <SCORE.INTER.VDW>
-12.6508

>  <SCORE.INTER.norm>
-0.173677

>  <SCORE.INTRA>
-5.7262

>  <SCORE.INTRA.DIHEDRAL>
-30.6956

>  <SCORE.INTRA.DIHEDRAL.0>
48.7173

>  <SCORE.INTRA.POLAR>
0.455775

>  <SCORE.INTRA.POLAR.0>
-1.54691

>  <SCORE.INTRA.REPUL>
0

>  <SCORE.INTRA.REPUL.0>
0

>  <SCORE.INTRA.SOLV>
2.98351

>  <SCORE.INTRA.SOLV.lig_0>
-64.052

>  <SCORE.INTRA.VDW>
6.58019

>  <SCORE.INTRA.VDW.0>
-7.0667

>  <SCORE.INTRA.norm>
-0.136338

>  <SCORE.RESTR>
29.1407

>  <SCORE.RESTR.CAVITY>
29.1407

>  <SCORE.RESTR.norm>
0.693827

>  <SCORE.SYSTEM>
0

>  <SCORE.SYSTEM.CONST>
0

>  <SCORE.SYSTEM.DIHEDRAL>
0

>  <SCORE.SYSTEM.SOLV>
0

>  <SCORE.SYSTEM.norm>
0

>  <SCORE.heavy>
42

>  <SCORE.norm>
0.383812

>  <RMSD>
17.580

$$$$
1fyp_lig
 OpenBabel11021811393D
libRbt.so/2013.1/901 2013/11/27
 42 45  0  0  0  0  0  0  0  0999 V2000
   -4.4445   -5.0866   16.7373 C   0  0  2  0  0  0  0  0  0  0  0  0
   -3.1823   -4.4979   17.1646 O   0  0  0  0  0  0  0  0  0  0  0  0
   -0.4964   -3.9926   20.4466 C   0  0  2  0  0  0  0  0  0  0  0  0
    0.2056   -4.0207   21.7431 N   0  0  0  0  0  0  0  0  0  0  0  0
   -0.0761   -7.4297   17.5473 C   0  0  1  0  0  0  0  0  0  0  0  0
    2.9362   -9.9731   15.5913 C   0  0  1  0  0  0  0  0  0  0  0  0
   -4.2160   -6.2757   15.7493 C   0  0  2  0  0  0  0  0  0  0  0  0
   -3.2401   -7.2442   16.2925 N   0  0  0  0  0  0  0  0  0  0  0  0
   -1.9557   -3.5451   20.6631 C   0  0  0  0  0  0  0  0  0  0  0  0
   -0.4302   -8.7514   16.8607 C   0  0  2  0  0  0  0  0  0  0  0  0
   -0.4221   -9.8063   17.8233 O   0  0  0  0  0  0  0  0  0  0  0  0
    4.3097  -10.0851   16.3207 C   0  0  2  0  0  0  0  0  0  0  0  0
    4.6430   -8.8688   17.1016 N   0  0  0  0  0  0  0  0  0  0  0  0
   -3.7454   -5.7571   14.3544 C   0  0  1  0  0  0  0  0  0  0  0  0
   -3.6947   -6.8334   13.4213 O   0  0  0  0  0  0  0  0  0  0  0  0
   -2.7502   -3.4664   19.3308 C   0  0  2  0  0  0  0  0  0  0  0  0
   -4.1465   -3.1102   19.6582 N   0  0  0  0  0  0  0  0  0  0  0  0
    0.7189   -8.9029   15.8602 C   0  0  2  0  0  0  0  0  0  0  0  0
    1.9036   -9.4750   16.4814 O   0  0  0  0  0  0  0  0  0  0  0  0
    5.4462  -10.4416   15.3135 C   0  0  1  0  0  0  0  0  0  0  0  0
    5.3041  -11.8091   14.9349 O   0  0  0  0  0  0  0  0  0  0  0  0
   -4.6921   -4.6652   13.7961 C   0  0  2  0  0  0  0  0  0  0  0  0
   -4.1593   -4.1695   12.5717 O   0  0  0  0  0  0  0  0  0  0  0  0
   -2.6774   -4.7964   18.4978 C   0  0  2  0  0  0  0  0  0  0  0  0
    0.9770   -7.4480   15.4439 C   0  0  2  0  0  0  0  0  0  0  0  0
    0.6626   -6.6445   16.5977 O   0  0  0  0  0  0  0  0  0  0  0  0
    5.4439   -9.5742   14.0183 C   0  0  2  0  0  0  0  0  0  0  0  0
    5.9116   -8.2652   14.3475 O   0  0  0  0  0  0  0  0  0  0  0  0
   -4.8561   -3.5133   14.8279 C   0  0  2  0  0  0  0  0  0  0  0  0
   -5.2939   -4.0721   16.1030 O   0  0  0  0  0  0  0  0  0  0  0  0
   -1.2179   -5.3685   18.3852 C   0  0  2  0  0  0  0  0  0  0  0  0
   -1.3047   -6.7357   17.9058 O   0  0  0  0  0  0  0  0  0  0  0  0
    0.1242   -7.0045   14.2419 C   0  0  0  0  0  0  0  0  0  0  0  0
   -1.2501   -6.9660   14.5845 O   0  0  0  0  0  0  0  0  0  0  0  0
    4.0108   -9.4963   13.4063 C   0  0  1  0  0  0  0  0  0  0  0  0
    3.0608   -9.0788   14.4338 O   0  0  0  0  0  0  0  0  0  0  0  0
   -5.8927   -2.4360   14.4380 C   0  0  0  0  0  0  0  0  0  0  0  0
   -7.2136   -2.9467   14.4984 O   0  0  0  0  0  0  0  0  0  0  0  0
   -0.4593   -5.3735   19.7487 C   0  0  1  0  0  0  0  0  0  0  0  0
    0.8988   -5.7445   19.5171 O   0  0  0  0  0  0  0  0  0  0  0  0
    3.9243   -8.5153   12.2091 C   0  0  0  0  0  0  0  0  0  0  0  0
    5.2531   -8.1174   11.7099 N   0  0  0  0  0  0  0  0  0  0  0  0
  1  2  1  6  0  0  0
  1  7  1  0  0  0  0
  1 30  1  0  0  0  0
  3  4  1  1  0  0  0
  3  9  1  0  0  0  0
  3 39  1  0  0  0  0
  5 10  1  0  0  0  0
  5 26  1  0  0  0  0
  5 32  1  6  0  0  0
  6 12  1  0  0  0  0
  6 36  1  0  0  0  0
  6 19  1  1  0  0  0
  7  8  1  1  0  0  0
  7 14  1  0  0  0  0
  9 16  1  0  0  0  0
 10 11  1  1  0  0  0
 10 18  1  0  0  0  0
 12 13  1  6  0  0  0
 12 20  1  0  0  0  0
 14 15  1  6  0  0  0
 14 22  1  0  0  0  0
 16 17  1  1  0  0  0
 16 24  1  0  0  0  0
 18 19  1  1  0  0  0
 18 25  1  0  0  0  0
 20 21  1  6  0  0  0
 20 27  1  0  0  0  0
 22 23  1  6  0  0  0
 22 29  1  0  0  0  0
 24  2  1  6  0  0  0
 24 31  1  0  0  0  0
 25 26  1  0  0  0  0
 25 33  1  6  0  0  0
 27 28  1  1  0  0  0
 27 35  1  0  0  0  0
 29 30  1  0  0  0  0
 29 37  1  6  0  0  0
 31 32  1  1  0  0  0
 31 39  1  0  0  0  0
 33 34  1  0  0  0  0
 35 36  1  0  0  0  0
 35 41  1  6  0  0  0
 37 38  1  0  0  0  0
 39 40  1  6  0  0  0
 41 42  1  0  0  0  0
M  END
>  <CHROM.1>
-103.80562616,-112.07661514,-52.00590336,-139.05444977,-60.75974436,-146.04147310
61.50955742,-31.09105563,165.21389664,160.00445013,-49.92420385,177.87791004
66.51468641,-54.29374912,69.74176883,171.92869909,-170.75768429,60.06676827
13.51553438,-52.78916316,54.74667343,-170.09181909,-0.38257066,-6.67511584
16.18825754,2.83155511,-0.50639192,1.30852987

>  <Name>
1fyp_lig

>  <RI>
0

>  <Rbt.Current_Directory>
/home/afrankz/demos/rdock_decoys_rna/rnas/1fyp

>  <Rbt.Executable>
rbdock ($Id: //depot/dev/client3/rdock/2013.1/src/exe/rbdock.cxx#4 $)

>  <Rbt.Library>
libRbt.so (2013.1, Build901 2013/11/27)

>  <Rbt.Parameter_File>
/export/apps/rDock/src/rDock_2013.1_src/data/scripts/dock_solv.prm

>  <Rbt.Receptor>
prm/blind_docking_20.prm

>  <SCORE>
22.9462

>  <SCORE.INTER>
0.382746

>  <SCORE.INTER.CONST>
1

>  <SCORE.INTER.POLAR>
-1.50901

>  <SCORE.INTER.ROT>
14

>  <SCORE.INTER.SOLV>
13.8093

>  <SCORE.INTER.VDW>
-12.2512

>  <SCORE.INTER.norm>
0.00911301

>  <SCORE.INTRA>
-5.05466

>  <SCORE.INTRA.DIHEDRAL>
-21.2164

>  <SCORE.INTRA.DIHEDRAL.0>
48.7173

>  <SCORE.INTRA.POLAR>
-0.332148

>  <SCORE.INTRA.POLAR.0>
-1.54691

>  <SCORE.INTRA.REPUL>
0

>  <SCORE.INTRA.REPUL.0>
0

>  <SCORE.INTRA.SOLV>
2.29472

>  <SCORE.INTRA.SOLV.lig_0>
-64.052

>  <SCORE.INTRA.VDW>
5.53551

>  <SCORE.INTRA.VDW.0>
-7.0667

>  <SCORE.INTRA.norm>
-0.120349

>  <SCORE.RESTR>
27.6181

>  <SCORE.RESTR.CAVITY>
27.6181

>  <SCORE.RESTR.norm>
0.657573

>  <SCORE.SYSTEM>
0

>  <SCORE.SYSTEM.CONST>
0

>  <SCORE.SYSTEM.DIHEDRAL>
0

>  <SCORE.SYSTEM.SOLV>
0

>  <SCORE.SYSTEM.norm>
0

>  <SCORE.heavy>
42

>  <SCORE.norm>
0.546337

>  <RMSD>
17.594

$$$$
1fyp_lig
 OpenBabel11021811393D
libRbt.so/2013.1/901 2013/11/27
 42 45  0  0  0  0  0  0  0  0999 V2000
   -4.0996   -5.5568   16.6709 C   0  0  2  0  0  0  0  0  0  0  0  0
   -2.7070   -5.3684   17.0551 O   0  0  0  0  0  0  0  0  0  0  0  0
   -1.0770   -3.1694   20.3335 C   0  0  2  0  0  0  0  0  0  0  0  0
   -0.6704   -2.6527   21.6534 N   0  0  0  0  0  0  0  0  0  0  0  0
    0.3560   -6.8126   17.2488 C   0  0  1  0  0  0  0  0  0  0  0  0
    3.0978   -9.0927   14.6308 C   0  0  1  0  0  0  0  0  0  0  0  0
   -4.2747   -6.8051   15.7473 C   0  0  2  0  0  0  0  0  0  0  0  0
   -3.6330   -8.0007   16.3342 N   0  0  0  0  0  0  0  0  0  0  0  0
   -2.6091   -3.3385   20.2988 C   0  0  0  0  0  0  0  0  0  0  0  0
    1.3072   -7.9832   17.5107 C   0  0  2  0  0  0  0  0  0  0  0  0
    2.6296   -7.4860   17.7197 O   0  0  0  0  0  0  0  0  0  0  0  0
    4.2059   -9.3958   15.6851 C   0  0  2  0  0  0  0  0  0  0  0  0
    4.6879   -8.1742   16.3748 N   0  0  0  0  0  0  0  0  0  0  0  0
   -3.7015   -6.5274   14.3224 C   0  0  1  0  0  0  0  0  0  0  0  0
   -4.0094   -7.6108   13.4488 O   0  0  0  0  0  0  0  0  0  0  0  0
   -3.1123   -3.8557   18.9234 C   0  0  2  0  0  0  0  0  0  0  0  0
   -4.5726   -4.0584   19.0241 N   0  0  0  0  0  0  0  0  0  0  0  0
    1.2087   -8.7668   16.1989 C   0  0  2  0  0  0  0  0  0  0  0  0
    2.0784   -8.2129   15.1727 O   0  0  0  0  0  0  0  0  0  0  0  0
    5.3858  -10.1858   15.0396 C   0  0  1  0  0  0  0  0  0  0  0  0
    4.9583  -11.5254   14.8020 O   0  0  0  0  0  0  0  0  0  0  0  0
   -4.2776   -5.2245   13.7134 C   0  0  2  0  0  0  0  0  0  0  0  0
   -3.6481   -4.9793   12.4594 O   0  0  0  0  0  0  0  0  0  0  0  0
   -2.3815   -5.1671   18.4604 C   0  0  2  0  0  0  0  0  0  0  0  0
   -0.2659   -8.5736   15.8186 C   0  0  2  0  0  0  0  0  0  0  0  0
   -0.6365   -7.2741   16.3184 O   0  0  0  0  0  0  0  0  0  0  0  0
    5.8895   -9.5881   13.6909 C   0  0  2  0  0  0  0  0  0  0  0  0
    6.6171   -8.3905   13.9685 O   0  0  0  0  0  0  0  0  0  0  0  0
   -4.0517   -4.0293   14.6823 C   0  0  2  0  0  0  0  0  0  0  0  0
   -4.6091   -4.3614   15.9895 O   0  0  0  0  0  0  0  0  0  0  0  0
   -0.8206   -5.0886   18.6265 C   0  0  2  0  0  0  0  0  0  0  0  0
   -0.2850   -6.4315   18.4993 O   0  0  0  0  0  0  0  0  0  0  0  0
   -1.1885   -9.6522   16.4138 C   0  0  0  0  0  0  0  0  0  0  0  0
   -1.5086   -9.3553   17.7618 O   0  0  0  0  0  0  0  0  0  0  0  0
    4.6918   -9.2824   12.7388 C   0  0  1  0  0  0  0  0  0  0  0  0
    3.6994   -8.4748   13.4427 O   0  0  0  0  0  0  0  0  0  0  0  0
   -4.7135   -2.7041   14.2430 C   0  0  0  0  0  0  0  0  0  0  0  0
   -6.1141   -2.7313   14.4602 O   0  0  0  0  0  0  0  0  0  0  0  0
   -0.3839   -4.5149   20.0103 C   0  0  1  0  0  0  0  0  0  0  0  0
    1.0299   -4.3229   20.0022 O   0  0  0  0  0  0  0  0  0  0  0  0
    5.1270   -8.5387   11.4501 C   0  0  0  0  0  0  0  0  0  0  0  0
    5.8306   -7.2760   11.7389 N   0  0  0  0  0  0  0  0  0  0  0  0
  1  2  1  6  0  0  0
  1  7  1  0  0  0  0
  1 30  1  0  0  0  0
  3  4  1  1  0  0  0
  3  9  1  0  0  0  0
  3 39  1  0  0  0  0
  5 10  1  0  0  0  0
  5 26  1  0  0  0  0
  5 32  1  1  0  0  0
  6 12  1  0  0  0  0
  6 36  1  0  0  0  0
  6 19  1  1  0  0  0
  7  8  1  1  0  0  0
  7 14  1  0  0  0  0
  9 16  1  0  0  0  0
 10 11  1  6  0  0  0
 10 18  1  0  0  0  0
 12 13  1  6  0  0  0
 12 20  1  0  0  0  0
 14 15  1  6  0  0  0
 14 22  1  0  0  0  0
 16 17  1  1  0  0  0
 16 24  1  0  0  0  0
 18 19  1  6  0  0  0
 18 25  1  0  0  0  0
 20 21  1  6  0  0  0
 20 27  1  0  0  0  0
 22 23  1  6  0  0  0
 22 29  1  0  0  0  0
 24  2  1  6  0  0  0
 24 31  1  0  0  0  0
 25 26  1  0  0  0  0
 25 33  1  1  0  0  0
 27 28  1  1  0  0  0
 27 35  1  0  0  0  0
 29 30  1  0  0  0  0
 29 37  1  6  0  0  0
 31 32  1  1  0  0  0
 31 39  1  0  0  0  0
 33 34  1  0  0  0  0
 35 36  1  0  0  0  0
 35 41  1  6  0  0  0
 37 38  1  0  0  0  0
 39 40  1  6  0  0  0
 41 42  1  0  0  0  0
M  END
>  <CHROM.1>
-130.46064927,-61.16119216,-63.45259395,52.98580159,-52.71873970,94.87783216
54.61325034,46.50886404,120.23049940,-69.48142372,-173.87975166,-63.68217572
81.16673934,57.91725219,75.24677005,102.75691164,157.31160954,167.33481810
-56.90643100,76.29580936,-176.74559962,27.61788838,-0.14952268,-6.68009328
16.15018296,2.69722676,-0.38047056,1.20416488

>  <Name>
1fyp_lig

>  <RI>
0

>  <Rbt.Current_Directory>
/home/afrankz/demos/rdock_decoys_rna/rnas/1fyp

>  <Rbt.Executable>
rbdock ($Id: //depot/dev/client3/rdock/2013.1/src/exe/rbdock.cxx#4 $)

>  <Rbt.Library>
libRbt.so (2013.1, Build901 2013/11/27)

>  <Rbt.Parameter_File>
/export/apps/rDock/src/rDock_2013.1_src/data/scripts/dock_solv.prm

>  <Rbt.Receptor>
prm/blind_docking_20.prm

>  <SCORE>
13.5431

>  <SCORE.INTER>
-13.5261

>  <SCORE.INTER.CONST>
1

>  <SCORE.INTER.POLAR>
-3.64533

>  <SCORE.INTER.ROT>
14

>  <SCORE.INTER.SOLV>
15.9734

>  <SCORE.INTER.VDW>
-15.1241

>  <SCORE.INTER.norm>
-0.32205

>  <SCORE.INTRA>
-2.65915

>  <SCORE.INTRA.DIHEDRAL>
-17.9195

>  <SCORE.INTRA.DIHEDRAL.0>
48.7173

>  <SCORE.INTRA.POLAR>
-0.974451

>  <SCORE.INTRA.POLAR.0>
-1.54691

>  <SCORE.INTRA.REPUL>
0.866854

>  <SCORE.INTRA.REPUL.0>
0

>  <SCORE.INTRA.SOLV>
1.56247

>  <SCORE.INTRA.SOLV.lig_0>
-64.052

>  <SCORE.INTRA.VDW>
4.49821

>  <SCORE.INTRA.VDW.0>
-7.0667

>  <SCORE.INTRA.norm>
-0.063313

>  <SCORE.RESTR>
29.7284

>  <SCORE.RESTR.CAVITY>
29.7284

>  <SCORE.RESTR.norm>
0.707818

>  <SCORE.SYSTEM>
0

>  <SCORE.SYSTEM.CONST>
0

>  <SCORE.SYSTEM.DIHEDRAL>
0

>  <SCORE.SYSTEM.SOLV>
0

>  <SCORE.SYSTEM.norm>
0

>  <SCORE.heavy>
42

>  <SCORE.norm>
0.322455

>  <RMSD>
17.601

$$$$
1fyp_lig
 OpenBabel11021811393D
libRbt.so/2013.1/901 2013/11/27
 42 45  0  0  0  0  0  0  0  0999 V2000
   -4.6686   -4.8866   16.4136 C   0  0  2  0  0  0  0  0  0  0  0  0
   -3.4505   -4.3605   17.0152 O   0  0  0  0  0  0  0  0  0  0  0  0
   -1.0511   -4.3029   20.5480 C   0  0  2  0  0  0  0  0  0  0  0  0
   -0.4501   -4.5170   21.8774 N   0  0  0  0  0  0  0  0  0  0  0  0
   -0.2479   -7.2499   17.2628 C   0  0  1  0  0  0  0  0  0  0  0  0
    2.9333   -9.8141   15.5508 C   0  0  1  0  0  0  0  0  0  0  0  0
   -4.3506   -5.9495   15.3131 C   0  0  2  0  0  0  0  0  0  0  0  0
   -3.4202   -6.9818   15.8175 N   0  0  0  0  0  0  0  0  0  0  0  0
   -2.5424   -3.9470   20.7106 C   0  0  0  0  0  0  0  0  0  0  0  0
   -0.4900   -8.6233   16.6312 C   0  0  2  0  0  0  0  0  0  0  0  0
   -0.4492   -9.6285   17.6449 O   0  0  0  0  0  0  0  0  0  0  0  0
    4.2557  -10.0010   16.3555 C   0  0  2  0  0  0  0  0  0  0  0  0
    4.6411   -8.7845   17.1117 N   0  0  0  0  0  0  0  0  0  0  0  0
   -3.7647   -5.2697   14.0362 C   0  0  1  0  0  0  0  0  0  0  0  0
   -3.6290   -6.2263   12.9882 O   0  0  0  0  0  0  0  0  0  0  0  0
   -3.2352   -3.6803   19.3463 C   0  0  2  0  0  0  0  0  0  0  0  0
   -4.6678   -3.4304   19.6088 N   0  0  0  0  0  0  0  0  0  0  0  0
    0.7028   -8.7453   15.6789 C   0  0  2  0  0  0  0  0  0  0  0  0
    1.8982   -9.2072   16.3675 O   0  0  0  0  0  0  0  0  0  0  0  0
    5.4109  -10.4789   15.4227 C   0  0  1  0  0  0  0  0  0  0  0  0
    5.1838  -11.8452   15.0832 O   0  0  0  0  0  0  0  0  0  0  0  0
   -4.6653   -4.1134   13.5342 C   0  0  2  0  0  0  0  0  0  0  0  0
   -4.0319   -3.4771   12.4284 O   0  0  0  0  0  0  0  0  0  0  0  0
   -3.0358   -4.8541   18.3213 C   0  0  2  0  0  0  0  0  0  0  0  0
    0.8813   -7.2979   15.1997 C   0  0  2  0  0  0  0  0  0  0  0  0
    0.4730   -6.4632   16.3008 O   0  0  0  0  0  0  0  0  0  0  0  0
    5.5404   -9.6629   14.1008 C   0  0  2  0  0  0  0  0  0  0  0  0
    6.0896   -8.3810   14.4102 O   0  0  0  0  0  0  0  0  0  0  0  0
   -4.9227   -3.0930   14.6790 C   0  0  2  0  0  0  0  0  0  0  0  0
   -5.4654   -3.7985   15.8355 O   0  0  0  0  0  0  0  0  0  0  0  0
   -1.5465   -5.3497   18.2410 C   0  0  2  0  0  0  0  0  0  0  0  0
   -1.5313   -6.6229   17.5447 O   0  0  0  0  0  0  0  0  0  0  0  0
    0.0466   -6.9695   13.9490 C   0  0  0  0  0  0  0  0  0  0  0  0
   -1.3394   -7.0652   14.2274 O   0  0  0  0  0  0  0  0  0  0  0  0
    4.1501   -9.5012   13.4112 C   0  0  1  0  0  0  0  0  0  0  0  0
    3.1842   -8.9757   14.3721 O   0  0  0  0  0  0  0  0  0  0  0  0
   -5.9272   -1.9709   14.3342 C   0  0  0  0  0  0  0  0  0  0  0  0
   -5.3386   -0.9935   13.4929 O   0  0  0  0  0  0  0  0  0  0  0  0
   -0.8952   -5.5499   19.6447 C   0  0  1  0  0  0  0  0  0  0  0  0
    0.4927   -5.8314   19.4710 O   0  0  0  0  0  0  0  0  0  0  0  0
    4.1995   -8.5621   12.1788 C   0  0  0  0  0  0  0  0  0  0  0  0
    2.8839   -7.9764   11.8640 N   0  0  0  0  0  0  0  0  0  0  0  0
  1  2  1  6  0  0  0
  1  7  1  0  0  0  0
  1 30  1  0  0  0  0
  3  4  1  1  0  0  0
  3  9  1  0  0  0  0
  3 39  1  0  0  0  0
  5 10  1  0  0  0  0
  5 26  1  0  0  0  0
  5 32  1  6  0  0  0
  6 12  1  0  0  0  0
  6 36  1  0  0  0  0
  6 19  1  1  0  0  0
  7  8  1  1  0  0  0
  7 14  1  0  0  0  0
  9 16  1  0  0  0  0
 10 11  1  1  0  0  0
 10 18  1  0  0  0  0
 12 13  1  6  0  0  0
 12 20  1  0  0  0  0
 14 15  1  6  0  0  0
 14 22  1  0  0  0  0
 16 17  1  1  0  0  0
 16 24  1  0  0  0  0
 18 19  1  1  0  0  0
 18 25  1  0  0  0  0
 20 21  1  6  0  0  0
 20 27  1  0  0  0  0
 22 23  1  6  0  0  0
 22 29  1  0  0  0  0
 24  2  1  6  0  0  0
 24 31  1  0  0  0  0
 25 26  1  0  0  0  0
 25 33  1  6  0  0  0
 27 28  1  1  0  0  0
 27 35  1  0  0  0  0
 29 30  1  0  0  0  0
 29 37  1  6  0  0  0
 31 32  1  1  0  0  0
 31 39  1  0  0  0  0
 33 34  1  0  0  0  0
 35 36  1  0  0  0  0
 35 41  1  6  0  0  0
 37 38  1  0  0  0  0
 39 40  1  6  0  0  0
 41 42  1  0  0  0  0
M  END
>  <CHROM.1>
-101.70994133,-110.27814507,104.67178896,-139.63670473,-179.94859675,-73.22885394
62.27628797,93.16576907,158.57500997,168.67556841,57.61046209,61.10500216
63.88184376,55.38929390,-75.92158730,175.96663601,175.41571832,173.97806064
-156.75424354,59.29257188,78.31087401,-46.31050992,-0.52435539,-6.53309520
16.02273732,2.94776575,-0.58750892,1.46684995

>  <Name>
1fyp_lig

>  <RI>
0

>  <Rbt.Current_Directory>
/home/afrankz/demos/rdock_decoys_rna/rnas/1fyp

>  <Rbt.Executable>
rbdock ($Id: //depot/dev/client3/rdock/2013.1/src/exe/rbdock.cxx#4 $)

>  <Rbt.Library>
libRbt.so (2013.1, Build901 2013/11/27)

>  <Rbt.Parameter_File>
/export/apps/rDock/src/rDock_2013.1_src/data/scripts/dock_solv.prm

>  <Rbt.Receptor>
prm/blind_docking_20.prm

>  <SCORE>
26.2197

>  <SCORE.INTER>
12.3571

>  <SCORE.INTER.CONST>
1

>  <SCORE.INTER.POLAR>
-0.45116

>  <SCORE.INTER.ROT>
14

>  <SCORE.INTER.SOLV>
14.8044

>  <SCORE.INTER.VDW>
-8.12618

>  <SCORE.INTER.norm>
0.294218

>  <SCORE.INTRA>
-13.6438

>  <SCORE.INTRA.DIHEDRAL>
-22.8307

>  <SCORE.INTRA.DIHEDRAL.0>
48.7173

>  <SCORE.INTRA.POLAR>
-1.65944

>  <SCORE.INTRA.POLAR.0>
-1.54691

>  <SCORE.INTRA.REPUL>
0

>  <SCORE.INTRA.REPUL.0>
0

>  <SCORE.INTRA.SOLV>
2.04061

>  <SCORE.INTRA.SOLV.lig_0>
-64.052

>  <SCORE.INTRA.VDW>
2.39334

>  <SCORE.INTRA.VDW.0>
-7.0667

>  <SCORE.INTRA.norm>
-0.324853

>  <SCORE.RESTR>
27.5064

>  <SCORE.RESTR.CAVITY>
27.5064

>  <SCORE.RESTR.norm>
0.654914

>  <SCORE.SYSTEM>
0

>  <SCORE.SYSTEM.CONST>
0

>  <SCORE.SYSTEM.DIHEDRAL>
0

>  <SCORE.SYSTEM.SOLV>
0

>  <SCORE.SYSTEM.norm>
0

>  <SCORE.heavy>
42

>  <SCORE.norm>
0.624279

>  <RMSD>
17.612

$$$$
1fyp_lig
 OpenBabel11021811393D
libRbt.so/2013.1/901 2013/11/27
 42 45  0  0  0  0  0  0  0  0999 V2000
   -3.4842   -6.6786   16.1874 C   0  0  2  0  0  0  0  0  0  0  0  0
   -2.1686   -6.2606   16.6532 O   0  0  0  0  0  0  0  0  0  0  0  0
   -0.8596   -3.7726   19.8684 C   0  0  2  0  0  0  0  0  0  0  0  0
   -0.5853   -3.1373   21.1705 N   0  0  0  0  0  0  0  0  0  0  0  0
    1.1252   -7.5695   17.4948 C   0  0  1  0  0  0  0  0  0  0  0  0
    4.9004   -8.7136   15.6140 C   0  0  1  0  0  0  0  0  0  0  0  0
   -3.3822   -7.5642   14.9039 C   0  0  2  0  0  0  0  0  0  0  0  0
   -2.4176   -8.6690   15.0899 N   0  0  0  0  0  0  0  0  0  0  0  0
   -2.3818   -3.9401   19.6899 C   0  0  0  0  0  0  0  0  0  0  0  0
    2.4577   -6.9855   17.9714 C   0  0  2  0  0  0  0  0  0  0  0  0
    2.6956   -5.7405   17.3136 O   0  0  0  0  0  0  0  0  0  0  0  0
    5.1443   -8.4726   14.0930 C   0  0  2  0  0  0  0  0  0  0  0  0
    3.8889   -8.4908   13.3030 N   0  0  0  0  0  0  0  0  0  0  0  0
   -2.9863   -6.7028   13.6640 C   0  0  1  0  0  0  0  0  0  0  0  0
   -3.0523   -7.4898   12.4773 O   0  0  0  0  0  0  0  0  0  0  0  0
   -2.7463   -4.5807   18.3228 C   0  0  2  0  0  0  0  0  0  0  0  0
   -4.2116   -4.7692   18.2890 N   0  0  0  0  0  0  0  0  0  0  0  0
    3.4515   -8.0559   17.5119 C   0  0  2  0  0  0  0  0  0  0  0  0
    3.8127   -7.8918   16.1122 O   0  0  0  0  0  0  0  0  0  0  0  0
    6.1842   -9.4892   13.5290 C   0  0  1  0  0  0  0  0  0  0  0  0
    7.4785   -9.1242   14.0035 O   0  0  0  0  0  0  0  0  0  0  0  0
   -3.9169   -5.4759   13.4938 C   0  0  2  0  0  0  0  0  0  0  0  0
   -3.4483   -4.6840   12.4066 O   0  0  0  0  0  0  0  0  0  0  0  0
   -1.9877   -5.9312   18.0604 C   0  0  2  0  0  0  0  0  0  0  0  0
    2.6485   -9.3485   17.7141 C   0  0  2  0  0  0  0  0  0  0  0  0
    1.2703   -8.9987   17.4818 O   0  0  0  0  0  0  0  0  0  0  0  0
    5.9140  -10.9689   13.9382 C   0  0  2  0  0  0  0  0  0  0  0  0
    4.7893  -11.4467   13.1984 O   0  0  0  0  0  0  0  0  0  0  0  0
   -3.9534   -4.6396   14.8043 C   0  0  2  0  0  0  0  0  0  0  0  0
   -4.3269   -5.5085   15.9159 O   0  0  0  0  0  0  0  0  0  0  0  0
   -0.4516   -5.8420   18.3803 C   0  0  2  0  0  0  0  0  0  0  0  0
    0.0777   -7.1924   18.4331 O   0  0  0  0  0  0  0  0  0  0  0  0
    2.8125   -9.9462   19.1228 C   0  0  0  0  0  0  0  0  0  0  0  0
    4.1596  -10.3148   19.3614 O   0  0  0  0  0  0  0  0  0  0  0  0
    5.6374  -11.0784   15.4699 C   0  0  1  0  0  0  0  0  0  0  0  0
    4.5937  -10.1300   15.8488 O   0  0  0  0  0  0  0  0  0  0  0  0
   -4.9625   -3.4696   14.7993 C   0  0  0  0  0  0  0  0  0  0  0  0
   -4.6693   -2.5412   13.7690 O   0  0  0  0  0  0  0  0  0  0  0  0
   -0.1533   -5.1441   19.7436 C   0  0  1  0  0  0  0  0  0  0  0  0
    1.2560   -4.9575   19.8653 O   0  0  0  0  0  0  0  0  0  0  0  0
    5.2053  -12.5040   15.8991 C   0  0  0  0  0  0  0  0  0  0  0  0
    6.2623  -13.5057   15.6705 N   0  0  0  0  0  0  0  0  0  0  0  0
  1  2  1  6  0  0  0
  1  7  1  0  0  0  0
  1 30  1  0  0  0  0
  3  4  1  1  0  0  0
  3  9  1  0  0  0  0
  3 39  1  0  0  0  0
  5 10  1  0  0  0  0
  5 26  1  0  0  0  0
  5 32  1  1  0  0  0
  6 12  1  0  0  0  0
  6 36  1  0  0  0  0
  6 19  1  6  0  0  0
  7  8  1  1  0  0  0
  7 14  1  0  0  0  0
  9 16  1  0  0  0  0
 10 11  1  6  0  0  0
 10 18  1  0  0  0  0
 12 13  1  6  0  0  0
 12 20  1  0  0  0  0
 14 15  1  6  0  0  0
 14 22  1  0  0  0  0
 16 17  1  1  0  0  0
 16 24  1  0  0  0  0
 18 19  1  6  0  0  0
 18 25  1  0  0  0  0
 20 21  1  1  0  0  0
 20 27  1  0  0  0  0
 22 23  1  6  0  0  0
 22 29  1  0  0  0  0
 24  2  1  6  0  0  0
 24 31  1  0  0  0  0
 25 26  1  0  0  0  0
 25 33  1  1  0  0  0
 27 28  1  6  0  0  0
 27 35  1  0  0  0  0
 29 30  1  0  0  0  0
 29 37  1  6  0  0  0
 31 32  1  1  0  0  0
 31 39  1  0  0  0  0
 33 34  1  0  0  0  0
 35 36  1  0  0  0  0
 35 41  1  6  0  0  0
 37 38  1  0  0  0  0
 39 40  1  6  0  0  0
 41 42  1  0  0  0  0
M  END
>  <CHROM.1>
-154.75525958,-70.42598222,178.18290793,56.45740450,61.61968396,143.04806661
62.23726881,158.46432436,170.73564357,177.92184245,-173.41248908,-56.84035294
-62.58634490,67.50144475,-60.39745946,119.30028420,77.25079522,-177.24782711
63.60316129,-176.99551186,-53.63797923,-61.70938360,0.71624081,-7.33428830
16.31610918,2.86888753,-0.52228968,1.20854395

>  <Name>
1fyp_lig

>  <RI>
0

>  <Rbt.Current_Directory>
/home/afrankz/demos/rdock_decoys_rna/rnas/1fyp

>  <Rbt.Executable>
rbdock ($Id: //depot/dev/client3/rdock/2013.1/src/exe/rbdock.cxx#4 $)

>  <Rbt.Library>
libRbt.so (2013.1, Build901 2013/11/27)

>  <Rbt.Parameter_File>
/export/apps/rDock/src/rDock_2013.1_src/data/scripts/dock_solv.prm

>  <Rbt.Receptor>
prm/blind_docking_20.prm

>  <SCORE>
17.0259

>  <SCORE.INTER>
-4.59769

>  <SCORE.INTER.CONST>
1

>  <SCORE.INTER.POLAR>
-1.96435

>  <SCORE.INTER.ROT>
14

>  <SCORE.INTER.SOLV>
16.1858

>  <SCORE.INTER.VDW>
-14.8459

>  <SCORE.INTER.norm>
-0.109469

>  <SCORE.INTRA>
-11.3323

>  <SCORE.INTRA.DIHEDRAL>
-32.3987

>  <SCORE.INTRA.DIHEDRAL.0>
48.7173

>  <SCORE.INTRA.POLAR>
0.688865

>  <SCORE.INTRA.POLAR.0>
-1.54691

>  <SCORE.INTRA.REPUL>
0.0202829

>  <SCORE.INTRA.REPUL.0>
0

>  <SCORE.INTRA.SOLV>
-0.955195

>  <SCORE.INTRA.SOLV.lig_0>
-64.052

>  <SCORE.INTRA.VDW>
2.90104

>  <SCORE.INTRA.VDW.0>
-7.0667

>  <SCORE.INTRA.norm>
-0.269817

>  <SCORE.RESTR>
32.9559

>  <SCORE.RESTR.CAVITY>
32.9559

>  <SCORE.RESTR.norm>
0.784665

>  <SCORE.SYSTEM>
0

>  <SCORE.SYSTEM.CONST>
0

>  <SCORE.SYSTEM.DIHEDRAL>
0

>  <SCORE.SYSTEM.SOLV>
0

>  <SCORE.SYSTEM.norm>
0

>  <SCORE.heavy>
42

>  <SCORE.norm>
0.405379

>  <RMSD>
17.662

$$$$
1fyp_lig
 OpenBabel11021811393D
libRbt.so/2013.1/901 2013/11/27
 42 45  0  0  0  0  0  0  0  0999 V2000
   -3.8105   -6.3523   16.1780 C   0  0  2  0  0  0  0  0  0  0  0  0
   -2.5016   -6.0414   16.7370 O   0  0  0  0  0  0  0  0  0  0  0  0
   -1.1300   -3.8112   20.1113 C   0  0  2  0  0  0  0  0  0  0  0  0
   -0.8761   -3.2430   21.4481 N   0  0  0  0  0  0  0  0  0  0  0  0
    0.1609   -7.8882   17.5196 C   0  0  1  0  0  0  0  0  0  0  0  0
    3.1966   -9.2173   14.6507 C   0  0  1  0  0  0  0  0  0  0  0  0
   -3.6940   -7.2999   14.9408 C   0  0  2  0  0  0  0  0  0  0  0  0
   -2.8612   -8.4823   15.2474 N   0  0  0  0  0  0  0  0  0  0  0  0
   -2.6427   -3.7717   19.8160 C   0  0  0  0  0  0  0  0  0  0  0  0
    1.3885   -7.0347   17.1907 C   0  0  2  0  0  0  0  0  0  0  0  0
    1.0621   -6.1091   16.1532 O   0  0  0  0  0  0  0  0  0  0  0  0
    4.3741   -9.5301   15.6237 C   0  0  2  0  0  0  0  0  0  0  0  0
    4.8350   -8.3320   16.3669 N   0  0  0  0  0  0  0  0  0  0  0  0
   -3.1171   -6.5362   13.7078 C   0  0  1  0  0  0  0  0  0  0  0  0
   -3.1653   -7.3653   12.5494 O   0  0  0  0  0  0  0  0  0  0  0  0
   -2.9814   -4.3320   18.4076 C   0  0  2  0  0  0  0  0  0  0  0  0
   -4.4517   -4.3236   18.2601 N   0  0  0  0  0  0  0  0  0  0  0  0
    2.3828   -8.0910   16.7008 C   0  0  2  0  0  0  0  0  0  0  0  0
    2.1681   -8.4267   15.3016 O   0  0  0  0  0  0  0  0  0  0  0  0
    5.5528  -10.2166   14.8671 C   0  0  1  0  0  0  0  0  0  0  0  0
    5.1768  -11.5583   14.5638 O   0  0  0  0  0  0  0  0  0  0  0  0
   -3.9055   -5.2350   13.4154 C   0  0  2  0  0  0  0  0  0  0  0  0
   -3.2754   -4.5406   12.3432 O   0  0  0  0  0  0  0  0  0  0  0  0
   -2.3882   -5.7660   18.1628 C   0  0  2  0  0  0  0  0  0  0  0  0
    2.0489   -9.2891   17.6006 C   0  0  2  0  0  0  0  0  0  0  0  0
    0.6380   -9.1952   17.8771 O   0  0  0  0  0  0  0  0  0  0  0  0
    5.9527   -9.5095   13.5367 C   0  0  2  0  0  0  0  0  0  0  0  0
    6.6370   -8.2966   13.8549 O   0  0  0  0  0  0  0  0  0  0  0  0
   -3.9640   -4.3415   14.6869 C   0  0  2  0  0  0  0  0  0  0  0  0
   -4.5091   -5.1204   15.7941 O   0  0  0  0  0  0  0  0  0  0  0  0
   -0.8829   -5.8876   18.5978 C   0  0  2  0  0  0  0  0  0  0  0  0
   -0.5406   -7.2970   18.6502 O   0  0  0  0  0  0  0  0  0  0  0  0
    2.8466   -9.2956   18.9168 C   0  0  0  0  0  0  0  0  0  0  0  0
    4.1799   -9.7219   18.6971 O   0  0  0  0  0  0  0  0  0  0  0  0
    4.6914   -9.2051   12.6702 C   0  0  1  0  0  0  0  0  0  0  0  0
    3.7021   -8.4954   13.4765 O   0  0  0  0  0  0  0  0  0  0  0  0
   -4.8490   -3.0820   14.5544 C   0  0  0  0  0  0  0  0  0  0  0  0
   -6.2185   -3.3922   14.7484 O   0  0  0  0  0  0  0  0  0  0  0  0
   -0.6018   -5.2617   19.9992 C   0  0  1  0  0  0  0  0  0  0  0  0
    0.8062   -5.2662   20.2301 O   0  0  0  0  0  0  0  0  0  0  0  0
    5.0193   -8.3599   11.4128 C   0  0  0  0  0  0  0  0  0  0  0  0
    5.1869   -6.9288   11.7242 N   0  0  0  0  0  0  0  0  0  0  0  0
  1  2  1  6  0  0  0
  1  7  1  0  0  0  0
  1 30  1  0  0  0  0
  3  4  1  1  0  0  0
  3  9  1  0  0  0  0
  3 39  1  0  0  0  0
  5 10  1  0  0  0  0
  5 26  1  0  0  0  0
  5 32  1  1  0  0  0
  6 12  1  0  0  0  0
  6 36  1  0  0  0  0
  6 19  1  1  0  0  0
  7  8  1  1  0  0  0
  7 14  1  0  0  0  0
  9 16  1  0  0  0  0
 10 11  1  6  0  0  0
 10 18  1  0  0  0  0
 12 13  1  6  0  0  0
 12 20  1  0  0  0  0
 14 15  1  6  0  0  0
 14 22  1  0  0  0  0
 16 17  1  1  0  0  0
 16 24  1  0  0  0  0
 18 19  1  6  0  0  0
 18 25  1  0  0  0  0
 20 21  1  6  0  0  0
 20 27  1  0  0  0  0
 22 23  1  6  0  0  0
 22 29  1  0  0  0  0
 24  2  1  6  0  0  0
 24 31  1  0  0  0  0
 25 26  1  0  0  0  0
 25 33  1  1  0  0  0
 27 28  1  1  0  0  0
 27 35  1  0  0  0  0
 29 30  1  0  0  0  0
 29 37  1  6  0  0  0
 31 32  1  1  0  0  0
 31 39  1  0  0  0  0
 33 34  1  0  0  0  0
 35 36  1  0  0  0  0
 35 41  1  6  0  0  0
 37 38  1  0  0  0  0
 39 40  1  6  0  0  0
 41 42  1  0  0  0  0
M  END
>  <CHROM.1>
-150.21916007,-74.12740681,-55.47191430,46.34570431,53.67991941,-154.41412148
53.57130860,162.68466060,168.51844074,-1.05099848,-62.95718156,68.00450448
-76.51709170,160.57764946,81.15853937,98.87568341,51.43645916,66.80964724
-78.68921423,148.13646784,-32.74584481,46.32892302,0.23808745,-6.93427778
16.10567919,2.86639323,-0.45306248,1.41194814

>  <Name>
1fyp_lig

>  <RI>
0

>  <Rbt.Current_Directory>
/home/afrankz/demos/rdock_decoys_rna/rnas/1fyp

>  <Rbt.Executable>
rbdock ($Id: //depot/dev/client3/rdock/2013.1/src/exe/rbdock.cxx#4 $)

>  <Rbt.Library>
libRbt.so (2013.1, Build901 2013/11/27)

>  <Rbt.Parameter_File>
/export/apps/rDock/src/rDock_2013.1_src/data/scripts/dock_solv.prm

>  <Rbt.Receptor>
prm/blind_docking_20.prm

>  <SCORE>
19.3363

>  <SCORE.INTER>
-10.2334

>  <SCORE.INTER.CONST>
1

>  <SCORE.INTER.POLAR>
-3.61383

>  <SCORE.INTER.ROT>
14

>  <SCORE.INTER.SOLV>
16.2443

>  <SCORE.INTER.VDW>
-13.1243

>  <SCORE.INTER.norm>
-0.243653

>  <SCORE.INTRA>
-1.0106

>  <SCORE.INTRA.DIHEDRAL>
-15.0239

>  <SCORE.INTRA.DIHEDRAL.0>
48.7173

>  <SCORE.INTRA.POLAR>
-0.468349

>  <SCORE.INTRA.POLAR.0>
-1.54691

>  <SCORE.INTRA.REPUL>
0

>  <SCORE.INTRA.REPUL.0>
0

>  <SCORE.INTRA.SOLV>
0.674564

>  <SCORE.INTRA.SOLV.lig_0>
-64.052

>  <SCORE.INTRA.VDW>
7.75644

>  <SCORE.INTRA.VDW.0>
-7.0667

>  <SCORE.INTRA.norm>
-0.024062

>  <SCORE.RESTR>
30.5803

>  <SCORE.RESTR.CAVITY>
30.5803

>  <SCORE.RESTR.norm>
0.728103

>  <SCORE.SYSTEM>
0

>  <SCORE.SYSTEM.CONST>
0

>  <SCORE.SYSTEM.DIHEDRAL>
0

>  <SCORE.SYSTEM.SOLV>
0

>  <SCORE.SYSTEM.norm>
0

>  <SCORE.heavy>
42

>  <SCORE.norm>
0.460388

>  <RMSD>
17.682

$$$$
1fyp_lig
 OpenBabel11021811393D
libRbt.so/2013.1/901 2013/11/27
 42 45  0  0  0  0  0  0  0  0999 V2000
   -2.3108   -7.5027   15.9909 C   0  0  2  0  0  0  0  0  0  0  0  0
   -1.2877   -6.7036   16.6521 O   0  0  0  0  0  0  0  0  0  0  0  0
   -1.2341   -4.0317   19.9836 C   0  0  2  0  0  0  0  0  0  0  0  0
   -1.3655   -3.3730   21.2964 N   0  0  0  0  0  0  0  0  0  0  0  0
    1.6431   -7.4987   17.7569 C   0  0  1  0  0  0  0  0  0  0  0  0
    5.1076   -8.7010   15.3582 C   0  0  1  0  0  0  0  0  0  0  0  0
   -1.7450   -8.2228   14.7246 C   0  0  2  0  0  0  0  0  0  0  0  0
   -0.4998   -8.9564   15.0363 N   0  0  0  0  0  0  0  0  0  0  0  0
   -2.6107   -4.5624   19.5360 C   0  0  0  0  0  0  0  0  0  0  0  0
    3.0412   -6.9342   18.0219 C   0  0  2  0  0  0  0  0  0  0  0  0
    3.1992   -5.7012   17.3189 O   0  0  0  0  0  0  0  0  0  0  0  0
    5.1059   -8.5071   13.8111 C   0  0  2  0  0  0  0  0  0  0  0  0
    3.7441   -8.5793   13.2276 N   0  0  0  0  0  0  0  0  0  0  0  0
   -1.4979   -7.2033   13.5690 C   0  0  1  0  0  0  0  0  0  0  0  0
   -1.1349   -7.8920   12.3750 O   0  0  0  0  0  0  0  0  0  0  0  0
   -2.5521   -5.2470   18.1431 C   0  0  2  0  0  0  0  0  0  0  0  0
   -3.8958   -5.7869   17.8486 N   0  0  0  0  0  0  0  0  0  0  0  0
    3.9375   -8.0279   17.4347 C   0  0  2  0  0  0  0  0  0  0  0  0
    4.0890   -7.8862   15.9947 O   0  0  0  0  0  0  0  0  0  0  0  0
    6.0723   -9.5199   13.1231 C   0  0  1  0  0  0  0  0  0  0  0  0
    7.4144   -9.1112   13.3785 O   0  0  0  0  0  0  0  0  0  0  0  0
   -2.7546   -6.3445   13.2797 C   0  0  2  0  0  0  0  0  0  0  0  0
   -2.4370   -5.3759   12.2848 O   0  0  0  0  0  0  0  0  0  0  0  0
   -1.4529   -6.3663   18.0594 C   0  0  2  0  0  0  0  0  0  0  0  0
    3.1522   -9.3031   17.7718 C   0  0  2  0  0  0  0  0  0  0  0  0
    1.7608   -8.9304   17.7422 O   0  0  0  0  0  0  0  0  0  0  0  0
    5.9083  -10.9902   13.6144 C   0  0  2  0  0  0  0  0  0  0  0  0
    4.6955  -11.5171   13.0740 O   0  0  0  0  0  0  0  0  0  0  0  0
   -3.2464   -5.6509   14.5817 C   0  0  2  0  0  0  0  0  0  0  0  0
   -3.4527   -6.6621   15.6136 O   0  0  0  0  0  0  0  0  0  0  0  0
   -0.0698   -5.9107   18.6507 C   0  0  2  0  0  0  0  0  0  0  0  0
    0.7534   -7.0918   18.8351 O   0  0  0  0  0  0  0  0  0  0  0  0
    3.5141   -9.8879   19.1486 C   0  0  0  0  0  0  0  0  0  0  0  0
    4.8713  -10.2936   19.1841 O   0  0  0  0  0  0  0  0  0  0  0  0
    5.8758  -11.0531   15.1730 C   0  0  1  0  0  0  0  0  0  0  0  0
    4.8788  -10.1148   15.6811 O   0  0  0  0  0  0  0  0  0  0  0  0
   -4.5794   -4.8820   14.4433 C   0  0  0  0  0  0  0  0  0  0  0  0
   -4.9021   -4.1916   15.6386 O   0  0  0  0  0  0  0  0  0  0  0  0
   -0.2047   -5.1867   20.0263 C   0  0  1  0  0  0  0  0  0  0  0  0
    1.0700   -4.6640   20.3971 O   0  0  0  0  0  0  0  0  0  0  0  0
    5.5535  -12.4720   15.7077 C   0  0  0  0  0  0  0  0  0  0  0  0
    4.1723  -12.8880   15.4040 N   0  0  0  0  0  0  0  0  0  0  0  0
  1  2  1  6  0  0  0
  1  7  1  0  0  0  0
  1 30  1  0  0  0  0
  3  4  1  1  0  0  0
  3  9  1  0  0  0  0
  3 39  1  0  0  0  0
  5 10  1  0  0  0  0
  5 26  1  0  0  0  0
  5 32  1  1  0  0  0
  6 12  1  0  0  0  0
  6 36  1  0  0  0  0
  6 19  1  1  0  0  0
  7  8  1  1  0  0  0
  7 14  1  0  0  0  0
  9 16  1  0  0  0  0
 10 11  1  6  0  0  0
 10 18  1  0  0  0  0
 12 13  1  6  0  0  0
 12 20  1  0  0  0  0
 14 15  1  6  0  0  0
 14 22  1  0  0  0  0
 16 17  1  1  0  0  0
 16 24  1  0  0  0  0
 18 19  1  6  0  0  0
 18 25  1  0  0  0  0
 20 21  1  1  0  0  0
 20 27  1  0  0  0  0
 22 23  1  6  0  0  0
 22 29  1  0  0  0  0
 24  2  1  6  0  0  0
 24 31  1  0  0  0  0
 25 26  1  0  0  0  0
 25 33  1  1  0  0  0
 27 28  1  6  0  0  0
 27 35  1  0  0  0  0
 29 30  1  0  0  0  0
 29 37  1  6  0  0  0
 31 32  1  1  0  0  0
 31 39  1  0  0  0  0
 33 34  1  0  0  0  0
 35 36  1  0  0  0  0
 35 41  1  6  0  0  0
 37 38  1  0  0  0  0
 39 40  1  6  0  0  0
 41 42  1  0  0  0  0
M  END
>  <CHROM.1>
-157.74305647,-74.71491506,86.04794416,-160.83617190,-31.81891325,-63.08363685
55.77445617,148.19955522,168.72622696,176.83963490,-178.51243050,63.74526981
-63.29470715,61.86691712,-175.25429457,91.97977247,95.75402132,179.24582300
-67.78938467,-175.10165338,49.68856759,48.41789916,1.10645864,-7.61874896
16.28534226,2.76062190,-0.46860414,1.22287445

>  <Name>
1fyp_lig

>  <RI>
0

>  <Rbt.Current_Directory>
/home/afrankz/demos/rdock_decoys_rna/rnas/1fyp

>  <Rbt.Executable>
rbdock ($Id: //depot/dev/client3/rdock/2013.1/src/exe/rbdock.cxx#4 $)

>  <Rbt.Library>
libRbt.so (2013.1, Build901 2013/11/27)

>  <Rbt.Parameter_File>
/export/apps/rDock/src/rDock_2013.1_src/data/scripts/dock_solv.prm

>  <Rbt.Receptor>
prm/blind_docking_20.prm

>  <SCORE>
22.5048

>  <SCORE.INTER>
0.0745404

>  <SCORE.INTER.CONST>
1

>  <SCORE.INTER.POLAR>
-1.82075

>  <SCORE.INTER.ROT>
14

>  <SCORE.INTER.SOLV>
15.9918

>  <SCORE.INTER.VDW>
-12.1451

>  <SCORE.INTER.norm>
0.00177477

>  <SCORE.INTRA>
-12.6344

>  <SCORE.INTRA.DIHEDRAL>
-28.519

>  <SCORE.INTRA.DIHEDRAL.0>
48.7173

>  <SCORE.INTRA.POLAR>
-0.398737

>  <SCORE.INTRA.POLAR.0>
-1.54691

>  <SCORE.INTRA.REPUL>
0.0191163

>  <SCORE.INTRA.REPUL.0>
0

>  <SCORE.INTRA.SOLV>
0.492652

>  <SCORE.INTRA.SOLV.lig_0>
-64.052

>  <SCORE.INTRA.VDW>
2.63891

>  <SCORE.INTRA.VDW.0>
-7.0667

>  <SCORE.INTRA.norm>
-0.300819

>  <SCORE.RESTR>
35.0646

>  <SCORE.RESTR.CAVITY>
35.0646

>  <SCORE.RESTR.norm>
0.834872

>  <SCORE.SYSTEM>
0

>  <SCORE.SYSTEM.CONST>
0

>  <SCORE.SYSTEM.DIHEDRAL>
0

>  <SCORE.SYSTEM.SOLV>
0

>  <SCORE.SYSTEM.norm>
0

>  <SCORE.heavy>
42

>  <SCORE.norm>
0.535828

>  <RMSD>
17.712

$$$$
1fyp_lig
 OpenBabel11021811393D
libRbt.so/2013.1/901 2013/11/27
 42 45  0  0  0  0  0  0  0  0999 V2000
   -3.3025   -6.2349   16.4596 C   0  0  2  0  0  0  0  0  0  0  0  0
   -2.2951   -5.3095   16.9606 O   0  0  0  0  0  0  0  0  0  0  0  0
   -0.5104   -3.7056   20.4937 C   0  0  2  0  0  0  0  0  0  0  0  0
   -0.0723   -3.4022   21.8687 N   0  0  0  0  0  0  0  0  0  0  0  0
    1.2078   -6.9563   17.4396 C   0  0  1  0  0  0  0  0  0  0  0  0
    4.3634   -8.4425   14.9458 C   0  0  1  0  0  0  0  0  0  0  0  0
   -2.9776   -6.7018   15.0041 C   0  0  2  0  0  0  0  0  0  0  0  0
   -1.5868   -7.1915   14.8959 N   0  0  0  0  0  0  0  0  0  0  0  0
   -2.0510   -3.7351   20.4410 C   0  0  0  0  0  0  0  0  0  0  0  0
    1.8404   -8.3019   17.8042 C   0  0  2  0  0  0  0  0  0  0  0  0
    2.8652   -8.0991   18.7780 O   0  0  0  0  0  0  0  0  0  0  0  0
    4.2238   -9.9541   14.5900 C   0  0  2  0  0  0  0  0  0  0  0  0
    4.5606  -10.8428   15.7289 N   0  0  0  0  0  0  0  0  0  0  0  0
   -3.2269   -5.5492   13.9816 C   0  0  1  0  0  0  0  0  0  0  0  0
   -3.0805   -6.0338   12.6491 O   0  0  0  0  0  0  0  0  0  0  0  0
   -2.5847   -4.0233   19.0112 C   0  0  2  0  0  0  0  0  0  0  0  0
   -4.0579   -4.1099   19.0882 N   0  0  0  0  0  0  0  0  0  0  0  0
    2.4287   -8.7457   16.4621 C   0  0  2  0  0  0  0  0  0  0  0  0
    3.7261   -8.1363   16.2134 O   0  0  0  0  0  0  0  0  0  0  0  0
    5.0668  -10.3076   13.3261 C   0  0  1  0  0  0  0  0  0  0  0  0
    4.4135   -9.7669   12.1796 O   0  0  0  0  0  0  0  0  0  0  0  0
   -4.6443   -4.9420   14.1321 C   0  0  2  0  0  0  0  0  0  0  0  0
   -4.7751   -3.8398   13.2395 O   0  0  0  0  0  0  0  0  0  0  0  0
   -1.9658   -5.3218   18.3793 C   0  0  2  0  0  0  0  0  0  0  0  0
    1.3862   -8.2216   15.4646 C   0  0  2  0  0  0  0  0  0  0  0  0
    0.8459   -7.0215   16.0509 O   0  0  0  0  0  0  0  0  0  0  0  0
    6.5255   -9.7591   13.3602 C   0  0  2  0  0  0  0  0  0  0  0  0
    7.2808  -10.5350   14.2920 O   0  0  0  0  0  0  0  0  0  0  0  0
   -4.8850   -4.4892   15.6001 C   0  0  2  0  0  0  0  0  0  0  0  0
   -4.6314   -5.6137   16.4952 O   0  0  0  0  0  0  0  0  0  0  0  0
   -0.4055   -5.4014   18.5504 C   0  0  2  0  0  0  0  0  0  0  0  0
    0.0132   -6.7577   18.2479 O   0  0  0  0  0  0  0  0  0  0  0  0
    0.2569   -9.2298   15.1872 C   0  0  0  0  0  0  0  0  0  0  0  0
    0.7713  -10.4198   14.6155 O   0  0  0  0  0  0  0  0  0  0  0  0
    6.5421   -8.2547   13.7735 C   0  0  1  0  0  0  0  0  0  0  0  0
    5.7839   -8.0770   15.0088 O   0  0  0  0  0  0  0  0  0  0  0  0
   -6.3191   -3.9993   15.9010 C   0  0  0  0  0  0  0  0  0  0  0  0
   -6.7262   -3.0014   14.9802 O   0  0  0  0  0  0  0  0  0  0  0  0
    0.0668   -5.0526   19.9960 C   0  0  1  0  0  0  0  0  0  0  0  0
    1.4919   -4.9846   20.0096 O   0  0  0  0  0  0  0  0  0  0  0  0
    7.9777   -7.7065   13.9781 C   0  0  0  0  0  0  0  0  0  0  0  0
    8.5946   -7.2586   12.7165 N   0  0  0  0  0  0  0  0  0  0  0  0
  1  2  1  6  0  0  0
  1  7  1  0  0  0  0
  1 30  1  0  0  0  0
  3  4  1  1  0  0  0
  3  9  1  0  0  0  0
  3 39  1  0  0  0  0
  5 10  1  0  0  0  0
  5 26  1  0  0  0  0
  5 32  1  1  0  0  0
  6 12  1  0  0  0  0
  6 36  1  0  0  0  0
  6 19  1  1  0  0  0
  7  8  1  1  0  0  0
  7 14  1  0  0  0  0
  9 16  1  0  0  0  0
 10 11  1  1  0  0  0
 10 18  1  0  0  0  0
 12 13  1  1  0  0  0
 12 20  1  0  0  0  0
 14 15  1  6  0  0  0
 14 22  1  0  0  0  0
 16 17  1  1  0  0  0
 16 24  1  0  0  0  0
 18 19  1  6  0  0  0
 18 25  1  0  0  0  0
 20 21  1  6  0  0  0
 20 27  1  0  0  0  0
 22 23  1  6  0  0  0
 22 29  1  0  0  0  0
 24  2  1  6  0  0  0
 24 31  1  0  0  0  0
 25 26  1  0  0  0  0
 25 33  1  1  0  0  0
 27 28  1  1  0  0  0
 27 35  1  0  0  0  0
 29 30  1  0  0  0  0
 29 37  1  6  0  0  0
 31 32  1  1  0  0  0
 31 39  1  0  0  0  0
 33 34  1  0  0  0  0
 35 36  1  0  0  0  0
 35 41  1  1  0  0  0
 37 38  1  0  0  0  0
 39 40  1  6  0  0  0
 41 42  1  0  0  0  0
M  END
>  <CHROM.1>
-146.70320249,-107.21949258,-175.82560733,-158.07220332,-55.38219169,78.87564013
-64.82020545,66.54343594,-177.76469073,-42.53674958,64.80761319,-172.27701324
-61.45430880,-67.82843004,-52.36775640,137.19662003,152.30051016,-55.40421213
84.84532104,-88.33134562,-63.40333821,-179.22093923,0.53856744,-6.79171882
16.12242137,2.76611680,-0.34752675,1.20227381

>  <Name>
1fyp_lig

>  <RI>
0

>  <Rbt.Current_Directory>
/home/afrankz/demos/rdock_decoys_rna/rnas/1fyp

>  <Rbt.Executable>
rbdock ($Id: //depot/dev/client3/rdock/2013.1/src/exe/rbdock.cxx#4 $)

>  <Rbt.Library>
libRbt.so (2013.1, Build901 2013/11/27)

>  <Rbt.Parameter_File>
/export/apps/rDock/src/rDock_2013.1_src/data/scripts/dock_solv.prm

>  <Rbt.Receptor>
prm/blind_docking_20.prm

>  <SCORE>
20.2242

>  <SCORE.INTER>
0.9111

>  <SCORE.INTER.CONST>
1

>  <SCORE.INTER.POLAR>
-3.29403

>  <SCORE.INTER.ROT>
14

>  <SCORE.INTER.SOLV>
16.7598

>  <SCORE.INTER.VDW>
-6.93243

>  <SCORE.INTER.norm>
0.0216929

>  <SCORE.INTRA>
-8.28042

>  <SCORE.INTRA.DIHEDRAL>
-19.4805

>  <SCORE.INTRA.DIHEDRAL.0>
48.7173

>  <SCORE.INTRA.POLAR>
-0.400454

>  <SCORE.INTRA.POLAR.0>
-1.54691

>  <SCORE.INTRA.REPUL>
0.00697026

>  <SCORE.INTRA.REPUL.0>
0

>  <SCORE.INTRA.SOLV>
-0.736031

>  <SCORE.INTRA.SOLV.lig_0>
-64.052

>  <SCORE.INTRA.VDW>
3.15453

>  <SCORE.INTRA.VDW.0>
-7.0667

>  <SCORE.INTRA.norm>
-0.197153

>  <SCORE.RESTR>
27.5935

>  <SCORE.RESTR.CAVITY>
27.5935

>  <SCORE.RESTR.norm>
0.656988

>  <SCORE.SYSTEM>
0

>  <SCORE.SYSTEM.CONST>
0

>  <SCORE.SYSTEM.DIHEDRAL>
0

>  <SCORE.SYSTEM.SOLV>
0

>  <SCORE.SYSTEM.norm>
0

>  <SCORE.heavy>
42

>  <SCORE.norm>
0.481528

>  <RMSD>
17.733

$$$$
1fyp_lig
 OpenBabel11021811393D
libRbt.so/2013.1/901 2013/11/27
 42 45  0  0  0  0  0  0  0  0999 V2000
   -3.5660   -6.7842   15.4322 C   0  0  2  0  0  0  0  0  0  0  0  0
   -2.4009   -6.2984   16.1596 O   0  0  0  0  0  0  0  0  0  0  0  0
   -1.5986   -4.3051   19.8506 C   0  0  2  0  0  0  0  0  0  0  0  0
   -1.5485   -3.8435   21.2502 N   0  0  0  0  0  0  0  0  0  0  0  0
    0.7792   -7.9227   17.9538 C   0  0  1  0  0  0  0  0  0  0  0  0
    3.8993   -8.9058   15.3457 C   0  0  1  0  0  0  0  0  0  0  0  0
   -3.2194   -7.1003   13.9416 C   0  0  2  0  0  0  0  0  0  0  0  0
   -2.0272   -7.9687   13.8408 N   0  0  0  0  0  0  0  0  0  0  0  0
   -3.0622   -4.3151   19.3659 C   0  0  0  0  0  0  0  0  0  0  0  0
    1.0861   -7.6862   16.4727 C   0  0  2  0  0  0  0  0  0  0  0  0
    0.9731   -8.9181   15.7593 O   0  0  0  0  0  0  0  0  0  0  0  0
    4.1141  -10.4443   15.4806 C   0  0  2  0  0  0  0  0  0  0  0  0
    4.9070  -10.8075   16.6804 N   0  0  0  0  0  0  0  0  0  0  0  0
   -3.0012   -5.7848   13.1304 C   0  0  1  0  0  0  0  0  0  0  0  0
   -2.8439   -6.0817   11.7452 O   0  0  0  0  0  0  0  0  0  0  0  0
   -3.1879   -4.7668   17.8852 C   0  0  2  0  0  0  0  0  0  0  0  0
   -4.6261   -4.8186   17.5496 N   0  0  0  0  0  0  0  0  0  0  0  0
    2.5390   -7.2059   16.5263 C   0  0  2  0  0  0  0  0  0  0  0  0
    3.4729   -8.3189   16.6028 O   0  0  0  0  0  0  0  0  0  0  0  0
    4.7476  -11.0328   14.1824 C   0  0  1  0  0  0  0  0  0  0  0  0
    3.7521  -11.0545   13.1616 O   0  0  0  0  0  0  0  0  0  0  0  0
   -4.1897   -4.8042   13.2922 C   0  0  2  0  0  0  0  0  0  0  0  0
   -3.8890   -3.5921   12.6074 O   0  0  0  0  0  0  0  0  0  0  0  0
   -2.4834   -6.1428   17.6054 C   0  0  2  0  0  0  0  0  0  0  0  0
    2.5612   -6.3924   17.8279 C   0  0  2  0  0  0  0  0  0  0  0  0
    1.6111   -7.0255   18.7067 O   0  0  0  0  0  0  0  0  0  0  0  0
    5.9732  -10.2291   13.6514 C   0  0  2  0  0  0  0  0  0  0  0  0
    7.0860  -10.4766   14.5122 O   0  0  0  0  0  0  0  0  0  0  0  0
   -4.4619   -4.5290   14.7983 C   0  0  2  0  0  0  0  0  0  0  0  0
   -4.6527   -5.8000   15.4899 O   0  0  0  0  0  0  0  0  0  0  0  0
   -1.0396   -6.2270   18.2207 C   0  0  2  0  0  0  0  0  0  0  0  0
   -0.6221   -7.6169   18.2040 O   0  0  0  0  0  0  0  0  0  0  0  0
    2.1871   -4.9139   17.6213 C   0  0  0  0  0  0  0  0  0  0  0  0
    1.4037   -4.7497   16.4521 O   0  0  0  0  0  0  0  0  0  0  0  0
    5.6565   -8.7020   13.6057 C   0  0  1  0  0  0  0  0  0  0  0  0
    5.1454   -8.2681   14.9030 O   0  0  0  0  0  0  0  0  0  0  0  0
   -5.7181   -3.6766   15.0853 C   0  0  0  0  0  0  0  0  0  0  0  0
   -5.5934   -2.3751   14.5375 O   0  0  0  0  0  0  0  0  0  0  0  0
   -0.9741   -5.7123   19.6922 C   0  0  1  0  0  0  0  0  0  0  0  0
    0.3917   -5.6670   20.1024 O   0  0  0  0  0  0  0  0  0  0  0  0
    6.8949   -7.8452   13.2379 C   0  0  0  0  0  0  0  0  0  0  0  0
    8.0095   -8.0308   14.1846 N   0  0  0  0  0  0  0  0  0  0  0  0
  1  2  1  6  0  0  0
  1  7  1  0  0  0  0
  1 30  1  0  0  0  0
  3  4  1  1  0  0  0
  3  9  1  0  0  0  0
  3 39  1  0  0  0  0
  5 10  1  0  0  0  0
  5 26  1  0  0  0  0
  5 32  1  6  0  0  0
  6 12  1  0  0  0  0
  6 36  1  0  0  0  0
  6 19  1  1  0  0  0
  7  8  1  1  0  0  0
  7 14  1  0  0  0  0
  9 16  1  0  0  0  0
 10 11  1  6  0  0  0
 10 18  1  0  0  0  0
 12 13  1  1  0  0  0
 12 20  1  0  0  0  0
 14 15  1  6  0  0  0
 14 22  1  0  0  0  0
 16 17  1  1  0  0  0
 16 24  1  0  0  0  0
 18 19  1  1  0  0  0
 18 25  1  0  0  0  0
 20 21  1  6  0  0  0
 20 27  1  0  0  0  0
 22 23  1  6  0  0  0
 22 29  1  0  0  0  0
 24  2  1  6  0  0  0
 24 31  1  0  0  0  0
 25 26  1  0  0  0  0
 25 33  1  6  0  0  0
 27 28  1  1  0  0  0
 27 35  1  0  0  0  0
 29 30  1  0  0  0  0
 29 37  1  6  0  0  0
 31 32  1  1  0  0  0
 31 39  1  0  0  0  0
 33 34  1  0  0  0  0
 35 36  1  0  0  0  0
 35 41  1  1  0  0  0
 37 38  1  0  0  0  0
 39 40  1  6  0  0  0
 41 42  1  0  0  0  0
M  END
>  <CHROM.1>
-170.91853198,-81.64074580,-64.14743468,-164.49155447,66.12825227,73.83448034
61.52196038,-86.86222935,86.79973130,-145.31155238,63.12998020,67.12506303
23.89943700,130.51995357,-63.31555175,144.50525212,-73.45948997,71.14129335
-58.70367220,-161.68745342,177.49716505,-152.44602204,0.30444796,-6.83368262
15.99412254,2.91210085,-0.43214870,1.32380870

>  <Name>
1fyp_lig

>  <RI>
0

>  <Rbt.Current_Directory>
/home/afrankz/demos/rdock_decoys_rna/rnas/1fyp

>  <Rbt.Executable>
rbdock ($Id: //depot/dev/client3/rdock/2013.1/src/exe/rbdock.cxx#4 $)

>  <Rbt.Library>
libRbt.so (2013.1, Build901 2013/11/27)

>  <Rbt.Parameter_File>
/export/apps/rDock/src/rDock_2013.1_src/data/scripts/dock_solv.prm

>  <Rbt.Receptor>
prm/blind_docking_20.prm

>  <SCORE>
45.9077

>  <SCORE.INTER>
18.032

>  <SCORE.INTER.CONST>
1

>  <SCORE.INTER.POLAR>
-1.76028

>  <SCORE.INTER.ROT>
14

>  <SCORE.INTER.SOLV>
17.4041

>  <SCORE.INTER.VDW>
-0.845786

>  <SCORE.INTER.norm>
0.429333

>  <SCORE.INTRA>
2.93016

>  <SCORE.INTRA.DIHEDRAL>
-17.1324

>  <SCORE.INTRA.DIHEDRAL.0>
48.7173

>  <SCORE.INTRA.POLAR>
1.11777

>  <SCORE.INTRA.POLAR.0>
-1.54691

>  <SCORE.INTRA.REPUL>
0

>  <SCORE.INTRA.REPUL.0>
0

>  <SCORE.INTRA.SOLV>
1.42911

>  <SCORE.INTRA.SOLV.lig_0>
-64.052

>  <SCORE.INTRA.VDW>
6.98139

>  <SCORE.INTRA.VDW.0>
-7.0667

>  <SCORE.INTRA.norm>
0.0697658

>  <SCORE.RESTR>
24.9455

>  <SCORE.RESTR.CAVITY>
24.9455

>  <SCORE.RESTR.norm>
0.593941

>  <SCORE.SYSTEM>
0

>  <SCORE.SYSTEM.CONST>
0

>  <SCORE.SYSTEM.DIHEDRAL>
0

>  <SCORE.SYSTEM.SOLV>
0

>  <SCORE.SYSTEM.norm>
0

>  <SCORE.heavy>
42

>  <SCORE.norm>
1.09304

>  <RMSD>
17.751

$$$$
1fyp_lig
 OpenBabel11021811393D
libRbt.so/2013.1/901 2013/11/27
 42 45  0  0  0  0  0  0  0  0999 V2000
   -3.8594   -6.1658   16.4771 C   0  0  2  0  0  0  0  0  0  0  0  0
   -2.7688   -5.3318   16.9641 O   0  0  0  0  0  0  0  0  0  0  0  0
   -0.9625   -3.7716   20.5058 C   0  0  2  0  0  0  0  0  0  0  0  0
   -0.5183   -3.4833   21.8821 N   0  0  0  0  0  0  0  0  0  0  0  0
    0.3562   -7.0338   17.0535 C   0  0  1  0  0  0  0  0  0  0  0  0
    3.2961   -9.1792   14.5919 C   0  0  1  0  0  0  0  0  0  0  0  0
   -3.9038   -6.1958   14.9154 C   0  0  2  0  0  0  0  0  0  0  0  0
   -2.5791   -6.5250   14.3475 N   0  0  0  0  0  0  0  0  0  0  0  0
   -2.5033   -3.7893   20.4572 C   0  0  0  0  0  0  0  0  0  0  0  0
    1.0554   -8.3895   17.1839 C   0  0  2  0  0  0  0  0  0  0  0  0
    2.3634   -8.2016   17.7256 O   0  0  0  0  0  0  0  0  0  0  0  0
    4.2271   -9.5786   15.7772 C   0  0  2  0  0  0  0  0  0  0  0  0
    4.6617   -8.4103   16.5813 N   0  0  0  0  0  0  0  0  0  0  0  0
   -4.4133   -4.8343   14.3472 C   0  0  1  0  0  0  0  0  0  0  0  0
   -4.5995   -4.9287   12.9372 O   0  0  0  0  0  0  0  0  0  0  0  0
   -3.0432   -4.0612   19.0265 C   0  0  2  0  0  0  0  0  0  0  0  0
   -4.5167   -4.1375   19.1069 N   0  0  0  0  0  0  0  0  0  0  0  0
    1.1186   -8.8514   15.7255 C   0  0  2  0  0  0  0  0  0  0  0  0
    2.2515   -8.2684   15.0233 O   0  0  0  0  0  0  0  0  0  0  0  0
    5.4493  -10.4043   15.2698 C   0  0  1  0  0  0  0  0  0  0  0  0
    4.9987  -11.7100   14.9154 O   0  0  0  0  0  0  0  0  0  0  0  0
   -5.7545   -4.4059   14.9937 C   0  0  2  0  0  0  0  0  0  0  0  0
   -6.1162   -3.1181   14.5041 O   0  0  0  0  0  0  0  0  0  0  0  0
   -2.4357   -5.3587   18.3817 C   0  0  2  0  0  0  0  0  0  0  0  0
   -0.2026   -8.3123   15.1596 C   0  0  2  0  0  0  0  0  0  0  0  0
   -0.4785   -7.0990   15.8861 O   0  0  0  0  0  0  0  0  0  0  0  0
    6.1675   -9.7837   14.0333 C   0  0  2  0  0  0  0  0  0  0  0  0
    6.9026   -8.6368   14.4632 O   0  0  0  0  0  0  0  0  0  0  0  0
   -5.6253   -4.3860   16.5432 C   0  0  2  0  0  0  0  0  0  0  0  0
   -5.1438   -5.6858   16.9997 O   0  0  0  0  0  0  0  0  0  0  0  0
   -0.8756   -5.4513   18.5477 C   0  0  2  0  0  0  0  0  0  0  0  0
   -0.4678   -6.8080   18.2324 O   0  0  0  0  0  0  0  0  0  0  0  0
   -1.3728   -9.2997   15.3151 C   0  0  0  0  0  0  0  0  0  0  0  0
   -2.3578   -8.7816   16.1920 O   0  0  0  0  0  0  0  0  0  0  0  0
    5.1334   -9.3809   12.9365 C   0  0  1  0  0  0  0  0  0  0  0  0
    4.0890   -8.5496   13.5288 O   0  0  0  0  0  0  0  0  0  0  0  0
   -6.9438   -4.1120   17.3006 C   0  0  0  0  0  0  0  0  0  0  0  0
   -7.9246   -3.5550   16.4420 O   0  0  0  0  0  0  0  0  0  0  0  0
   -0.3966   -5.1185   19.9950 C   0  0  1  0  0  0  0  0  0  0  0  0
    1.0290   -5.0612   20.0051 O   0  0  0  0  0  0  0  0  0  0  0  0
    5.7820   -8.6134   11.7561 C   0  0  0  0  0  0  0  0  0  0  0  0
    6.6915   -7.5460   12.2103 N   0  0  0  0  0  0  0  0  0  0  0  0
  1  2  1  6  0  0  0
  1  7  1  0  0  0  0
  1 30  1  0  0  0  0
  3  4  1  1  0  0  0
  3  9  1  0  0  0  0
  3 39  1  0  0  0  0
  5 10  1  0  0  0  0
  5 26  1  0  0  0  0
  5 32  1  1  0  0  0
  6 12  1  0  0  0  0
  6 36  1  0  0  0  0
  6 19  1  1  0  0  0
  7  8  1  6  0  0  0
  7 14  1  0  0  0  0
  9 16  1  0  0  0  0
 10 11  1  6  0  0  0
 10 18  1  0  0  0  0
 12 13  1  6  0  0  0
 12 20  1  0  0  0  0
 14 15  1  6  0  0  0
 14 22  1  0  0  0  0
 16 17  1  1  0  0  0
 16 24  1  0  0  0  0
 18 19  1  6  0  0  0
 18 25  1  0  0  0  0
 20 21  1  6  0  0  0
 20 27  1  0  0  0  0
 22 23  1  6  0  0  0
 22 29  1  0  0  0  0
 24  2  1  6  0  0  0
 24 31  1  0  0  0  0
 25 26  1  0  0  0  0
 25 33  1  1  0  0  0
 27 28  1  1  0  0  0
 27 35  1  0  0  0  0
 29 30  1  0  0  0  0
 29 37  1  1  0  0  0
 31 32  1  1  0  0  0
 31 39  1  0  0  0  0
 33 34  1  0  0  0  0
 35 36  1  0  0  0  0
 35 41  1  6  0  0  0
 37 38  1  0  0  0  0
 39 40  1  6  0  0  0
 41 42  1  0  0  0  0
M  END
>  <CHROM.1>
-169.99987669,-102.22415990,100.18591242,135.20175799,162.54066136,105.01892316
67.86736234,-61.75001438,113.80261277,-78.22201717,54.65127240,59.28867490
114.68292201,173.93688045,-17.03410729,113.77558513,160.32979144,67.78026802
-46.58450353,-59.46048759,-59.66578185,-75.47369150,-0.33801702,-6.70760611
16.27400586,2.76543618,-0.35494379,1.23331198

>  <Name>
1fyp_lig

>  <RI>
0

>  <Rbt.Current_Directory>
/home/afrankz/demos/rdock_decoys_rna/rnas/1fyp

>  <Rbt.Executable>
rbdock ($Id: //depot/dev/client3/rdock/2013.1/src/exe/rbdock.cxx#4 $)

>  <Rbt.Library>
libRbt.so (2013.1, Build901 2013/11/27)

>  <Rbt.Parameter_File>
/export/apps/rDock/src/rDock_2013.1_src/data/scripts/dock_solv.prm

>  <Rbt.Receptor>
prm/blind_docking_20.prm

>  <SCORE>
27.8624

>  <SCORE.INTER>
-8.90675

>  <SCORE.INTER.CONST>
1

>  <SCORE.INTER.POLAR>
-3.08687

>  <SCORE.INTER.ROT>
14

>  <SCORE.INTER.SOLV>
14.4449

>  <SCORE.INTER.VDW>
-13.3966

>  <SCORE.INTER.norm>
-0.212066

>  <SCORE.INTRA>
5.8744

>  <SCORE.INTRA.DIHEDRAL>
-6.59309

>  <SCORE.INTRA.DIHEDRAL.0>
48.7173

>  <SCORE.INTRA.POLAR>
-0.709033

>  <SCORE.INTRA.POLAR.0>
-1.54691

>  <SCORE.INTRA.REPUL>
0.872407

>  <SCORE.INTRA.REPUL.0>
0

>  <SCORE.INTRA.SOLV>
3.31252

>  <SCORE.INTRA.SOLV.lig_0>
-64.052

>  <SCORE.INTRA.VDW>
5.56336

>  <SCORE.INTRA.VDW.0>
-7.0667

>  <SCORE.INTRA.norm>
0.139867

>  <SCORE.RESTR>
30.8948

>  <SCORE.RESTR.CAVITY>
30.8948

>  <SCORE.RESTR.norm>
0.73559

>  <SCORE.SYSTEM>
0

>  <SCORE.SYSTEM.CONST>
0

>  <SCORE.SYSTEM.DIHEDRAL>
0

>  <SCORE.SYSTEM.SOLV>
0

>  <SCORE.SYSTEM.norm>
0

>  <SCORE.heavy>
42

>  <SCORE.norm>
0.663391

>  <RMSD>
17.753

$$$$
1fyp_lig
 OpenBabel11021811393D
libRbt.so/2013.1/901 2013/11/27
 42 45  0  0  0  0  0  0  0  0999 V2000
   -2.1622   -7.5512   16.0742 C   0  0  2  0  0  0  0  0  0  0  0  0
   -1.0654   -6.7969   16.6660 O   0  0  0  0  0  0  0  0  0  0  0  0
   -0.7433   -4.1054   19.9666 C   0  0  2  0  0  0  0  0  0  0  0  0
   -0.7738   -3.4369   21.2806 N   0  0  0  0  0  0  0  0  0  0  0  0
    1.9798   -7.5845   17.5951 C   0  0  1  0  0  0  0  0  0  0  0  0
    4.4919   -9.1460   14.9642 C   0  0  1  0  0  0  0  0  0  0  0  0
   -1.7809   -8.1040   14.6632 C   0  0  2  0  0  0  0  0  0  0  0  0
   -0.4905   -8.8246   14.7002 N   0  0  0  0  0  0  0  0  0  0  0  0
   -2.1548   -4.6199   19.6200 C   0  0  0  0  0  0  0  0  0  0  0  0
    3.3872   -7.0345   17.8409 C   0  0  2  0  0  0  0  0  0  0  0  0
    3.5362   -5.7854   17.1650 O   0  0  0  0  0  0  0  0  0  0  0  0
    5.9634   -9.3952   14.5128 C   0  0  2  0  0  0  0  0  0  0  0  0
    6.6071   -8.1764   13.9647 N   0  0  0  0  0  0  0  0  0  0  0  0
   -1.7282   -6.9528   13.6105 C   0  0  1  0  0  0  0  0  0  0  0  0
   -1.5370   -7.4896   12.3040 O   0  0  0  0  0  0  0  0  0  0  0  0
   -2.2029   -5.3139   18.2313 C   0  0  2  0  0  0  0  0  0  0  0  0
   -3.5709   -5.8371   18.0352 N   0  0  0  0  0  0  0  0  0  0  0  0
    4.2628   -8.1182   17.2059 C   0  0  2  0  0  0  0  0  0  0  0  0
    4.3813   -7.9417   15.7666 O   0  0  0  0  0  0  0  0  0  0  0  0
    6.0414  -10.5811   13.5026 C   0  0  1  0  0  0  0  0  0  0  0  0
    5.8380  -11.7988   14.2162 O   0  0  0  0  0  0  0  0  0  0  0  0
   -3.0288   -6.1109   13.6117 C   0  0  2  0  0  0  0  0  0  0  0  0
   -2.8812   -5.0260   12.7007 O   0  0  0  0  0  0  0  0  0  0  0  0
   -1.1271   -6.4487   18.0790 C   0  0  2  0  0  0  0  0  0  0  0  0
    3.4778   -9.3970   17.5299 C   0  0  2  0  0  0  0  0  0  0  0  0
    2.0884   -9.0160   17.5424 O   0  0  0  0  0  0  0  0  0  0  0  0
    4.9911  -10.5081   12.3531 C   0  0  2  0  0  0  0  0  0  0  0  0
    5.3856   -9.4810   11.4419 O   0  0  0  0  0  0  0  0  0  0  0  0
   -3.3311   -5.5859   15.0439 C   0  0  2  0  0  0  0  0  0  0  0  0
   -3.3623   -6.7134   15.9700 O   0  0  0  0  0  0  0  0  0  0  0  0
    0.2998   -6.0085   18.5690 C   0  0  2  0  0  0  0  0  0  0  0  0
    1.1182   -7.1995   18.7038 O   0  0  0  0  0  0  0  0  0  0  0  0
    3.8684  -10.0178   18.8829 C   0  0  0  0  0  0  0  0  0  0  0  0
    5.2544  -10.3092   18.9237 O   0  0  0  0  0  0  0  0  0  0  0  0
    3.5690  -10.2080   12.9204 C   0  0  1  0  0  0  0  0  0  0  0  0
    3.6240   -9.0328   13.7855 O   0  0  0  0  0  0  0  0  0  0  0  0
   -4.6829   -4.8528   15.1941 C   0  0  0  0  0  0  0  0  0  0  0  0
   -5.6486   -5.6775   15.8240 O   0  0  0  0  0  0  0  0  0  0  0  0
    0.2711   -5.2742   19.9454 C   0  0  1  0  0  0  0  0  0  0  0  0
    1.5755   -4.7668   20.2225 O   0  0  0  0  0  0  0  0  0  0  0  0
    2.5191   -9.9665   11.8057 C   0  0  0  0  0  0  0  0  0  0  0  0
    1.3328   -9.2421   12.2966 N   0  0  0  0  0  0  0  0  0  0  0  0
  1  2  1  6  0  0  0
  1  7  1  0  0  0  0
  1 30  1  0  0  0  0
  3  4  1  1  0  0  0
  3  9  1  0  0  0  0
  3 39  1  0  0  0  0
  5 10  1  0  0  0  0
  5 26  1  0  0  0  0
  5 32  1  1  0  0  0
  6 12  1  0  0  0  0
  6 36  1  0  0  0  0
  6 19  1  6  0  0  0
  7  8  1  1  0  0  0
  7 14  1  0  0  0  0
  9 16  1  0  0  0  0
 10 11  1  6  0  0  0
 10 18  1  0  0  0  0
 12 13  1  6  0  0  0
 12 20  1  0  0  0  0
 14 15  1  6  0  0  0
 14 22  1  0  0  0  0
 16 17  1  1  0  0  0
 16 24  1  0  0  0  0
 18 19  1  6  0  0  0
 18 25  1  0  0  0  0
 20 21  1  1  0  0  0
 20 27  1  0  0  0  0
 22 23  1  6  0  0  0
 22 29  1  0  0  0  0
 24  2  1  6  0  0  0
 24 31  1  0  0  0  0
 25 26  1  0  0  0  0
 25 33  1  1  0  0  0
 27 28  1  6  0  0  0
 27 35  1  0  0  0  0
 29 30  1  0  0  0  0
 29 37  1  6  0  0  0
 31 32  1  1  0  0  0
 31 39  1  0  0  0  0
 33 34  1  0  0  0  0
 35 36  1  0  0  0  0
 35 41  1  6  0  0  0
 37 38  1  0  0  0  0
 39 40  1  6  0  0  0
 41 42  1  0  0  0  0
M  END
>  <CHROM.1>
-167.14069487,-72.87574991,76.82797456,-172.45784266,52.82600873,89.16471190
63.13298818,-69.32742878,-146.71837933,-102.44616912,177.35248808,177.98611295
-57.45386862,-49.64057433,103.17789919,95.27124686,95.64737574,-65.06743896
-160.10893426,62.61727975,-157.40104291,-179.37670260,1.04498308,-7.50820267
16.00906970,2.67092208,-0.38174866,1.21359388

>  <Name>
1fyp_lig

>  <RI>
0

>  <Rbt.Current_Directory>
/home/afrankz/demos/rdock_decoys_rna/rnas/1fyp

>  <Rbt.Executable>
rbdock ($Id: //depot/dev/client3/rdock/2013.1/src/exe/rbdock.cxx#4 $)

>  <Rbt.Library>
libRbt.so (2013.1, Build901 2013/11/27)

>  <Rbt.Parameter_File>
/export/apps/rDock/src/rDock_2013.1_src/data/scripts/dock_solv.prm

>  <Rbt.Receptor>
prm/blind_docking_20.prm

>  <SCORE>
27.7074

>  <SCORE.INTER>
-1.99237

>  <SCORE.INTER.CONST>
1

>  <SCORE.INTER.POLAR>
-2.03061

>  <SCORE.INTER.ROT>
14

>  <SCORE.INTER.SOLV>
16.3913

>  <SCORE.INTER.VDW>
-12.9566

>  <SCORE.INTER.norm>
-0.0474374

>  <SCORE.INTRA>
-5.24494

>  <SCORE.INTRA.DIHEDRAL>
-16.9934

>  <SCORE.INTRA.DIHEDRAL.0>
48.7173

>  <SCORE.INTRA.POLAR>
-0.923586

>  <SCORE.INTRA.POLAR.0>
-1.54691

>  <SCORE.INTRA.REPUL>
0.00118668

>  <SCORE.INTRA.REPUL.0>
0

>  <SCORE.INTRA.SOLV>
0.252652

>  <SCORE.INTRA.SOLV.lig_0>
-64.052

>  <SCORE.INTRA.VDW>
6.25968

>  <SCORE.INTRA.VDW.0>
-7.0667

>  <SCORE.INTRA.norm>
-0.124879

>  <SCORE.RESTR>
34.9447

>  <SCORE.RESTR.CAVITY>
34.9447

>  <SCORE.RESTR.norm>
0.832017

>  <SCORE.SYSTEM>
0

>  <SCORE.SYSTEM.CONST>
0

>  <SCORE.SYSTEM.DIHEDRAL>
0

>  <SCORE.SYSTEM.SOLV>
0

>  <SCORE.SYSTEM.norm>
0

>  <SCORE.heavy>
42

>  <SCORE.norm>
0.6597

>  <RMSD>
17.793

$$$$
1fyp_lig
 OpenBabel11021811393D
libRbt.so/2013.1/901 2013/11/27
 42 45  0  0  0  0  0  0  0  0999 V2000
   -3.3680   -6.2923   15.9215 C   0  0  2  0  0  0  0  0  0  0  0  0
   -2.2905   -5.5610   16.5745 O   0  0  0  0  0  0  0  0  0  0  0  0
   -1.0836   -4.0466   20.3812 C   0  0  2  0  0  0  0  0  0  0  0  0
   -0.8616   -3.7814   21.8146 N   0  0  0  0  0  0  0  0  0  0  0  0
    1.0318   -7.1747   17.3508 C   0  0  1  0  0  0  0  0  0  0  0  0
    4.1762   -8.6503   14.6862 C   0  0  1  0  0  0  0  0  0  0  0  0
   -3.2296   -6.2472   14.3655 C   0  0  2  0  0  0  0  0  0  0  0  0
   -1.8714   -6.6430   13.9363 N   0  0  0  0  0  0  0  0  0  0  0  0
   -2.5981   -4.0952   20.0971 C   0  0  0  0  0  0  0  0  0  0  0  0
    1.4143   -8.6564   17.3070 C   0  0  2  0  0  0  0  0  0  0  0  0
    2.3805   -8.9300   18.3224 O   0  0  0  0  0  0  0  0  0  0  0  0
    4.1038  -10.1642   14.3201 C   0  0  2  0  0  0  0  0  0  0  0  0
    4.3549  -11.0467   15.4856 N   0  0  0  0  0  0  0  0  0  0  0  0
   -3.5788   -4.8283   13.8171 C   0  0  1  0  0  0  0  0  0  0  0  0
   -3.6031   -4.8443   12.3920 O   0  0  0  0  0  0  0  0  0  0  0  0
   -2.9068   -4.3449   18.5955 C   0  0  2  0  0  0  0  0  0  0  0  0
   -4.3731   -4.4536   18.4480 N   0  0  0  0  0  0  0  0  0  0  0  0
    2.0264   -8.7811   15.9090 C   0  0  2  0  0  0  0  0  0  0  0  0
    3.4190   -8.3604   15.8901 O   0  0  0  0  0  0  0  0  0  0  0  0
    5.0666  -10.4968   13.1388 C   0  0  1  0  0  0  0  0  0  0  0  0
    4.5089   -9.9693   11.9370 O   0  0  0  0  0  0  0  0  0  0  0  0
   -4.9562   -4.3360   14.3277 C   0  0  2  0  0  0  0  0  0  0  0  0
   -5.1731   -3.0047   13.8702 O   0  0  0  0  0  0  0  0  0  0  0  0
   -2.1770   -5.6140   18.0256 C   0  0  2  0  0  0  0  0  0  0  0  0
    1.1593   -7.8142   15.0906 C   0  0  2  0  0  0  0  0  0  0  0  0
    0.7718   -6.7648   15.9986 O   0  0  0  0  0  0  0  0  0  0  0  0
    6.5034   -9.9158   13.3059 C   0  0  2  0  0  0  0  0  0  0  0  0
    7.1875  -10.6759   14.3033 O   0  0  0  0  0  0  0  0  0  0  0  0
   -5.0098   -4.3967   15.8807 C   0  0  2  0  0  0  0  0  0  0  0  0
   -4.6711   -5.7470   16.3185 O   0  0  0  0  0  0  0  0  0  0  0  0
   -0.6586   -5.6780   18.4264 C   0  0  2  0  0  0  0  0  0  0  0  0
   -0.1749   -7.0183   18.1502 O   0  0  0  0  0  0  0  0  0  0  0  0
   -0.0903   -8.4842   14.4921 C   0  0  0  0  0  0  0  0  0  0  0  0
   -1.0692   -8.7111   15.4910 O   0  0  0  0  0  0  0  0  0  0  0  0
    6.4483   -8.4119   13.7180 C   0  0  1  0  0  0  0  0  0  0  0  0
    5.5764   -8.2531   14.8786 O   0  0  0  0  0  0  0  0  0  0  0  0
   -6.3878   -4.0650   16.4956 C   0  0  0  0  0  0  0  0  0  0  0  0
   -7.3872   -4.9563   16.0307 O   0  0  0  0  0  0  0  0  0  0  0  0
   -0.4142   -5.3692   19.9362 C   0  0  1  0  0  0  0  0  0  0  0  0
    0.9914   -5.2826   20.1654 O   0  0  0  0  0  0  0  0  0  0  0  0
    7.8464   -7.8320   14.0527 C   0  0  0  0  0  0  0  0  0  0  0  0
    8.3619   -6.9541   12.9866 N   0  0  0  0  0  0  0  0  0  0  0  0
  1  2  1  1  0  0  0
  1  7  1  0  0  0  0
  1 30  1  0  0  0  0
  3  4  1  1  0  0  0
  3  9  1  0  0  0  0
  3 39  1  0  0  0  0
  5 10  1  0  0  0  0
  5 26  1  0  0  0  0
  5 32  1  1  0  0  0
  6 12  1  0  0  0  0
  6 36  1  0  0  0  0
  6 19  1  1  0  0  0
  7  8  1  1  0  0  0
  7 14  1  0  0  0  0
  9 16  1  0  0  0  0
 10 11  1  1  0  0  0
 10 18  1  0  0  0  0
 12 13  1  1  0  0  0
 12 20  1  0  0  0  0
 14 15  1  6  0  0  0
 14 22  1  0  0  0  0
 16 17  1  1  0  0  0
 16 24  1  0  0  0  0
 18 19  1  1  0  0  0
 18 25  1  0  0  0  0
 20 21  1  6  0  0  0
 20 27  1  0  0  0  0
 22 23  1  1  0  0  0
 22 29  1  0  0  0  0
 24  2  1  6  0  0  0
 24 31  1  0  0  0  0
 25 26  1  0  0  0  0
 25 33  1  1  0  0  0
 27 28  1  1  0  0  0
 27 35  1  0  0  0  0
 29 30  1  0  0  0  0
 29 37  1  6  0  0  0
 31 32  1  1  0  0  0
 31 39  1  0  0  0  0
 33 34  1  0  0  0  0
 35 36  1  0  0  0  0
 35 41  1  1  0  0  0
 37 38  1  0  0  0  0
 39 40  1  6  0  0  0
 41 42  1  0  0  0  0
M  END
>  <CHROM.1>
-173.55506724,-95.55590381,-47.21347789,131.78496010,70.68400473,69.83059344
-61.85729267,-63.51783923,169.47062832,-54.08658476,-57.47693965,174.62025119
74.74647343,64.19107826,59.33496494,128.21119440,174.72416860,-66.24779432
105.17766385,52.21546744,56.66776544,-57.25683077,0.22039791,-6.83548893
16.00545343,2.80838033,-0.36973565,1.31734329

>  <Name>
1fyp_lig

>  <RI>
0

>  <Rbt.Current_Directory>
/home/afrankz/demos/rdock_decoys_rna/rnas/1fyp

>  <Rbt.Executable>
rbdock ($Id: //depot/dev/client3/rdock/2013.1/src/exe/rbdock.cxx#4 $)

>  <Rbt.Library>
libRbt.so (2013.1, Build901 2013/11/27)

>  <Rbt.Parameter_File>
/export/apps/rDock/src/rDock_2013.1_src/data/scripts/dock_solv.prm

>  <Rbt.Receptor>
prm/blind_docking_20.prm

>  <SCORE>
43.3838

>  <SCORE.INTER>
18.5898

>  <SCORE.INTER.CONST>
1

>  <SCORE.INTER.POLAR>
-1.00015

>  <SCORE.INTER.ROT>
14

>  <SCORE.INTER.SOLV>
14.9021

>  <SCORE.INTER.VDW>
-2.17368

>  <SCORE.INTER.norm>
0.442613

>  <SCORE.INTRA>
-3.38995

>  <SCORE.INTRA.DIHEDRAL>
-26.3998

>  <SCORE.INTRA.DIHEDRAL.0>
48.7173

>  <SCORE.INTRA.POLAR>
1.4488

>  <SCORE.INTRA.POLAR.0>
-1.54691

>  <SCORE.INTRA.REPUL>
0.0102821

>  <SCORE.INTRA.REPUL.0>
0

>  <SCORE.INTRA.SOLV>
0.351871

>  <SCORE.INTRA.SOLV.lig_0>
-64.052

>  <SCORE.INTRA.VDW>
4.6567

>  <SCORE.INTRA.VDW.0>
-7.0667

>  <SCORE.INTRA.norm>
-0.0807131

>  <SCORE.RESTR>
28.184

>  <SCORE.RESTR.CAVITY>
28.184

>  <SCORE.RESTR.norm>
0.671047

>  <SCORE.SYSTEM>
0

>  <SCORE.SYSTEM.CONST>
0

>  <SCORE.SYSTEM.DIHEDRAL>
0

>  <SCORE.SYSTEM.SOLV>
0

>  <SCORE.SYSTEM.norm>
0

>  <SCORE.heavy>
42

>  <SCORE.norm>
1.03295

>  <RMSD>
17.888

$$$$
1fyp_lig
 OpenBabel11021811393D
libRbt.so/2013.1/901 2013/11/27
 42 45  0  0  0  0  0  0  0  0999 V2000
   -2.6382   -7.2153   15.4929 C   0  0  2  0  0  0  0  0  0  0  0  0
   -1.3713   -6.6692   15.9610 O   0  0  0  0  0  0  0  0  0  0  0  0
   -0.6802   -6.6394   20.1755 C   0  0  2  0  0  0  0  0  0  0  0  0
   -0.3002   -6.9368   21.5689 N   0  0  0  0  0  0  0  0  0  0  0  0
    2.0979   -7.3560   16.7917 C   0  0  1  0  0  0  0  0  0  0  0  0
    3.9843   -9.1657   15.7535 C   0  0  1  0  0  0  0  0  0  0  0  0
   -2.8173   -7.0080   13.9544 C   0  0  2  0  0  0  0  0  0  0  0  0
   -1.6321   -7.4812   13.2080 N   0  0  0  0  0  0  0  0  0  0  0  0
   -1.5218   -7.8027   19.6139 C   0  0  0  0  0  0  0  0  0  0  0  0
    3.1224   -7.5569   17.9114 C   0  0  2  0  0  0  0  0  0  0  0  0
    4.3995   -7.0854   17.4800 O   0  0  0  0  0  0  0  0  0  0  0  0
    3.1028  -10.0033   14.7775 C   0  0  2  0  0  0  0  0  0  0  0  0
    3.3609  -11.4602   14.8817 N   0  0  0  0  0  0  0  0  0  0  0  0
   -3.1021   -5.5093   13.6246 C   0  0  1  0  0  0  0  0  0  0  0  0
   -3.4196   -5.3617   12.2429 O   0  0  0  0  0  0  0  0  0  0  0  0
   -1.9816   -7.5439   18.1531 C   0  0  2  0  0  0  0  0  0  0  0  0
   -2.7055   -8.7453   17.6881 N   0  0  0  0  0  0  0  0  0  0  0  0
    3.1170   -9.0796   18.0718 C   0  0  2  0  0  0  0  0  0  0  0  0
    3.9737   -9.7287   17.0913 O   0  0  0  0  0  0  0  0  0  0  0  0
    3.2682   -9.5014   13.3099 C   0  0  1  0  0  0  0  0  0  0  0  0
    2.5899   -8.2540   13.1780 O   0  0  0  0  0  0  0  0  0  0  0  0
   -4.2778   -4.9481   14.4630 C   0  0  2  0  0  0  0  0  0  0  0  0
   -4.4257   -3.5590   14.1850 O   0  0  0  0  0  0  0  0  0  0  0  0
   -0.7908   -7.1842   17.1936 C   0  0  2  0  0  0  0  0  0  0  0  0
    1.6437   -9.4252   17.8141 C   0  0  2  0  0  0  0  0  0  0  0  0
    1.1675   -8.4478   16.8687 O   0  0  0  0  0  0  0  0  0  0  0  0
    4.7499   -9.2999   12.8694 C   0  0  2  0  0  0  0  0  0  0  0  0
    5.3459  -10.5841   12.6792 O   0  0  0  0  0  0  0  0  0  0  0  0
   -4.0187   -5.1785   15.9789 C   0  0  2  0  0  0  0  0  0  0  0  0
   -3.7588   -6.5959   16.2096 O   0  0  0  0  0  0  0  0  0  0  0  0
    0.1801   -6.1076   17.8006 C   0  0  2  0  0  0  0  0  0  0  0  0
    1.3963   -6.0988   17.0087 O   0  0  0  0  0  0  0  0  0  0  0  0
    0.7839   -9.3899   19.0900 C   0  0  0  0  0  0  0  0  0  0  0  0
    1.5354   -8.9128   20.1924 O   0  0  0  0  0  0  0  0  0  0  0  0
    5.5421   -8.4919   13.9436 C   0  0  1  0  0  0  0  0  0  0  0  0
    5.3636   -9.1117   15.2538 O   0  0  0  0  0  0  0  0  0  0  0  0
   -5.1926   -4.7878   16.9044 C   0  0  0  0  0  0  0  0  0  0  0  0
   -6.0901   -3.9050   16.2528 O   0  0  0  0  0  0  0  0  0  0  0  0
    0.5626   -6.4009   19.2846 C   0  0  1  0  0  0  0  0  0  0  0  0
    1.2995   -5.2915   19.7967 O   0  0  0  0  0  0  0  0  0  0  0  0
    7.0573   -8.4035   13.6283 C   0  0  0  0  0  0  0  0  0  0  0  0
    7.7490   -9.6907   13.8223 N   0  0  0  0  0  0  0  0  0  0  0  0
  1  2  1  1  0  0  0
  1  7  1  0  0  0  0
  1 30  1  0  0  0  0
  3  4  1  1  0  0  0
  3  9  1  0  0  0  0
  3 39  1  0  0  0  0
  5 10  1  0  0  0  0
  5 26  1  0  0  0  0
  5 32  1  1  0  0  0
  6 12  1  0  0  0  0
  6 36  1  0  0  0  0
  6 19  1  1  0  0  0
  7  8  1  6  0  0  0
  7 14  1  0  0  0  0
  9 16  1  0  0  0  0
 10 11  1  6  0  0  0
 10 18  1  0  0  0  0
 12 13  1  6  0  0  0
 12 20  1  0  0  0  0
 14 15  1  6  0  0  0
 14 22  1  0  0  0  0
 16 17  1  6  0  0  0
 16 24  1  0  0  0  0
 18 19  1  6  0  0  0
 18 25  1  0  0  0  0
 20 21  1  1  0  0  0
 20 27  1  0  0  0  0
 22 23  1  1  0  0  0
 22 29  1  0  0  0  0
 24  2  1  6  0  0  0
 24 31  1  0  0  0  0
 25 26  1  0  0  0  0
 25 33  1  1  0  0  0
 27 28  1  1  0  0  0
 27 35  1  0  0  0  0
 29 30  1  0  0  0  0
 29 37  1  1  0  0  0
 31 32  1  6  0  0  0
 31 39  1  0  0  0  0
 33 34  1  0  0  0  0
 35 36  1  0  0  0  0
 35 41  1  6  0  0  0
 37 38  1  0  0  0  0
 39 40  1  1  0  0  0
 41 42  1  0  0  0  0
M  END
>  <CHROM.1>
-156.84484135,-33.95973265,-171.07034710,-173.42029215,-166.51905842,-138.72526998
-60.98308786,20.22117480,-38.27480431,-101.36852044,46.99545188,67.57476731
5.84434141,-55.71670882,-19.25067726,-53.10198505,-90.27548431,167.76587402
-71.49096184,-173.27549879,-46.71912281,-60.84401257,0.63881760,-7.55645686
16.23333021,3.01773994,-0.41541275,1.57339222

>  <Name>
1fyp_lig

>  <RI>
0

>  <Rbt.Current_Directory>
/home/afrankz/demos/rdock_decoys_rna/rnas/1fyp

>  <Rbt.Executable>
rbdock ($Id: //depot/dev/client3/rdock/2013.1/src/exe/rbdock.cxx#4 $)

>  <Rbt.Library>
libRbt.so (2013.1, Build901 2013/11/27)

>  <Rbt.Parameter_File>
/export/apps/rDock/src/rDock_2013.1_src/data/scripts/dock_solv.prm

>  <Rbt.Receptor>
prm/blind_docking_20.prm

>  <SCORE>
46.3746

>  <SCORE.INTER>
-0.618676

>  <SCORE.INTER.CONST>
1

>  <SCORE.INTER.POLAR>
-1.91713

>  <SCORE.INTER.ROT>
14

>  <SCORE.INTER.SOLV>
17.5299

>  <SCORE.INTER.VDW>
-12.7987

>  <SCORE.INTER.norm>
-0.0147304

>  <SCORE.INTRA>
13.0381

>  <SCORE.INTRA.DIHEDRAL>
-14.293

>  <SCORE.INTRA.DIHEDRAL.0>
48.7173

>  <SCORE.INTRA.POLAR>
0.513768

>  <SCORE.INTRA.POLAR.0>
-1.54691

>  <SCORE.INTRA.REPUL>
0.000302641

>  <SCORE.INTRA.REPUL.0>
0

>  <SCORE.INTRA.SOLV>
3.43544

>  <SCORE.INTRA.SOLV.lig_0>
-64.052

>  <SCORE.INTRA.VDW>
16.7185

>  <SCORE.INTRA.VDW.0>
-7.0667

>  <SCORE.INTRA.norm>
0.31043

>  <SCORE.RESTR>
33.9552

>  <SCORE.RESTR.CAVITY>
33.9552

>  <SCORE.RESTR.norm>
0.808457

>  <SCORE.SYSTEM>
0

>  <SCORE.SYSTEM.CONST>
0

>  <SCORE.SYSTEM.DIHEDRAL>
0

>  <SCORE.SYSTEM.SOLV>
0

>  <SCORE.SYSTEM.norm>
0

>  <SCORE.heavy>
42

>  <SCORE.norm>
1.10416

>  <RMSD>
17.898

$$$$
1fyp_lig
 OpenBabel11021811393D
libRbt.so/2013.1/901 2013/11/27
 42 45  0  0  0  0  0  0  0  0999 V2000
   -3.7031   -6.5800   16.3277 C   0  0  2  0  0  0  0  0  0  0  0  0
   -2.3276   -6.3628   16.7556 O   0  0  0  0  0  0  0  0  0  0  0  0
   -1.0901   -3.3798   19.5504 C   0  0  2  0  0  0  0  0  0  0  0  0
   -0.7938   -2.5692   20.7461 N   0  0  0  0  0  0  0  0  0  0  0  0
    1.3437   -7.0449   17.5877 C   0  0  1  0  0  0  0  0  0  0  0  0
    4.3429   -8.4954   14.9446 C   0  0  1  0  0  0  0  0  0  0  0  0
   -3.7822   -7.6126   15.1575 C   0  0  2  0  0  0  0  0  0  0  0  0
   -3.0382   -8.8484   15.4815 N   0  0  0  0  0  0  0  0  0  0  0  0
   -2.5875   -3.7465   19.5376 C   0  0  0  0  0  0  0  0  0  0  0  0
    1.8125   -8.4872   17.7964 C   0  0  2  0  0  0  0  0  0  0  0  0
    2.8285   -8.5183   18.7994 O   0  0  0  0  0  0  0  0  0  0  0  0
    4.1264   -9.9305   14.3748 C   0  0  2  0  0  0  0  0  0  0  0  0
    4.4428  -10.9912   15.3623 N   0  0  0  0  0  0  0  0  0  0  0  0
   -3.2470   -6.9906   13.8298 C   0  0  1  0  0  0  0  0  0  0  0  0
   -3.4717   -7.8844   12.7425 O   0  0  0  0  0  0  0  0  0  0  0  0
   -2.9776   -4.5807   18.2868 C   0  0  2  0  0  0  0  0  0  0  0  0
   -4.4042   -4.9446   18.4139 N   0  0  0  0  0  0  0  0  0  0  0  0
    2.3812   -8.8347   16.4179 C   0  0  2  0  0  0  0  0  0  0  0  0
    3.7445   -8.3522   16.2592 O   0  0  0  0  0  0  0  0  0  0  0  0
    4.9282  -10.1299   13.0518 C   0  0  1  0  0  0  0  0  0  0  0  0
    4.2794   -9.3982   12.0138 O   0  0  0  0  0  0  0  0  0  0  0  0
   -3.9348   -5.6402   13.5077 C   0  0  2  0  0  0  0  0  0  0  0  0
   -3.3393   -5.0817   12.3406 O   0  0  0  0  0  0  0  0  0  0  0  0
   -2.0756   -5.8528   18.0964 C   0  0  2  0  0  0  0  0  0  0  0  0
    1.4294   -8.0817   15.4780 C   0  0  2  0  0  0  0  0  0  0  0  0
    1.0120   -6.9050   16.1969 O   0  0  0  0  0  0  0  0  0  0  0  0
    6.4113   -9.6561   13.1289 C   0  0  2  0  0  0  0  0  0  0  0  0
    7.1469  -10.5929   13.9174 O   0  0  0  0  0  0  0  0  0  0  0  0
   -3.8002   -4.6647   14.7113 C   0  0  2  0  0  0  0  0  0  0  0  0
   -4.3163   -5.3132   15.9125 O   0  0  0  0  0  0  0  0  0  0  0  0
   -0.5426   -5.5450   18.2562 C   0  0  2  0  0  0  0  0  0  0  0  0
    0.1587   -6.8075   18.3997 O   0  0  0  0  0  0  0  0  0  0  0  0
    0.2018   -8.9149   15.0688 C   0  0  0  0  0  0  0  0  0  0  0  0
   -0.8615   -8.0764   14.6517 O   0  0  0  0  0  0  0  0  0  0  0  0
    6.5057   -8.2312   13.7575 C   0  0  1  0  0  0  0  0  0  0  0  0
    5.7798   -8.2050   15.0244 O   0  0  0  0  0  0  0  0  0  0  0  0
   -4.5738   -3.3360   14.5590 C   0  0  0  0  0  0  0  0  0  0  0  0
   -5.9687   -3.5623   14.4469 O   0  0  0  0  0  0  0  0  0  0  0  0
   -0.2257   -4.6627   19.5035 C   0  0  1  0  0  0  0  0  0  0  0  0
    1.1530   -4.2971   19.4689 O   0  0  0  0  0  0  0  0  0  0  0  0
    7.9688   -7.7819   14.0037 C   0  0  0  0  0  0  0  0  0  0  0  0
    8.7523   -8.7923   14.7372 N   0  0  0  0  0  0  0  0  0  0  0  0
  1  2  1  6  0  0  0
  1  7  1  0  0  0  0
  1 30  1  0  0  0  0
  3  4  1  1  0  0  0
  3  9  1  0  0  0  0
  3 39  1  0  0  0  0
  5 10  1  0  0  0  0
  5 26  1  0  0  0  0
  5 32  1  1  0  0  0
  6 12  1  0  0  0  0
  6 36  1  0  0  0  0
  6 19  1  1  0  0  0
  7  8  1  1  0  0  0
  7 14  1  0  0  0  0
  9 16  1  0  0  0  0
 10 11  1  1  0  0  0
 10 18  1  0  0  0  0
 12 13  1  1  0  0  0
 12 20  1  0  0  0  0
 14 15  1  6  0  0  0
 14 22  1  0  0  0  0
 16 17  1  1  0  0  0
 16 24  1  0  0  0  0
 18 19  1  1  0  0  0
 18 25  1  0  0  0  0
 20 21  1  6  0  0  0
 20 27  1  0  0  0  0
 22 23  1  6  0  0  0
 22 29  1  0  0  0  0
 24  2  1  6  0  0  0
 24 31  1  0  0  0  0
 25 26  1  0  0  0  0
 25 33  1  1  0  0  0
 27 28  1  1  0  0  0
 27 35  1  0  0  0  0
 29 30  1  0  0  0  0
 29 37  1  6  0  0  0
 31 32  1  1  0  0  0
 31 39  1  0  0  0  0
 33 34  1  0  0  0  0
 35 36  1  0  0  0  0
 35 41  1  1  0  0  0
 37 38  1  0  0  0  0
 39 40  1  6  0  0  0
 41 42  1  0  0  0  0
M  END
>  <CHROM.1>
-157.53581912,-50.63309524,-46.52169322,68.16591897,177.97263784,60.07660349
-170.74380203,-49.06119112,-173.64803547,-47.55780494,-178.70664619,64.48936910
157.84811991,71.58055651,61.84539638,131.81597337,-173.73492771,-63.28730824
-50.64235664,-177.72891142,59.45966284,20.61983105,0.46889869,-7.00462797
15.90305383,2.77581758,-0.30524055,1.10041601

>  <Name>
1fyp_lig

>  <RI>
0

>  <Rbt.Current_Directory>
/home/afrankz/demos/rdock_decoys_rna/rnas/1fyp

>  <Rbt.Executable>
rbdock ($Id: //depot/dev/client3/rdock/2013.1/src/exe/rbdock.cxx#4 $)

>  <Rbt.Library>
libRbt.so (2013.1, Build901 2013/11/27)

>  <Rbt.Parameter_File>
/export/apps/rDock/src/rDock_2013.1_src/data/scripts/dock_solv.prm

>  <Rbt.Receptor>
prm/blind_docking_20.prm

>  <SCORE>
20.1497

>  <SCORE.INTER>
3.77997

>  <SCORE.INTER.CONST>
1

>  <SCORE.INTER.POLAR>
-1.59218

>  <SCORE.INTER.ROT>
14

>  <SCORE.INTER.SOLV>
14.6485

>  <SCORE.INTER.VDW>
-9.98892

>  <SCORE.INTER.norm>
0.0899993

>  <SCORE.INTRA>
-11.2599

>  <SCORE.INTRA.DIHEDRAL>
-32.5403

>  <SCORE.INTRA.DIHEDRAL.0>
48.7173

>  <SCORE.INTRA.POLAR>
-0.296465

>  <SCORE.INTRA.POLAR.0>
-1.54691

>  <SCORE.INTRA.REPUL>
0.0777331

>  <SCORE.INTRA.REPUL.0>
0

>  <SCORE.INTRA.SOLV>
1.25947

>  <SCORE.INTRA.SOLV.lig_0>
-64.052

>  <SCORE.INTRA.VDW>
4.9998

>  <SCORE.INTRA.VDW.0>
-7.0667

>  <SCORE.INTRA.norm>
-0.268094

>  <SCORE.RESTR>
27.6296

>  <SCORE.RESTR.CAVITY>
27.6296

>  <SCORE.RESTR.norm>
0.657849

>  <SCORE.SYSTEM>
0

>  <SCORE.SYSTEM.CONST>
0

>  <SCORE.SYSTEM.DIHEDRAL>
0

>  <SCORE.SYSTEM.SOLV>
0

>  <SCORE.SYSTEM.norm>
0

>  <SCORE.heavy>
42

>  <SCORE.norm>
0.479754

>  <RMSD>
17.910

$$$$
1fyp_lig
 OpenBabel11021811393D
libRbt.so/2013.1/901 2013/11/27
 42 45  0  0  0  0  0  0  0  0999 V2000
   -3.4607   -6.5429   16.1400 C   0  0  2  0  0  0  0  0  0  0  0  0
   -2.4929   -5.8572   16.9860 O   0  0  0  0  0  0  0  0  0  0  0  0
   -0.7984   -7.3156   20.6250 C   0  0  2  0  0  0  0  0  0  0  0  0
   -0.0411   -8.0291   21.6700 N   0  0  0  0  0  0  0  0  0  0  0  0
    1.2629   -5.8851   17.0361 C   0  0  1  0  0  0  0  0  0  0  0  0
    3.5956   -9.1653   15.4137 C   0  0  1  0  0  0  0  0  0  0  0  0
   -3.0398   -6.4972   14.6358 C   0  0  2  0  0  0  0  0  0  0  0  0
   -1.6422   -6.9447   14.4561 N   0  0  0  0  0  0  0  0  0  0  0  0
   -1.5410   -8.3377   19.7415 C   0  0  0  0  0  0  0  0  0  0  0  0
    1.6946   -7.0385   17.9454 C   0  0  2  0  0  0  0  0  0  0  0  0
    2.9101   -6.6926   18.6105 O   0  0  0  0  0  0  0  0  0  0  0  0
    5.1435   -9.2778   15.2631 C   0  0  2  0  0  0  0  0  0  0  0  0
    5.7909   -7.9655   15.0203 N   0  0  0  0  0  0  0  0  0  0  0  0
   -3.2290   -5.0635   14.0486 C   0  0  1  0  0  0  0  0  0  0  0  0
   -2.9941   -5.0730   12.6427 O   0  0  0  0  0  0  0  0  0  0  0  0
   -2.3844   -7.6524   18.6318 C   0  0  2  0  0  0  0  0  0  0  0  0
   -2.9844   -8.7156   17.7993 N   0  0  0  0  0  0  0  0  0  0  0  0
    1.9153   -8.1682   16.9357 C   0  0  2  0  0  0  0  0  0  0  0  0
    3.2286   -8.0882   16.3148 O   0  0  0  0  0  0  0  0  0  0  0  0
    5.5205  -10.3099   14.1560 C   0  0  1  0  0  0  0  0  0  0  0  0
    5.2680  -11.6219   14.6543 O   0  0  0  0  0  0  0  0  0  0  0  0
   -4.6565   -4.5192   14.3059 C   0  0  2  0  0  0  0  0  0  0  0  0
   -4.7356   -3.1786   13.8312 O   0  0  0  0  0  0  0  0  0  0  0  0
   -1.5469   -6.6468   17.7626 C   0  0  2  0  0  0  0  0  0  0  0  0
    0.8126   -7.8966   15.9028 C   0  0  2  0  0  0  0  0  0  0  0  0
    0.6297   -6.4676   15.8857 O   0  0  0  0  0  0  0  0  0  0  0  0
    4.7288  -10.1330   12.8249 C   0  0  2  0  0  0  0  0  0  0  0  0
    5.2232   -8.9733   12.1531 O   0  0  0  0  0  0  0  0  0  0  0  0
   -4.9941   -4.5837   15.8225 C   0  0  2  0  0  0  0  0  0  0  0  0
   -4.7925   -5.9481   16.2997 O   0  0  0  0  0  0  0  0  0  0  0  0
   -0.6549   -5.6854   18.6288 C   0  0  2  0  0  0  0  0  0  0  0  0
    0.3082   -5.0486   17.7493 O   0  0  0  0  0  0  0  0  0  0  0  0
   -0.5159   -8.5961   16.2411 C   0  0  0  0  0  0  0  0  0  0  0  0
   -0.3233   -9.9890   16.4150 O   0  0  0  0  0  0  0  0  0  0  0  0
    3.2011   -9.9834   13.1047 C   0  0  1  0  0  0  0  0  0  0  0  0
    2.9848   -8.9356   14.0986 O   0  0  0  0  0  0  0  0  0  0  0  0
   -6.4473   -4.2003   16.1805 C   0  0  0  0  0  0  0  0  0  0  0  0
   -6.6132   -4.0619   17.5815 O   0  0  0  0  0  0  0  0  0  0  0  0
    0.1265   -6.4303   19.7553 C   0  0  1  0  0  0  0  0  0  0  0  0
    0.7662   -5.4634   20.5869 O   0  0  0  0  0  0  0  0  0  0  0  0
    2.3897   -9.6445   11.8280 C   0  0  0  0  0  0  0  0  0  0  0  0
    2.8902   -8.4369   11.1466 N   0  0  0  0  0  0  0  0  0  0  0  0
  1  2  1  1  0  0  0
  1  7  1  0  0  0  0
  1 30  1  0  0  0  0
  3  4  1  1  0  0  0
  3  9  1  0  0  0  0
  3 39  1  0  0  0  0
  5 10  1  0  0  0  0
  5 26  1  0  0  0  0
  5 32  1  1  0  0  0
  6 12  1  0  0  0  0
  6 36  1  0  0  0  0
  6 19  1  1  0  0  0
  7  8  1  1  0  0  0
  7 14  1  0  0  0  0
  9 16  1  0  0  0  0
 10 11  1  6  0  0  0
 10 18  1  0  0  0  0
 12 13  1  6  0  0  0
 12 20  1  0  0  0  0
 14 15  1  6  0  0  0
 14 22  1  0  0  0  0
 16 17  1  6  0  0  0
 16 24  1  0  0  0  0
 18 19  1  6  0  0  0
 18 25  1  0  0  0  0
 20 21  1  1  0  0  0
 20 27  1  0  0  0  0
 22 23  1  1  0  0  0
 22 29  1  0  0  0  0
 24  2  1  1  0  0  0
 24 31  1  0  0  0  0
 25 26  1  0  0  0  0
 25 33  1  1  0  0  0
 27 28  1  1  0  0  0
 27 35  1  0  0  0  0
 29 30  1  0  0  0  0
 29 37  1  6  0  0  0
 31 32  1  6  0  0  0
 31 39  1  0  0  0  0
 33 34  1  0  0  0  0
 35 36  1  0  0  0  0
 35 41  1  6  0  0  0
 37 38  1  0  0  0  0
 39 40  1  1  0  0  0
 41 42  1  0  0  0  0
M  END
>  <CHROM.1>
-102.51259051,-55.08630154,-164.53321638,-174.22488190,-73.69291349,160.90881992
-79.93932413,115.46669417,175.39469688,-157.71867194,58.80465081,58.88673670
-54.93696962,-175.23896143,-169.98999899,-61.45160471,-37.22561486,67.24697439
-55.39805768,177.44388123,65.22938381,-49.44189482,0.01747826,-7.24620333
16.09648843,2.87921105,-0.45183294,1.54888319

>  <Name>
1fyp_lig

>  <RI>
0

>  <Rbt.Current_Directory>
/home/afrankz/demos/rdock_decoys_rna/rnas/1fyp

>  <Rbt.Executable>
rbdock ($Id: //depot/dev/client3/rdock/2013.1/src/exe/rbdock.cxx#4 $)

>  <Rbt.Library>
libRbt.so (2013.1, Build901 2013/11/27)

>  <Rbt.Parameter_File>
/export/apps/rDock/src/rDock_2013.1_src/data/scripts/dock_solv.prm

>  <Rbt.Receptor>
prm/blind_docking_20.prm

>  <SCORE>
38.9251

>  <SCORE.INTER>
1.98905

>  <SCORE.INTER.CONST>
1

>  <SCORE.INTER.POLAR>
-2.52755

>  <SCORE.INTER.ROT>
14

>  <SCORE.INTER.SOLV>
17.4513

>  <SCORE.INTER.VDW>
-8.99923

>  <SCORE.INTER.norm>
0.0473582

>  <SCORE.INTRA>
2.51898

>  <SCORE.INTRA.DIHEDRAL>
-30.416

>  <SCORE.INTRA.DIHEDRAL.0>
48.7173

>  <SCORE.INTRA.POLAR>
-0.61748

>  <SCORE.INTRA.POLAR.0>
-1.54691

>  <SCORE.INTRA.REPUL>
0

>  <SCORE.INTRA.REPUL.0>
0

>  <SCORE.INTRA.SOLV>
2.18269

>  <SCORE.INTRA.SOLV.lig_0>
-64.052

>  <SCORE.INTRA.VDW>
18.7351

>  <SCORE.INTRA.VDW.0>
-7.0667

>  <SCORE.INTRA.norm>
0.0599756

>  <SCORE.RESTR>
34.4171

>  <SCORE.RESTR.CAVITY>
34.4171

>  <SCORE.RESTR.norm>
0.819454

>  <SCORE.SYSTEM>
0

>  <SCORE.SYSTEM.CONST>
0

>  <SCORE.SYSTEM.DIHEDRAL>
0

>  <SCORE.SYSTEM.SOLV>
0

>  <SCORE.SYSTEM.norm>
0

>  <SCORE.heavy>
42

>  <SCORE.norm>
0.926788

>  <RMSD>
17.911

$$$$
1fyp_lig
 OpenBabel11021811393D
libRbt.so/2013.1/901 2013/11/27
 42 45  0  0  0  0  0  0  0  0999 V2000
   -3.0459   -7.0902   16.0579 C   0  0  2  0  0  0  0  0  0  0  0  0
   -1.7279   -6.6776   16.5215 O   0  0  0  0  0  0  0  0  0  0  0  0
   -0.9066   -3.7321   19.5032 C   0  0  2  0  0  0  0  0  0  0  0  0
   -0.7362   -2.9593   20.7474 N   0  0  0  0  0  0  0  0  0  0  0  0
    1.6465   -7.2590   17.1327 C   0  0  1  0  0  0  0  0  0  0  0  0
    5.2503   -8.7913   14.9891 C   0  0  1  0  0  0  0  0  0  0  0  0
   -2.9547   -7.9141   14.7331 C   0  0  2  0  0  0  0  0  0  0  0  0
   -1.9741   -9.0140   14.8521 N   0  0  0  0  0  0  0  0  0  0  0  0
   -2.3541   -4.2563   19.4193 C   0  0  0  0  0  0  0  0  0  0  0  0
    2.9805   -7.7401   17.7092 C   0  0  2  0  0  0  0  0  0  0  0  0
    3.8928   -6.6437   17.7804 O   0  0  0  0  0  0  0  0  0  0  0  0
    5.3582   -8.5929   13.4464 C   0  0  2  0  0  0  0  0  0  0  0  0
    4.0767   -8.8519   12.7458 N   0  0  0  0  0  0  0  0  0  0  0  0
   -2.5898   -6.9913   13.5284 C   0  0  1  0  0  0  0  0  0  0  0  0
   -2.6661   -7.7232   12.3077 O   0  0  0  0  0  0  0  0  0  0  0  0
   -2.6136   -5.0597   18.1156 C   0  0  2  0  0  0  0  0  0  0  0  0
   -3.9951   -5.5810   18.1740 N   0  0  0  0  0  0  0  0  0  0  0  0
    3.4237   -8.7649   16.6614 C   0  0  2  0  0  0  0  0  0  0  0  0
    4.0759   -8.1294   15.5269 O   0  0  0  0  0  0  0  0  0  0  0  0
    6.5133   -9.4579   12.8543 C   0  0  1  0  0  0  0  0  0  0  0  0
    7.7575   -8.8670   13.2236 O   0  0  0  0  0  0  0  0  0  0  0  0
   -3.5377   -5.7697   13.4304 C   0  0  2  0  0  0  0  0  0  0  0  0
   -3.0967   -4.9224   12.3739 O   0  0  0  0  0  0  0  0  0  0  0  0
   -1.5729   -6.2156   17.8941 C   0  0  2  0  0  0  0  0  0  0  0  0
    2.0871   -9.3886   16.2359 C   0  0  2  0  0  0  0  0  0  0  0  0
    1.1048   -8.3418   16.3593 O   0  0  0  0  0  0  0  0  0  0  0  0
    6.5131  -10.9388   13.3411 C   0  0  2  0  0  0  0  0  0  0  0  0
    5.4381  -11.6274   12.7003 O   0  0  0  0  0  0  0  0  0  0  0  0
   -3.5624   -4.9955   14.7789 C   0  0  2  0  0  0  0  0  0  0  0  0
   -3.9069   -5.9196   15.8546 O   0  0  0  0  0  0  0  0  0  0  0  0
   -0.0881   -5.7540   18.1229 C   0  0  2  0  0  0  0  0  0  0  0  0
    0.7422   -6.9397   18.2282 O   0  0  0  0  0  0  0  0  0  0  0  0
    1.6836  -10.5972   17.0990 C   0  0  0  0  0  0  0  0  0  0  0  0
    2.6840  -11.6000   17.0631 O   0  0  0  0  0  0  0  0  0  0  0  0
    6.3522  -11.0123   14.8913 C   0  0  1  0  0  0  0  0  0  0  0  0
    5.1932  -10.2246   15.3020 O   0  0  0  0  0  0  0  0  0  0  0  0
   -4.5852   -3.8394   14.8445 C   0  0  0  0  0  0  0  0  0  0  0  0
   -5.8725   -4.3107   15.2054 O   0  0  0  0  0  0  0  0  0  0  0  0
    0.0935   -4.9105   19.4230 C   0  0  1  0  0  0  0  0  0  0  0  0
    1.4246   -4.3977   19.4554 O   0  0  0  0  0  0  0  0  0  0  0  0
    6.1849  -12.4647   15.4070 C   0  0  0  0  0  0  0  0  0  0  0  0
    6.3769  -12.5703   16.8647 N   0  0  0  0  0  0  0  0  0  0  0  0
  1  2  1  6  0  0  0
  1  7  1  0  0  0  0
  1 30  1  0  0  0  0
  3  4  1  1  0  0  0
  3  9  1  0  0  0  0
  3 39  1  0  0  0  0
  5 10  1  0  0  0  0
  5 26  1  0  0  0  0
  5 32  1  1  0  0  0
  6 12  1  0  0  0  0
  6 36  1  0  0  0  0
  6 19  1  6  0  0  0
  7  8  1  1  0  0  0
  7 14  1  0  0  0  0
  9 16  1  0  0  0  0
 10 11  1  6  0  0  0
 10 18  1  0  0  0  0
 12 13  1  6  0  0  0
 12 20  1  0  0  0  0
 14 15  1  6  0  0  0
 14 22  1  0  0  0  0
 16 17  1  1  0  0  0
 16 24  1  0  0  0  0
 18 19  1  6  0  0  0
 18 25  1  0  0  0  0
 20 21  1  1  0  0  0
 20 27  1  0  0  0  0
 22 23  1  6  0  0  0
 22 29  1  0  0  0  0
 24  2  1  6  0  0  0
 24 31  1  0  0  0  0
 25 26  1  0  0  0  0
 25 33  1  1  0  0  0
 27 28  1  6  0  0  0
 27 35  1  0  0  0  0
 29 30  1  0  0  0  0
 29 37  1  6  0  0  0
 31 32  1  1  0  0  0
 31 39  1  0  0  0  0
 33 34  1  0  0  0  0
 35 36  1  0  0  0  0
 35 41  1  6  0  0  0
 37 38  1  0  0  0  0
 39 40  1  6  0  0  0
 41 42  1  0  0  0  0
M  END
>  <CHROM.1>
-164.04193242,-54.08272804,-67.25973306,-139.57834008,-66.84500834,160.80421802
-67.45061906,155.43332414,139.00941354,146.60681790,56.98350410,65.07790600
-57.65789432,64.42825304,84.37873097,108.42468093,138.99882901,-53.68089304
165.39932910,74.10340596,173.07860242,-64.11484834,0.93845637,-7.56094863
15.95216984,2.75601039,-0.42201815,1.12071814

>  <Name>
1fyp_lig

>  <RI>
0

>  <Rbt.Current_Directory>
/home/afrankz/demos/rdock_decoys_rna/rnas/1fyp

>  <Rbt.Executable>
rbdock ($Id: //depot/dev/client3/rdock/2013.1/src/exe/rbdock.cxx#4 $)

>  <Rbt.Library>
libRbt.so (2013.1, Build901 2013/11/27)

>  <Rbt.Parameter_File>
/export/apps/rDock/src/rDock_2013.1_src/data/scripts/dock_solv.prm

>  <Rbt.Receptor>
prm/blind_docking_20.prm

>  <SCORE>
33.9057

>  <SCORE.INTER>
-2.87872

>  <SCORE.INTER.CONST>
1

>  <SCORE.INTER.POLAR>
-2.26674

>  <SCORE.INTER.ROT>
14

>  <SCORE.INTER.SOLV>
14.6049

>  <SCORE.INTER.VDW>
-12.165

>  <SCORE.INTER.norm>
-0.0685408

>  <SCORE.INTRA>
2.83762

>  <SCORE.INTRA.DIHEDRAL>
-16.8902

>  <SCORE.INTRA.DIHEDRAL.0>
48.7173

>  <SCORE.INTRA.POLAR>
0.740272

>  <SCORE.INTRA.POLAR.0>
-1.54691

>  <SCORE.INTRA.REPUL>
0.494471

>  <SCORE.INTRA.REPUL.0>
0

>  <SCORE.INTRA.SOLV>
-1.20615

>  <SCORE.INTRA.SOLV.lig_0>
-64.052

>  <SCORE.INTRA.VDW>
6.89653

>  <SCORE.INTRA.VDW.0>
-7.0667

>  <SCORE.INTRA.norm>
0.0675623

>  <SCORE.RESTR>
33.9468

>  <SCORE.RESTR.CAVITY>
33.9468

>  <SCORE.RESTR.norm>
0.808257

>  <SCORE.SYSTEM>
0

>  <SCORE.SYSTEM.CONST>
0

>  <SCORE.SYSTEM.DIHEDRAL>
0

>  <SCORE.SYSTEM.SOLV>
0

>  <SCORE.SYSTEM.norm>
0

>  <SCORE.heavy>
42

>  <SCORE.norm>
0.807278

>  <RMSD>
18.016

$$$$
1fyp_lig
 OpenBabel11021811393D
libRbt.so/2013.1/901 2013/11/27
 42 45  0  0  0  0  0  0  0  0999 V2000
   -3.9716   -5.6819   17.2393 C   0  0  2  0  0  0  0  0  0  0  0  0
   -2.7583   -4.9284   17.5266 O   0  0  0  0  0  0  0  0  0  0  0  0
    0.8077   -4.8167   19.8743 C   0  0  2  0  0  0  0  0  0  0  0  0
    1.9287   -5.0855   20.7938 N   0  0  0  0  0  0  0  0  0  0  0  0
    0.8791   -6.9509   16.0543 C   0  0  1  0  0  0  0  0  0  0  0  0
    4.1537   -9.0341   14.1155 C   0  0  1  0  0  0  0  0  0  0  0  0
   -3.6797   -6.9047   16.3111 C   0  0  2  0  0  0  0  0  0  0  0  0
   -2.5610   -7.7186   16.8324 N   0  0  0  0  0  0  0  0  0  0  0  0
   -0.5255   -4.9587   20.6354 C   0  0  0  0  0  0  0  0  0  0  0  0
    1.2698   -8.3567   16.5178 C   0  0  2  0  0  0  0  0  0  0  0  0
    2.1719   -8.2620   17.6208 O   0  0  0  0  0  0  0  0  0  0  0  0
    4.4621  -10.5457   14.3414 C   0  0  2  0  0  0  0  0  0  0  0  0
    4.9368  -10.8328   15.7171 N   0  0  0  0  0  0  0  0  0  0  0  0
   -3.3754   -6.4365   14.8536 C   0  0  1  0  0  0  0  0  0  0  0  0
   -3.2687   -7.5634   13.9874 O   0  0  0  0  0  0  0  0  0  0  0  0
   -1.7530   -4.6616   19.7314 C   0  0  2  0  0  0  0  0  0  0  0  0
   -2.9718   -4.9038   20.5311 N   0  0  0  0  0  0  0  0  0  0  0  0
    1.9683   -8.9141   15.2745 C   0  0  2  0  0  0  0  0  0  0  0  0
    3.3575   -8.4887   15.1996 O   0  0  0  0  0  0  0  0  0  0  0  0
    5.4681  -11.0734   13.2725 C   0  0  1  0  0  0  0  0  0  0  0  0
    4.7859  -11.1885   12.0255 O   0  0  0  0  0  0  0  0  0  0  0  0
   -4.4805   -5.4981   14.3073 C   0  0  2  0  0  0  0  0  0  0  0  0
   -4.0996   -5.0336   13.0158 O   0  0  0  0  0  0  0  0  0  0  0  0
   -1.7562   -5.5100   18.4091 C   0  0  2  0  0  0  0  0  0  0  0  0
    1.1498   -8.2870   14.1373 C   0  0  2  0  0  0  0  0  0  0  0  0
    0.7021   -7.0092   14.6299 O   0  0  0  0  0  0  0  0  0  0  0  0
    6.7134  -10.1592   13.0646 C   0  0  2  0  0  0  0  0  0  0  0  0
    7.5750  -10.3013   14.1951 O   0  0  0  0  0  0  0  0  0  0  0  0
   -4.7011   -4.3019   15.2761 C   0  0  2  0  0  0  0  0  0  0  0  0
   -4.9769   -4.8148   16.6143 O   0  0  0  0  0  0  0  0  0  0  0  0
   -0.3628   -5.5147   17.6821 C   0  0  2  0  0  0  0  0  0  0  0  0
   -0.3758   -6.5725   16.6884 O   0  0  0  0  0  0  0  0  0  0  0  0
   -0.0573   -9.1452   13.7188 C   0  0  0  0  0  0  0  0  0  0  0  0
   -0.9288   -8.4135   12.8746 O   0  0  0  0  0  0  0  0  0  0  0  0
    6.2845   -8.6683   12.8980 C   0  0  1  0  0  0  0  0  0  0  0  0
    5.4101   -8.2832   14.0024 O   0  0  0  0  0  0  0  0  0  0  0  0
   -5.8813   -3.3761   14.9055 C   0  0  0  0  0  0  0  0  0  0  0  0
   -5.6294   -2.6795   13.6969 O   0  0  0  0  0  0  0  0  0  0  0  0
    0.8303   -5.7694   18.6547 C   0  0  1  0  0  0  0  0  0  0  0  0
    2.0520   -5.5866   17.9406 O   0  0  0  0  0  0  0  0  0  0  0  0
    7.4941   -7.6999   12.8494 C   0  0  0  0  0  0  0  0  0  0  0  0
    8.3020   -7.7456   14.0816 N   0  0  0  0  0  0  0  0  0  0  0  0
  1  2  1  6  0  0  0
  1  7  1  0  0  0  0
  1 30  1  0  0  0  0
  3  4  1  1  0  0  0
  3  9  1  0  0  0  0
  3 39  1  0  0  0  0
  5 10  1  0  0  0  0
  5 26  1  0  0  0  0
  5 32  1  1  0  0  0
  6 12  1  0  0  0  0
  6 36  1  0  0  0  0
  6 19  1  1  0  0  0
  7  8  1  1  0  0  0
  7 14  1  0  0  0  0
  9 16  1  0  0  0  0
 10 11  1  1  0  0  0
 10 18  1  0  0  0  0
 12 13  1  1  0  0  0
 12 20  1  0  0  0  0
 14 15  1  6  0  0  0
 14 22  1  0  0  0  0
 16 17  1  1  0  0  0
 16 24  1  0  0  0  0
 18 19  1  6  0  0  0
 18 25  1  0  0  0  0
 20 21  1  6  0  0  0
 20 27  1  0  0  0  0
 22 23  1  6  0  0  0
 22 29  1  0  0  0  0
 24  2  1  6  0  0  0
 24 31  1  0  0  0  0
 25 26  1  0  0  0  0
 25 33  1  1  0  0  0
 27 28  1  1  0  0  0
 27 35  1  0  0  0  0
 29 30  1  0  0  0  0
 29 37  1  6  0  0  0
 31 32  1  6  0  0  0
 31 39  1  0  0  0  0
 33 34  1  0  0  0  0
 35 36  1  0  0  0  0
 35 41  1  1  0  0  0
 37 38  1  0  0  0  0
 39 40  1  6  0  0  0
 41 42  1  0  0  0  0
M  END
>  <CHROM.1>
-71.42045162,-111.29951513,38.84611152,-79.80594050,-70.17261889,-31.31325385
62.25293914,-173.58185849,175.58256098,-71.24833178,64.84974424,-167.81449303
167.94509188,-47.37274368,-66.96356195,-168.49895464,111.42165157,-75.27446909
-60.72881113,-173.79659520,-59.29876431,174.81442840,0.59064272,-7.08570734
15.74098426,-2.75734377,0.33474980,-1.93680587

>  <Name>
1fyp_lig

>  <RI>
0

>  <Rbt.Current_Directory>
/home/afrankz/demos/rdock_decoys_rna/rnas/1fyp

>  <Rbt.Executable>
rbdock ($Id: //depot/dev/client3/rdock/2013.1/src/exe/rbdock.cxx#4 $)

>  <Rbt.Library>
libRbt.so (2013.1, Build901 2013/11/27)

>  <Rbt.Parameter_File>
/export/apps/rDock/src/rDock_2013.1_src/data/scripts/dock_solv.prm

>  <Rbt.Receptor>
prm/blind_docking_20.prm

>  <SCORE>
40.4624

>  <SCORE.INTER>
20.4818

>  <SCORE.INTER.CONST>
1

>  <SCORE.INTER.POLAR>
-1.85889

>  <SCORE.INTER.ROT>
14

>  <SCORE.INTER.SOLV>
12.5612

>  <SCORE.INTER.VDW>
2.73041

>  <SCORE.INTER.norm>
0.487661

>  <SCORE.INTRA>
-11.0672

>  <SCORE.INTRA.DIHEDRAL>
-25.9633

>  <SCORE.INTRA.DIHEDRAL.0>
48.7173

>  <SCORE.INTRA.POLAR>
-1.53576

>  <SCORE.INTRA.POLAR.0>
-1.54691

>  <SCORE.INTRA.REPUL>
0.11125

>  <SCORE.INTRA.REPUL.0>
0

>  <SCORE.INTRA.SOLV>
1.79667

>  <SCORE.INTRA.SOLV.lig_0>
-64.052

>  <SCORE.INTRA.VDW>
5.6814

>  <SCORE.INTRA.VDW.0>
-7.0667

>  <SCORE.INTRA.norm>
-0.263506

>  <SCORE.RESTR>
31.0479

>  <SCORE.RESTR.CAVITY>
31.0479

>  <SCORE.RESTR.norm>
0.739236

>  <SCORE.SYSTEM>
0

>  <SCORE.SYSTEM.CONST>
0

>  <SCORE.SYSTEM.DIHEDRAL>
0

>  <SCORE.SYSTEM.SOLV>
0

>  <SCORE.SYSTEM.norm>
0

>  <SCORE.heavy>
42

>  <SCORE.norm>
0.963391

>  <RMSD>
18.058

$$$$
1fyp_lig
 OpenBabel11021811393D
libRbt.so/2013.1/901 2013/11/27
 42 45  0  0  0  0  0  0  0  0999 V2000
   -4.2305   -5.1653   13.6256 C   0  0  2  0  0  0  0  0  0  0  0  0
   -3.0890   -5.2716   14.5246 O   0  0  0  0  0  0  0  0  0  0  0  0
   -4.3596   -8.2488   17.3108 C   0  0  2  0  0  0  0  0  0  0  0  0
   -4.5135   -9.4390   18.1676 N   0  0  0  0  0  0  0  0  0  0  0  0
   -0.4598   -6.1576   16.8166 C   0  0  1  0  0  0  0  0  0  0  0  0
    2.8465   -8.4490   16.3167 C   0  0  1  0  0  0  0  0  0  0  0  0
   -4.0549   -3.9867   12.6146 C   0  0  2  0  0  0  0  0  0  0  0  0
   -2.7433   -4.0534   11.9356 N   0  0  0  0  0  0  0  0  0  0  0  0
   -4.1928   -8.6913   15.8434 C   0  0  0  0  0  0  0  0  0  0  0  0
    0.6088   -5.8435   17.8670 C   0  0  2  0  0  0  0  0  0  0  0  0
    1.3889   -4.7279   17.4354 O   0  0  0  0  0  0  0  0  0  0  0  0
    4.0730   -8.9708   17.1258 C   0  0  2  0  0  0  0  0  0  0  0  0
    5.1302   -7.9429   17.2875 N   0  0  0  0  0  0  0  0  0  0  0  0
   -4.2247   -2.6101   13.3303 C   0  0  1  0  0  0  0  0  0  0  0  0
   -4.2206   -1.5543   12.3728 O   0  0  0  0  0  0  0  0  0  0  0  0
   -4.0523   -7.4832   14.8775 C   0  0  2  0  0  0  0  0  0  0  0  0
   -3.8180   -8.0160   13.5192 N   0  0  0  0  0  0  0  0  0  0  0  0
    1.4352   -7.1325   17.8688 C   0  0  2  0  0  0  0  0  0  0  0  0
    2.4138   -7.1478   16.7924 O   0  0  0  0  0  0  0  0  0  0  0  0
    4.6434  -10.2760   16.4901 C   0  0  1  0  0  0  0  0  0  0  0  0
    3.7442  -11.3469   16.7694 O   0  0  0  0  0  0  0  0  0  0  0  0
   -5.5457   -2.5388   14.1365 C   0  0  2  0  0  0  0  0  0  0  0  0
   -5.5963   -1.3001   14.8379 O   0  0  0  0  0  0  0  0  0  0  0  0
   -2.9155   -6.4876   15.3074 C   0  0  2  0  0  0  0  0  0  0  0  0
    0.3607   -8.2040   17.6366 C   0  0  2  0  0  0  0  0  0  0  0  0
   -0.6483   -7.5817   16.8178 O   0  0  0  0  0  0  0  0  0  0  0  0
    4.8435  -10.1972   14.9462 C   0  0  2  0  0  0  0  0  0  0  0  0
    5.9745   -9.3672   14.6766 O   0  0  0  0  0  0  0  0  0  0  0  0
   -5.6388   -3.7334   15.1278 C   0  0  2  0  0  0  0  0  0  0  0  0
   -5.4692   -4.9812   14.3903 O   0  0  0  0  0  0  0  0  0  0  0  0
   -2.9604   -6.1319   16.8376 C   0  0  2  0  0  0  0  0  0  0  0  0
   -1.7031   -5.4990   17.1911 O   0  0  0  0  0  0  0  0  0  0  0  0
   -0.2648   -8.7238   18.9433 C   0  0  0  0  0  0  0  0  0  0  0  0
    0.6968   -8.7622   19.9832 O   0  0  0  0  0  0  0  0  0  0  0  0
    3.5721   -9.6177   14.2518 C   0  0  1  0  0  0  0  0  0  0  0  0
    3.1926   -8.3616   14.8927 O   0  0  0  0  0  0  0  0  0  0  0  0
   -6.9814   -3.8457   15.8841 C   0  0  0  0  0  0  0  0  0  0  0  0
   -8.0619   -4.0446   14.9882 O   0  0  0  0  0  0  0  0  0  0  0  0
   -3.1528   -7.3842   17.7482 C   0  0  1  0  0  0  0  0  0  0  0  0
   -3.3519   -6.9485   19.0922 O   0  0  0  0  0  0  0  0  0  0  0  0
    3.7795   -9.3693   12.7357 C   0  0  0  0  0  0  0  0  0  0  0  0
    4.3102  -10.5546   12.0382 N   0  0  0  0  0  0  0  0  0  0  0  0
  1  2  1  1  0  0  0
  1  7  1  0  0  0  0
  1 30  1  0  0  0  0
  3  4  1  1  0  0  0
  3  9  1  0  0  0  0
  3 39  1  0  0  0  0
  5 10  1  0  0  0  0
  5 26  1  0  0  0  0
  5 32  1  1  0  0  0
  6 12  1  0  0  0  0
  6 36  1  0  0  0  0
  6 19  1  1  0  0  0
  7  8  1  1  0  0  0
  7 14  1  0  0  0  0
  9 16  1  0  0  0  0
 10 11  1  6  0  0  0
 10 18  1  0  0  0  0
 12 13  1  6  0  0  0
 12 20  1  0  0  0  0
 14 15  1  6  0  0  0
 14 22  1  0  0  0  0
 16 17  1  6  0  0  0
 16 24  1  0  0  0  0
 18 19  1  6  0  0  0
 18 25  1  0  0  0  0
 20 21  1  6  0  0  0
 20 27  1  0  0  0  0
 22 23  1  1  0  0  0
 22 29  1  0  0  0  0
 24  2  1  6  0  0  0
 24 31  1  0  0  0  0
 25 26  1  0  0  0  0
 25 33  1  1  0  0  0
 27 28  1  1  0  0  0
 27 35  1  0  0  0  0
 29 30  1  0  0  0  0
 29 37  1  6  0  0  0
 31 32  1  1  0  0  0
 31 39  1  0  0  0  0
 33 34  1  0  0  0  0
 35 36  1  0  0  0  0
 35 41  1  6  0  0  0
 37 38  1  0  0  0  0
 39 40  1  1  0  0  0
 41 42  1  0  0  0  0
M  END
>  <CHROM.1>
-165.11543202,3.60195041,173.15202574,172.48351556,46.73265240,67.02500838
61.43284519,-66.02573584,-154.48818517,-88.87833614,-67.61675637,71.55150364
-34.69854158,53.51889244,61.61836395,-50.84590070,-148.15963571,-177.93461768
51.67502396,-46.02977709,-60.88866811,-57.86050086,-1.02191215,-6.79368275
15.74834765,-2.78539412,-0.40373471,2.08332552

>  <Name>
1fyp_lig

>  <RI>
0

>  <Rbt.Current_Directory>
/home/afrankz/demos/rdock_decoys_rna/rnas/1fyp

>  <Rbt.Executable>
rbdock ($Id: //depot/dev/client3/rdock/2013.1/src/exe/rbdock.cxx#4 $)

>  <Rbt.Library>
libRbt.so (2013.1, Build901 2013/11/27)

>  <Rbt.Parameter_File>
/export/apps/rDock/src/rDock_2013.1_src/data/scripts/dock_solv.prm

>  <Rbt.Receptor>
prm/blind_docking_20.prm

>  <SCORE>
76.3988

>  <SCORE.INTER>
40.9031

>  <SCORE.INTER.CONST>
1

>  <SCORE.INTER.POLAR>
-2.29621

>  <SCORE.INTER.ROT>
14

>  <SCORE.INTER.SOLV>
17.1627

>  <SCORE.INTER.VDW>
16.2685

>  <SCORE.INTER.norm>
0.973883

>  <SCORE.INTRA>
-0.0529505

>  <SCORE.INTRA.DIHEDRAL>
-23.9991

>  <SCORE.INTRA.DIHEDRAL.0>
48.7173

>  <SCORE.INTRA.POLAR>
1.54691

>  <SCORE.INTRA.POLAR.0>
-1.54691

>  <SCORE.INTRA.REPUL>
0

>  <SCORE.INTRA.REPUL.0>
0

>  <SCORE.INTRA.SOLV>
-1.97284

>  <SCORE.INTRA.SOLV.lig_0>
-64.052

>  <SCORE.INTRA.VDW>
7.67351

>  <SCORE.INTRA.VDW.0>
-7.0667

>  <SCORE.INTRA.norm>
-0.00126073

>  <SCORE.RESTR>
35.5487

>  <SCORE.RESTR.CAVITY>
35.5487

>  <SCORE.RESTR.norm>
0.846397

>  <SCORE.SYSTEM>
0

>  <SCORE.SYSTEM.CONST>
0

>  <SCORE.SYSTEM.DIHEDRAL>
0

>  <SCORE.SYSTEM.SOLV>
0

>  <SCORE.SYSTEM.norm>
0

>  <SCORE.heavy>
42

>  <SCORE.norm>
1.81902

>  <RMSD>
18.125

$$$$
1fyp_lig
 OpenBabel11021811393D
libRbt.so/2013.1/901 2013/11/27
 42 45  0  0  0  0  0  0  0  0999 V2000
   -4.2453   -5.8049   16.6774 C   0  0  2  0  0  0  0  0  0  0  0  0
   -2.7946   -5.9380   16.6722 O   0  0  0  0  0  0  0  0  0  0  0  0
    0.3065   -4.4626   19.2113 C   0  0  2  0  0  0  0  0  0  0  0  0
    1.1966   -4.1128   20.3338 N   0  0  0  0  0  0  0  0  0  0  0  0
    0.4892   -8.5199   17.0659 C   0  0  1  0  0  0  0  0  0  0  0  0
    3.3751  -10.4152   14.5355 C   0  0  1  0  0  0  0  0  0  0  0  0
   -4.9291   -6.9623   15.8805 C   0  0  2  0  0  0  0  0  0  0  0  0
   -4.4326   -8.2832   16.3213 N   0  0  0  0  0  0  0  0  0  0  0  0
   -1.1351   -4.0305   19.5461 C   0  0  0  0  0  0  0  0  0  0  0  0
   -0.0181   -9.5394   16.0427 C   0  0  2  0  0  0  0  0  0  0  0  0
   -0.1427  -10.8187   16.6651 O   0  0  0  0  0  0  0  0  0  0  0  0
    4.7001  -10.4274   15.3574 C   0  0  2  0  0  0  0  0  0  0  0  0
    4.7085   -9.4167   16.4430 N   0  0  0  0  0  0  0  0  0  0  0  0
   -4.7094   -6.7860   14.3453 C   0  0  1  0  0  0  0  0  0  0  0  0
   -5.4684   -7.7543   13.6256 O   0  0  0  0  0  0  0  0  0  0  0  0
   -2.1259   -4.3448   18.3920 C   0  0  2  0  0  0  0  0  0  0  0  0
   -3.4810   -3.9683   18.8453 N   0  0  0  0  0  0  0  0  0  0  0  0
    1.1097   -9.5323   15.0072 C   0  0  2  0  0  0  0  0  0  0  0  0
    2.2133  -10.3928   15.4052 O   0  0  0  0  0  0  0  0  0  0  0  0
    5.9365  -10.2641   14.4206 C   0  0  1  0  0  0  0  0  0  0  0  0
    6.1283  -11.4833   13.7062 O   0  0  0  0  0  0  0  0  0  0  0  0
   -5.1267   -5.3745   13.8618 C   0  0  2  0  0  0  0  0  0  0  0  0
   -4.8158   -5.2462   12.4778 O   0  0  0  0  0  0  0  0  0  0  0  0
   -2.0709   -5.8463   17.9328 C   0  0  2  0  0  0  0  0  0  0  0  0
    1.5438   -8.0599   15.0142 C   0  0  2  0  0  0  0  0  0  0  0  0
    1.3224   -7.5884   16.3575 O   0  0  0  0  0  0  0  0  0  0  0  0
    5.8014   -9.1076   13.3843 C   0  0  2  0  0  0  0  0  0  0  0  0
    5.9421   -7.8632   14.0715 O   0  0  0  0  0  0  0  0  0  0  0  0
   -4.3948   -4.2812   14.6908 C   0  0  2  0  0  0  0  0  0  0  0  0
   -4.6429   -4.5113   16.1105 O   0  0  0  0  0  0  0  0  0  0  0  0
   -0.6031   -6.3702   17.7292 C   0  0  2  0  0  0  0  0  0  0  0  0
   -0.6486   -7.8183   17.6428 O   0  0  0  0  0  0  0  0  0  0  0  0
    0.7573   -7.1946   14.0134 C   0  0  0  0  0  0  0  0  0  0  0  0
   -0.5861   -7.6336   13.9129 O   0  0  0  0  0  0  0  0  0  0  0  0
    4.4205   -9.1705   12.6608 C   0  0  1  0  0  0  0  0  0  0  0  0
    3.3504   -9.2430   13.6519 O   0  0  0  0  0  0  0  0  0  0  0  0
   -4.8425   -2.8328   14.3928 C   0  0  0  0  0  0  0  0  0  0  0  0
   -4.0352   -2.2404   13.3893 O   0  0  0  0  0  0  0  0  0  0  0  0
    0.3510   -5.9779   18.8998 C   0  0  1  0  0  0  0  0  0  0  0  0
    1.6843   -6.3444   18.5479 O   0  0  0  0  0  0  0  0  0  0  0  0
    4.1728   -7.9500   11.7377 C   0  0  0  0  0  0  0  0  0  0  0  0
    5.2330   -7.7839   10.7271 N   0  0  0  0  0  0  0  0  0  0  0  0
  1  2  1  6  0  0  0
  1  7  1  0  0  0  0
  1 30  1  0  0  0  0
  3  4  1  1  0  0  0
  3  9  1  0  0  0  0
  3 39  1  0  0  0  0
  5 10  1  0  0  0  0
  5 26  1  0  0  0  0
  5 32  1  6  0  0  0
  6 12  1  0  0  0  0
  6 36  1  0  0  0  0
  6 19  1  1  0  0  0
  7  8  1  1  0  0  0
  7 14  1  0  0  0  0
  9 16  1  0  0  0  0
 10 11  1  1  0  0  0
 10 18  1  0  0  0  0
 12 13  1  1  0  0  0
 12 20  1  0  0  0  0
 14 15  1  6  0  0  0
 14 22  1  0  0  0  0
 16 17  1  1  0  0  0
 16 24  1  0  0  0  0
 18 19  1  1  0  0  0
 18 25  1  0  0  0  0
 20 21  1  6  0  0  0
 20 27  1  0  0  0  0
 22 23  1  6  0  0  0
 22 29  1  0  0  0  0
 24  2  1  6  0  0  0
 24 31  1  0  0  0  0
 25 26  1  0  0  0  0
 25 33  1  6  0  0  0
 27 28  1  1  0  0  0
 27 35  1  0  0  0  0
 29 30  1  0  0  0  0
 29 37  1  6  0  0  0
 31 32  1  1  0  0  0
 31 39  1  0  0  0  0
 33 34  1  0  0  0  0
 35 36  1  0  0  0  0
 35 41  1  1  0  0  0
 37 38  1  0  0  0  0
 39 40  1  6  0  0  0
 41 42  1  0  0  0  0
M  END
>  <CHROM.1>
-130.43305622,-71.35307154,-151.75107609,23.19315510,62.09335950,-17.05935166
-15.04620583,-80.51388298,-176.88574713,139.18465451,-52.47163244,-54.47616621
34.87236022,65.23196188,-92.16321665,161.89609762,-132.27608236,-179.78117249
56.49838981,-58.08805309,35.91860210,60.62054994,-0.00776226,-7.18530140
15.59420160,2.80782790,-0.40033930,1.23674729

>  <Name>
1fyp_lig

>  <RI>
0

>  <Rbt.Current_Directory>
/home/afrankz/demos/rdock_decoys_rna/rnas/1fyp

>  <Rbt.Executable>
rbdock ($Id: //depot/dev/client3/rdock/2013.1/src/exe/rbdock.cxx#4 $)

>  <Rbt.Library>
libRbt.so (2013.1, Build901 2013/11/27)

>  <Rbt.Parameter_File>
/export/apps/rDock/src/rDock_2013.1_src/data/scripts/dock_solv.prm

>  <Rbt.Receptor>
prm/blind_docking_20.prm

>  <SCORE>
40.6448

>  <SCORE.INTER>
-1.99385

>  <SCORE.INTER.CONST>
1

>  <SCORE.INTER.POLAR>
-4.30769

>  <SCORE.INTER.ROT>
14

>  <SCORE.INTER.SOLV>
14.1117

>  <SCORE.INTER.VDW>
-4.60749

>  <SCORE.INTER.norm>
-0.0474727

>  <SCORE.INTRA>
9.78734

>  <SCORE.INTRA.DIHEDRAL>
-7.92881

>  <SCORE.INTRA.DIHEDRAL.0>
48.7173

>  <SCORE.INTRA.POLAR>
1.46573

>  <SCORE.INTRA.POLAR.0>
-1.54691

>  <SCORE.INTRA.REPUL>
0.465695

>  <SCORE.INTRA.REPUL.0>
0

>  <SCORE.INTRA.SOLV>
-1.08491

>  <SCORE.INTRA.SOLV.lig_0>
-64.052

>  <SCORE.INTRA.VDW>
6.98224

>  <SCORE.INTRA.VDW.0>
-7.0667

>  <SCORE.INTRA.norm>
0.233032

>  <SCORE.RESTR>
32.8513

>  <SCORE.RESTR.CAVITY>
32.8513

>  <SCORE.RESTR.norm>
0.782174

>  <SCORE.SYSTEM>
0

>  <SCORE.SYSTEM.CONST>
0

>  <SCORE.SYSTEM.DIHEDRAL>
0

>  <SCORE.SYSTEM.SOLV>
0

>  <SCORE.SYSTEM.norm>
0

>  <SCORE.heavy>
42

>  <SCORE.norm>
0.967733

>  <RMSD>
18.169

$$$$
1fyp_lig
 OpenBabel11021811393D
libRbt.so/2013.1/901 2013/11/27
 42 45  0  0  0  0  0  0  0  0999 V2000
   -3.4744   -6.9620   15.9260 C   0  0  2  0  0  0  0  0  0  0  0  0
   -2.1231   -6.5129   16.2339 O   0  0  0  0  0  0  0  0  0  0  0  0
   -0.3819   -4.5449   19.6008 C   0  0  2  0  0  0  0  0  0  0  0  0
    0.0922   -4.1350   20.9356 N   0  0  0  0  0  0  0  0  0  0  0  0
    1.6473   -7.5873   16.5505 C   0  0  1  0  0  0  0  0  0  0  0  0
    5.5988   -8.7422   14.8566 C   0  0  1  0  0  0  0  0  0  0  0  0
   -3.5360   -7.6841   14.5415 C   0  0  2  0  0  0  0  0  0  0  0  0
   -2.5017   -8.7355   14.4386 N   0  0  0  0  0  0  0  0  0  0  0  0
   -1.8997   -4.8099   19.6547 C   0  0  0  0  0  0  0  0  0  0  0  0
    2.7471   -8.3701   17.2728 C   0  0  2  0  0  0  0  0  0  0  0  0
    3.6004   -7.4614   17.9696 O   0  0  0  0  0  0  0  0  0  0  0  0
    5.6249   -8.4578   13.3238 C   0  0  2  0  0  0  0  0  0  0  0  0
    4.3142   -8.7039   12.6745 N   0  0  0  0  0  0  0  0  0  0  0  0
   -3.3856   -6.6603   13.3731 C   0  0  1  0  0  0  0  0  0  0  0  0
   -3.6021   -7.3073   12.1216 O   0  0  0  0  0  0  0  0  0  0  0  0
   -2.4740   -5.2212   18.2714 C   0  0  2  0  0  0  0  0  0  0  0  0
   -3.9083   -5.5281   18.4513 N   0  0  0  0  0  0  0  0  0  0  0  0
    3.4788   -9.0344   16.1033 C   0  0  2  0  0  0  0  0  0  0  0  0
    4.4419   -8.1342   15.4879 O   0  0  0  0  0  0  0  0  0  0  0  0
    6.7633   -9.2661   12.6280 C   0  0  1  0  0  0  0  0  0  0  0  0
    8.0142   -8.6714   12.9672 O   0  0  0  0  0  0  0  0  0  0  0  0
   -4.3898   -5.4876   13.5017 C   0  0  2  0  0  0  0  0  0  0  0  0
   -4.1398   -4.5454   12.4631 O   0  0  0  0  0  0  0  0  0  0  0  0
   -1.7050   -6.4299   17.6266 C   0  0  2  0  0  0  0  0  0  0  0  0
    2.3278   -9.3377   15.1340 C   0  0  2  0  0  0  0  0  0  0  0  0
    1.3571   -8.2917   15.3326 O   0  0  0  0  0  0  0  0  0  0  0  0
    6.8133  -10.7710   13.0314 C   0  0  2  0  0  0  0  0  0  0  0  0
    5.7192  -11.4450   12.4076 O   0  0  0  0  0  0  0  0  0  0  0  0
   -4.2569   -4.8130   14.8965 C   0  0  2  0  0  0  0  0  0  0  0  0
   -4.4053   -5.8278   15.9347 O   0  0  0  0  0  0  0  0  0  0  0  0
   -0.1432   -6.2660   17.6918 C   0  0  2  0  0  0  0  0  0  0  0  0
    0.4586   -7.5518   17.3905 O   0  0  0  0  0  0  0  0  0  0  0  0
    1.6809  -10.7129   15.3776 C   0  0  0  0  0  0  0  0  0  0  0  0
    2.6171  -11.7556   15.1679 O   0  0  0  0  0  0  0  0  0  0  0  0
    6.7325  -10.9321   14.5812 C   0  0  1  0  0  0  0  0  0  0  0  0
    5.5824  -10.1913   15.0920 O   0  0  0  0  0  0  0  0  0  0  0  0
   -5.3092   -3.7210   15.1918 C   0  0  0  0  0  0  0  0  0  0  0  0
   -5.2002   -2.6408   14.2804 O   0  0  0  0  0  0  0  0  0  0  0  0
    0.3622   -5.8037   19.0938 C   0  0  1  0  0  0  0  0  0  0  0  0
    1.7578   -5.5196   19.0079 O   0  0  0  0  0  0  0  0  0  0  0  0
    6.6166  -12.4134   15.0232 C   0  0  0  0  0  0  0  0  0  0  0  0
    6.3698  -12.5518   16.4699 N   0  0  0  0  0  0  0  0  0  0  0  0
  1  2  1  6  0  0  0
  1  7  1  0  0  0  0
  1 30  1  0  0  0  0
  3  4  1  1  0  0  0
  3  9  1  0  0  0  0
  3 39  1  0  0  0  0
  5 10  1  0  0  0  0
  5 26  1  0  0  0  0
  5 32  1  1  0  0  0
  6 12  1  0  0  0  0
  6 36  1  0  0  0  0
  6 19  1  6  0  0  0
  7  8  1  1  0  0  0
  7 14  1  0  0  0  0
  9 16  1  0  0  0  0
 10 11  1  6  0  0  0
 10 18  1  0  0  0  0
 12 13  1  6  0  0  0
 12 20  1  0  0  0  0
 14 15  1  6  0  0  0
 14 22  1  0  0  0  0
 16 17  1  1  0  0  0
 16 24  1  0  0  0  0
 18 19  1  6  0  0  0
 18 25  1  0  0  0  0
 20 21  1  1  0  0  0
 20 27  1  0  0  0  0
 22 23  1  6  0  0  0
 22 29  1  0  0  0  0
 24  2  1  6  0  0  0
 24 31  1  0  0  0  0
 25 26  1  0  0  0  0
 25 33  1  1  0  0  0
 27 28  1  6  0  0  0
 27 35  1  0  0  0  0
 29 30  1  0  0  0  0
 29 37  1  1  0  0  0
 31 32  1  1  0  0  0
 31 39  1  0  0  0  0
 33 34  1  0  0  0  0
 35 36  1  0  0  0  0
 35 41  1  6  0  0  0
 37 38  1  0  0  0  0
 39 40  1  6  0  0  0
 41 42  1  0  0  0  0
M  END
>  <CHROM.1>
-150.35630769,-70.85097814,-50.81941882,-50.93499231,-75.29107111,-12.83069029
-173.51995636,46.02626734,151.39008824,116.83483581,62.90786088,-51.91409909
-62.55363953,-43.08778404,-62.37442869,139.65859647,126.74927168,69.39048554
-172.76527038,57.06372517,56.86374824,40.08619523,0.90677028,-7.60680110
15.64986170,2.83516070,-0.42054693,1.20580190

>  <Name>
1fyp_lig

>  <RI>
0

>  <Rbt.Current_Directory>
/home/afrankz/demos/rdock_decoys_rna/rnas/1fyp

>  <Rbt.Executable>
rbdock ($Id: //depot/dev/client3/rdock/2013.1/src/exe/rbdock.cxx#4 $)

>  <Rbt.Library>
libRbt.so (2013.1, Build901 2013/11/27)

>  <Rbt.Parameter_File>
/export/apps/rDock/src/rDock_2013.1_src/data/scripts/dock_solv.prm

>  <Rbt.Receptor>
prm/blind_docking_20.prm

>  <SCORE>
37.1738

>  <SCORE.INTER>
10.0609

>  <SCORE.INTER.CONST>
1

>  <SCORE.INTER.POLAR>
-0.269816

>  <SCORE.INTER.ROT>
14

>  <SCORE.INTER.SOLV>
11.5657

>  <SCORE.INTER.VDW>
-9.18192

>  <SCORE.INTER.norm>
0.239545

>  <SCORE.INTRA>
-6.06849

>  <SCORE.INTRA.DIHEDRAL>
-14.5592

>  <SCORE.INTRA.DIHEDRAL.0>
48.7173

>  <SCORE.INTRA.POLAR>
-0.946969

>  <SCORE.INTRA.POLAR.0>
-1.54691

>  <SCORE.INTRA.REPUL>
0.0363309

>  <SCORE.INTRA.REPUL.0>
0

>  <SCORE.INTRA.SOLV>
-0.592287

>  <SCORE.INTRA.SOLV.lig_0>
-64.052

>  <SCORE.INTRA.VDW>
4.54531

>  <SCORE.INTRA.VDW.0>
-7.0667

>  <SCORE.INTRA.norm>
-0.144488

>  <SCORE.RESTR>
33.1814

>  <SCORE.RESTR.CAVITY>
33.1814

>  <SCORE.RESTR.norm>
0.790033

>  <SCORE.SYSTEM>
0

>  <SCORE.SYSTEM.CONST>
0

>  <SCORE.SYSTEM.DIHEDRAL>
0

>  <SCORE.SYSTEM.SOLV>
0

>  <SCORE.SYSTEM.norm>
0

>  <SCORE.heavy>
42

>  <SCORE.norm>
0.88509

>  <RMSD>
18.366

$$$$
1fyp_lig
 OpenBabel11021811393D
libRbt.so/2013.1/901 2013/11/27
 42 45  0  0  0  0  0  0  0  0999 V2000
   -3.6562   -6.4938   15.3391 C   0  0  2  0  0  0  0  0  0  0  0  0
   -2.6188   -6.1048   16.2850 O   0  0  0  0  0  0  0  0  0  0  0  0
   -1.4714   -8.7988   19.3941 C   0  0  2  0  0  0  0  0  0  0  0  0
   -0.8620   -9.8521   20.2270 N   0  0  0  0  0  0  0  0  0  0  0  0
    1.1232   -6.2287   17.0276 C   0  0  1  0  0  0  0  0  0  0  0  0
    3.9791   -8.6139   15.0265 C   0  0  1  0  0  0  0  0  0  0  0  0
   -3.2655   -6.1165   13.8738 C   0  0  2  0  0  0  0  0  0  0  0  0
   -1.9123   -6.6072   13.5363 N   0  0  0  0  0  0  0  0  0  0  0  0
   -2.0156   -9.4238   18.0939 C   0  0  0  0  0  0  0  0  0  0  0  0
    1.6660   -7.4272   17.8104 C   0  0  2  0  0  0  0  0  0  0  0  0
    2.7445   -7.0033   18.6449 O   0  0  0  0  0  0  0  0  0  0  0  0
    4.0953  -10.1561   15.2242 C   0  0  2  0  0  0  0  0  0  0  0  0
    4.7688  -10.5202   16.4947 N   0  0  0  0  0  0  0  0  0  0  0  0
   -3.3521   -4.5736   13.6549 C   0  0  1  0  0  0  0  0  0  0  0  0
   -3.1490   -4.2600   12.2793 O   0  0  0  0  0  0  0  0  0  0  0  0
   -2.6982   -8.3721   17.1772 C   0  0  2  0  0  0  0  0  0  0  0  0
   -3.1082   -9.0561   15.9331 N   0  0  0  0  0  0  0  0  0  0  0  0
    2.1597   -8.3397   16.6843 C   0  0  2  0  0  0  0  0  0  0  0  0
    3.4880   -7.9621   16.2268 O   0  0  0  0  0  0  0  0  0  0  0  0
    4.7956  -10.8221   13.9998 C   0  0  1  0  0  0  0  0  0  0  0  0
    3.8846  -10.8251   12.9028 O   0  0  0  0  0  0  0  0  0  0  0  0
   -4.7258   -4.0058   14.0920 C   0  0  2  0  0  0  0  0  0  0  0  0
   -4.7077   -2.5881   13.9555 O   0  0  0  0  0  0  0  0  0  0  0  0
   -1.7766   -7.1360   16.8756 C   0  0  2  0  0  0  0  0  0  0  0  0
    1.1182   -8.0870   15.5853 C   0  0  2  0  0  0  0  0  0  0  0  0
    0.6975   -6.7184   15.7459 O   0  0  0  0  0  0  0  0  0  0  0  0
    6.1029  -10.1042   13.5463 C   0  0  2  0  0  0  0  0  0  0  0  0
    7.1282  -10.3816   14.5015 O   0  0  0  0  0  0  0  0  0  0  0  0
   -5.0347   -4.4104   15.5614 C   0  0  2  0  0  0  0  0  0  0  0  0
   -4.9325   -5.8605   15.6898 O   0  0  0  0  0  0  0  0  0  0  0  0
   -1.0797   -6.5641   18.1629 C   0  0  2  0  0  0  0  0  0  0  0  0
   -0.0164   -5.6707   17.7415 O   0  0  0  0  0  0  0  0  0  0  0  0
   -0.0962   -9.0280   15.6774 C   0  0  0  0  0  0  0  0  0  0  0  0
   -0.9427   -8.8718   14.5520 O   0  0  0  0  0  0  0  0  0  0  0  0
    5.8775   -8.5647   13.4295 C   0  0  1  0  0  0  0  0  0  0  0  0
    5.2903   -8.0597   14.6676 O   0  0  0  0  0  0  0  0  0  0  0  0
   -6.4447   -4.0207   16.0587 C   0  0  0  0  0  0  0  0  0  0  0  0
   -7.4389   -4.3636   15.1083 O   0  0  0  0  0  0  0  0  0  0  0  0
   -0.4584   -7.6764   19.0637 C   0  0  1  0  0  0  0  0  0  0  0  0
   -0.0048   -7.0827   20.2793 O   0  0  0  0  0  0  0  0  0  0  0  0
    7.1876   -7.7889   13.1380 C   0  0  0  0  0  0  0  0  0  0  0  0
    8.3188   -8.2676   13.9530 N   0  0  0  0  0  0  0  0  0  0  0  0
  1  2  1  1  0  0  0
  1  7  1  0  0  0  0
  1 30  1  0  0  0  0
  3  4  1  1  0  0  0
  3  9  1  0  0  0  0
  3 39  1  0  0  0  0
  5 10  1  0  0  0  0
  5 26  1  0  0  0  0
  5 32  1  1  0  0  0
  6 12  1  0  0  0  0
  6 36  1  0  0  0  0
  6 19  1  1  0  0  0
  7  8  1  1  0  0  0
  7 14  1  0  0  0  0
  9 16  1  0  0  0  0
 10 11  1  1  0  0  0
 10 18  1  0  0  0  0
 12 13  1  1  0  0  0
 12 20  1  0  0  0  0
 14 15  1  6  0  0  0
 14 22  1  0  0  0  0
 16 17  1  6  0  0  0
 16 24  1  0  0  0  0
 18 19  1  6  0  0  0
 18 25  1  0  0  0  0
 20 21  1  6  0  0  0
 20 27  1  0  0  0  0
 22 23  1  1  0  0  0
 22 29  1  0  0  0  0
 24  2  1  1  0  0  0
 24 31  1  0  0  0  0
 25 26  1  0  0  0  0
 25 33  1  1  0  0  0
 27 28  1  1  0  0  0
 27 35  1  0  0  0  0
 29 30  1  0  0  0  0
 29 37  1  6  0  0  0
 31 32  1  6  0  0  0
 31 39  1  0  0  0  0
 33 34  1  0  0  0  0
 35 36  1  0  0  0  0
 35 41  1  1  0  0  0
 37 38  1  0  0  0  0
 39 40  1  1  0  0  0
 41 42  1  0  0  0  0
M  END
>  <CHROM.1>
-106.32400871,-39.21111058,-174.71704758,13.23443460,-62.56400788,-44.55359096
59.11645851,18.08896358,-170.60418319,-61.71555603,-57.80240454,-41.93962041
-172.62738953,69.73796546,46.34099664,-65.68611434,-50.49237606,-167.72679742
-43.34813371,-171.13486579,-174.11891088,-100.88152339,0.20808261,-7.43723808
15.78050576,-3.06294033,-0.38237452,1.94791799

>  <Name>
1fyp_lig

>  <RI>
0

>  <Rbt.Current_Directory>
/home/afrankz/demos/rdock_decoys_rna/rnas/1fyp

>  <Rbt.Executable>
rbdock ($Id: //depot/dev/client3/rdock/2013.1/src/exe/rbdock.cxx#4 $)

>  <Rbt.Library>
libRbt.so (2013.1, Build901 2013/11/27)

>  <Rbt.Parameter_File>
/export/apps/rDock/src/rDock_2013.1_src/data/scripts/dock_solv.prm

>  <Rbt.Receptor>
prm/blind_docking_20.prm

>  <SCORE>
29.0301

>  <SCORE.INTER>
-4.4867

>  <SCORE.INTER.CONST>
1

>  <SCORE.INTER.POLAR>
-2.92063

>  <SCORE.INTER.ROT>
14

>  <SCORE.INTER.SOLV>
15.4023

>  <SCORE.INTER.VDW>
-11.3231

>  <SCORE.INTER.norm>
-0.106826

>  <SCORE.INTRA>
3.18217

>  <SCORE.INTRA.DIHEDRAL>
-27.6015

>  <SCORE.INTRA.DIHEDRAL.0>
48.7173

>  <SCORE.INTRA.POLAR>
-0.23184

>  <SCORE.INTRA.POLAR.0>
-1.54691

>  <SCORE.INTRA.REPUL>
0.0660763

>  <SCORE.INTRA.REPUL.0>
0

>  <SCORE.INTRA.SOLV>
3.52959

>  <SCORE.INTRA.SOLV.lig_0>
-64.052

>  <SCORE.INTRA.VDW>
15.676

>  <SCORE.INTRA.VDW.0>
-7.0667

>  <SCORE.INTRA.norm>
0.0757659

>  <SCORE.RESTR>
30.3347

>  <SCORE.RESTR.CAVITY>
30.3347

>  <SCORE.RESTR.norm>
0.722254

>  <SCORE.SYSTEM>
0

>  <SCORE.SYSTEM.CONST>
0

>  <SCORE.SYSTEM.DIHEDRAL>
0

>  <SCORE.SYSTEM.SOLV>
0

>  <SCORE.SYSTEM.norm>
0

>  <SCORE.heavy>
42

>  <SCORE.norm>
0.691194

>  <RMSD>
18.403

$$$$
1fyp_lig
 OpenBabel11021811393D
libRbt.so/2013.1/901 2013/11/27
 42 45  0  0  0  0  0  0  0  0999 V2000
   -4.0718   -4.5529   15.4314 C   0  0  2  0  0  0  0  0  0  0  0  0
   -4.0543   -5.9622   15.0625 O   0  0  0  0  0  0  0  0  0  0  0  0
   -1.8898   -7.1119   18.5602 C   0  0  2  0  0  0  0  0  0  0  0  0
   -1.1614   -7.8225   19.6274 N   0  0  0  0  0  0  0  0  0  0  0  0
    0.1737   -7.2326   14.9123 C   0  0  1  0  0  0  0  0  0  0  0  0
    3.5927   -9.7326   14.2563 C   0  0  1  0  0  0  0  0  0  0  0  0
   -5.5023   -4.0907   15.8581 C   0  0  2  0  0  0  0  0  0  0  0  0
   -6.0785   -4.9978   16.8734 N   0  0  0  0  0  0  0  0  0  0  0  0
   -3.2509   -7.7966   18.3246 C   0  0  0  0  0  0  0  0  0  0  0  0
   -0.0642   -8.7239   14.6613 C   0  0  2  0  0  0  0  0  0  0  0  0
   -0.1768   -9.4061   15.9109 O   0  0  0  0  0  0  0  0  0  0  0  0
    4.6665  -10.0001   15.3547 C   0  0  2  0  0  0  0  0  0  0  0  0
    4.6775   -8.9570   16.4092 N   0  0  0  0  0  0  0  0  0  0  0  0
   -6.4477   -3.9935   14.6199 C   0  0  1  0  0  0  0  0  0  0  0  0
   -7.6968   -3.4209   14.9989 O   0  0  0  0  0  0  0  0  0  0  0  0
   -4.0866   -7.0815   17.2280 C   0  0  2  0  0  0  0  0  0  0  0  0
   -5.3263   -7.8598   17.0258 N   0  0  0  0  0  0  0  0  0  0  0  0
    1.2150   -9.1255   13.9219 C   0  0  2  0  0  0  0  0  0  0  0  0
    2.3088   -9.3946   14.8427 O   0  0  0  0  0  0  0  0  0  0  0  0
    6.0796  -10.1786   14.7187 C   0  0  1  0  0  0  0  0  0  0  0  0
    6.1286  -11.4486   14.0719 O   0  0  0  0  0  0  0  0  0  0  0  0
   -5.8318   -3.1293   13.4911 C   0  0  2  0  0  0  0  0  0  0  0  0
   -6.6968   -3.1569   12.3599 O   0  0  0  0  0  0  0  0  0  0  0  0
   -3.2975   -6.8989   15.8818 C   0  0  2  0  0  0  0  0  0  0  0  0
    1.5099   -7.8727   13.0852 C   0  0  2  0  0  0  0  0  0  0  0  0
    1.0273   -6.7573   13.8591 O   0  0  0  0  0  0  0  0  0  0  0  0
    6.4494   -9.0838   13.6724 C   0  0  2  0  0  0  0  0  0  0  0  0
    6.7271   -7.8669   14.3672 O   0  0  0  0  0  0  0  0  0  0  0  0
   -4.4198   -3.6601   13.1136 C   0  0  2  0  0  0  0  0  0  0  0  0
   -3.5962   -3.7259   14.3166 O   0  0  0  0  0  0  0  0  0  0  0  0
   -1.8425   -6.3447   16.0960 C   0  0  2  0  0  0  0  0  0  0  0  0
   -1.1018   -6.5323   14.8621 O   0  0  0  0  0  0  0  0  0  0  0  0
    0.8273   -7.8944   11.7059 C   0  0  0  0  0  0  0  0  0  0  0  0
    1.4489   -8.8367   10.8496 O   0  0  0  0  0  0  0  0  0  0  0  0
    5.2835   -8.8709   12.6577 C   0  0  1  0  0  0  0  0  0  0  0  0
    4.0377   -8.6391   13.3836 O   0  0  0  0  0  0  0  0  0  0  0  0
   -3.6492   -2.7880   12.0974 C   0  0  0  0  0  0  0  0  0  0  0  0
   -2.4684   -3.4351   11.6545 O   0  0  0  0  0  0  0  0  0  0  0  0
   -1.0767   -7.0730   17.2439 C   0  0  1  0  0  0  0  0  0  0  0  0
    0.1568   -6.3944   17.4757 O   0  0  0  0  0  0  0  0  0  0  0  0
    5.5372   -7.6816   11.6962 C   0  0  0  0  0  0  0  0  0  0  0  0
    6.7264   -7.8858   10.8494 N   0  0  0  0  0  0  0  0  0  0  0  0
  1  2  1  6  0  0  0
  1  7  1  0  0  0  0
  1 30  1  0  0  0  0
  3  4  1  1  0  0  0
  3  9  1  0  0  0  0
  3 39  1  0  0  0  0
  5 10  1  0  0  0  0
  5 26  1  0  0  0  0
  5 32  1  6  0  0  0
  6 12  1  0  0  0  0
  6 36  1  0  0  0  0
  6 19  1  1  0  0  0
  7  8  1  1  0  0  0
  7 14  1  0  0  0  0
  9 16  1  0  0  0  0
 10 11  1  1  0  0  0
 10 18  1  0  0  0  0
 12 13  1  1  0  0  0
 12 20  1  0  0  0  0
 14 15  1  1  0  0  0
 14 22  1  0  0  0  0
 16 17  1  6  0  0  0
 16 24  1  0  0  0  0
 18 19  1  1  0  0  0
 18 25  1  0  0  0  0
 20 21  1  6  0  0  0
 20 27  1  0  0  0  0
 22 23  1  6  0  0  0
 22 29  1  0  0  0  0
 24  2  1  6  0  0  0
 24 31  1  0  0  0  0
 25 26  1  0  0  0  0
 25 33  1  6  0  0  0
 27 28  1  1  0  0  0
 27 35  1  0  0  0  0
 29 30  1  0  0  0  0
 29 37  1  6  0  0  0
 31 32  1  6  0  0  0
 31 39  1  0  0  0  0
 33 34  1  0  0  0  0
 35 36  1  0  0  0  0
 35 41  1  6  0  0  0
 37 38  1  0  0  0  0
 39 40  1  1  0  0  0
 41 42  1  0  0  0  0
M  END
>  <CHROM.1>
-114.27308297,72.26382541,177.47848442,-53.06213082,82.73688492,-169.71637274
58.34037262,-53.80222357,-177.55139140,-179.77960395,-169.92728222,-56.10283686
-71.77981862,73.29642333,-171.18740359,-126.57551652,92.01446433,-55.72681069
62.35749734,-55.17441990,78.55300735,-169.82105193,-0.34410639,-6.98105192
14.68468709,-3.06529617,-0.43099992,2.04406136

>  <Name>
1fyp_lig

>  <RI>
0

>  <Rbt.Current_Directory>
/home/afrankz/demos/rdock_decoys_rna/rnas/1fyp

>  <Rbt.Executable>
rbdock ($Id: //depot/dev/client3/rdock/2013.1/src/exe/rbdock.cxx#4 $)

>  <Rbt.Library>
libRbt.so (2013.1, Build901 2013/11/27)

>  <Rbt.Parameter_File>
/export/apps/rDock/src/rDock_2013.1_src/data/scripts/dock_solv.prm

>  <Rbt.Receptor>
prm/blind_docking_20.prm

>  <SCORE>
58.2523

>  <SCORE.INTER>
22.1483

>  <SCORE.INTER.CONST>
1

>  <SCORE.INTER.POLAR>
-2.04439

>  <SCORE.INTER.ROT>
14

>  <SCORE.INTER.SOLV>
11.8071

>  <SCORE.INTER.VDW>
4.71117

>  <SCORE.INTER.norm>
0.527341

>  <SCORE.INTRA>
-3.0513

>  <SCORE.INTRA.DIHEDRAL>
-22.8305

>  <SCORE.INTRA.DIHEDRAL.0>
48.7173

>  <SCORE.INTRA.POLAR>
0.679431

>  <SCORE.INTRA.POLAR.0>
-1.54691

>  <SCORE.INTRA.REPUL>
0

>  <SCORE.INTRA.REPUL.0>
0

>  <SCORE.INTRA.SOLV>
-0.98745

>  <SCORE.INTRA.SOLV.lig_0>
-64.052

>  <SCORE.INTRA.VDW>
6.54762

>  <SCORE.INTRA.VDW.0>
-7.0667

>  <SCORE.INTRA.norm>
-0.07265

>  <SCORE.RESTR>
39.1553

>  <SCORE.RESTR.CAVITY>
39.1553

>  <SCORE.RESTR.norm>
0.93227

>  <SCORE.SYSTEM>
0

>  <SCORE.SYSTEM.CONST>
0

>  <SCORE.SYSTEM.DIHEDRAL>
0

>  <SCORE.SYSTEM.SOLV>
0

>  <SCORE.SYSTEM.norm>
0

>  <SCORE.heavy>
42

>  <SCORE.norm>
1.38696

>  <RMSD>
18.867

$$$$
