ligand
 OpenBabel02271912143D
libRbt.so/2013.1/901 2013/11/27
  8  8  0  0  0  0  0  0  0  0999 V2000
   11.2081   13.1152    0.3989 C   0  0  0  0  0  0  0  0  0  0  0  0
   10.5407   12.3544   -0.4684 N   0  0  0  0  0  0  0  0  0  0  0  0
   10.1697   11.1205   -0.1166 C   0  0  0  0  0  0  0  0  0  0  0  0
   10.4558   10.6495    1.1197 N   0  0  0  0  0  0  0  0  0  0  0  0
   11.1343   11.4239    1.9829 C   0  0  0  0  0  0  0  0  0  0  0  0
   11.5094   12.6624    1.6273 N   0  0  0  0  0  0  0  0  0  0  0  0
    9.4338   10.3036   -1.1044 N   0  0  0  0  0  0  0  0  0  0  0  0
   11.5659   14.3597    0.0068 O   0  0  0  0  0  0  0  0  0  0  0  0
  1  2  1  0  0  0  0
  1  6  1  0  0  0  0
  1  8  2  0  0  0  0
  2  3  1  0  0  0  0
  3  4  2  0  0  0  0
  3  7  1  0  0  0  0
  4  5  1  0  0  0  0
  5  6  2  0  0  0  0
M  END
>  <CHROM.1>
10.76250686,12.04840745,0.40499169,0.45621632,-1.04708698,-0.80812789

>  <Name>
ligand

>  <RI>
0

>  <Rbt.Current_Directory>
/home/itssahil/PROJECTS/Mol_Feturizer/Test_systems_manuscript/rnas/3la5

>  <Rbt.Executable>
rbdock ($Id: //depot/dev/client3/rdock/2013.1/src/exe/rbdock.cxx#4 $)

>  <Rbt.Library>
libRbt.so (2013.1, Build901 2013/11/27)

>  <Rbt.Parameter_File>
/export/apps/rDock/src/rDock_2013.1_src/data/scripts/dock_solv.prm

>  <Rbt.Receptor>
prm/blind_docking_60.prm

>  <SCORE>
-5.30588

>  <SCORE.INTER>
-5.30588

>  <SCORE.INTER.CONST>
1

>  <SCORE.INTER.POLAR>
0

>  <SCORE.INTER.ROT>
0

>  <SCORE.INTER.SOLV>
12.2431

>  <SCORE.INTER.VDW>
-11.2183

>  <SCORE.INTER.norm>
-0.663234

>  <SCORE.INTRA>
0

>  <SCORE.INTRA.DIHEDRAL>
0

>  <SCORE.INTRA.DIHEDRAL.0>
0

>  <SCORE.INTRA.POLAR>
0

>  <SCORE.INTRA.POLAR.0>
0

>  <SCORE.INTRA.REPUL>
0

>  <SCORE.INTRA.REPUL.0>
0

>  <SCORE.INTRA.SOLV>
0

>  <SCORE.INTRA.SOLV.lig_0>
-29.58

>  <SCORE.INTRA.VDW>
0

>  <SCORE.INTRA.VDW.0>
0

>  <SCORE.INTRA.norm>
0

>  <SCORE.RESTR>
0

>  <SCORE.RESTR.CAVITY>
0

>  <SCORE.RESTR.norm>
0

>  <SCORE.SYSTEM>
0

>  <SCORE.SYSTEM.CONST>
0

>  <SCORE.SYSTEM.DIHEDRAL>
0

>  <SCORE.SYSTEM.SOLV>
0

>  <SCORE.SYSTEM.norm>
0

>  <SCORE.heavy>
8

>  <SCORE.norm>
-0.663234

>  <RMSD>
2.257

$$$$
ligand
 OpenBabel02271912143D
libRbt.so/2013.1/901 2013/11/27
  8  8  0  0  0  0  0  0  0  0999 V2000
   11.2235   13.1690    0.3453 C   0  0  0  0  0  0  0  0  0  0  0  0
   10.5414   12.3944   -0.4980 N   0  0  0  0  0  0  0  0  0  0  0  0
   10.1871   11.1620   -0.1243 C   0  0  0  0  0  0  0  0  0  0  0  0
   10.5049   10.7065    1.1100 N   0  0  0  0  0  0  0  0  0  0  0  0
   11.1980   11.4948    1.9488 C   0  0  0  0  0  0  0  0  0  0  0  0
   11.5563   12.7317    1.5711 N   0  0  0  0  0  0  0  0  0  0  0  0
    9.4341   10.3294   -1.0858 N   0  0  0  0  0  0  0  0  0  0  0  0
   11.5636   14.4114   -0.0685 O   0  0  0  0  0  0  0  0  0  0  0  0
  1  2  1  0  0  0  0
  1  6  1  0  0  0  0
  1  8  2  0  0  0  0
  2  3  1  0  0  0  0
  3  4  2  0  0  0  0
  3  7  1  0  0  0  0
  4  5  1  0  0  0  0
  5  6  2  0  0  0  0
M  END
>  <CHROM.1>
10.78547652,12.09944852,0.37327110,0.49831601,-1.03561967,-0.78271940

>  <Name>
ligand

>  <RI>
0

>  <Rbt.Current_Directory>
/home/itssahil/PROJECTS/Mol_Feturizer/Test_systems_manuscript/rnas/3la5

>  <Rbt.Executable>
rbdock ($Id: //depot/dev/client3/rdock/2013.1/src/exe/rbdock.cxx#4 $)

>  <Rbt.Library>
libRbt.so (2013.1, Build901 2013/11/27)

>  <Rbt.Parameter_File>
/export/apps/rDock/src/rDock_2013.1_src/data/scripts/dock_solv.prm

>  <Rbt.Receptor>
prm/blind_docking_60.prm

>  <SCORE>
-5.38686

>  <SCORE.INTER>
-5.38686

>  <SCORE.INTER.CONST>
1

>  <SCORE.INTER.POLAR>
0

>  <SCORE.INTER.ROT>
0

>  <SCORE.INTER.SOLV>
12.265

>  <SCORE.INTER.VDW>
-11.2796

>  <SCORE.INTER.norm>
-0.673357

>  <SCORE.INTRA>
0

>  <SCORE.INTRA.DIHEDRAL>
0

>  <SCORE.INTRA.DIHEDRAL.0>
0

>  <SCORE.INTRA.POLAR>
0

>  <SCORE.INTRA.POLAR.0>
0

>  <SCORE.INTRA.REPUL>
0

>  <SCORE.INTRA.REPUL.0>
0

>  <SCORE.INTRA.SOLV>
0

>  <SCORE.INTRA.SOLV.lig_0>
-29.58

>  <SCORE.INTRA.VDW>
0

>  <SCORE.INTRA.VDW.0>
0

>  <SCORE.INTRA.norm>
0

>  <SCORE.RESTR>
0

>  <SCORE.RESTR.CAVITY>
0

>  <SCORE.RESTR.norm>
0

>  <SCORE.SYSTEM>
0

>  <SCORE.SYSTEM.CONST>
0

>  <SCORE.SYSTEM.DIHEDRAL>
0

>  <SCORE.SYSTEM.SOLV>
0

>  <SCORE.SYSTEM.norm>
0

>  <SCORE.heavy>
8

>  <SCORE.norm>
-0.673357

>  <RMSD>
2.257

$$$$
ligand
 OpenBabel02271912143D
libRbt.so/2013.1/901 2013/11/27
  8  8  0  0  0  0  0  0  0  0999 V2000
   11.1800   13.1409    0.3863 C   0  0  0  0  0  0  0  0  0  0  0  0
   10.5544   12.3625   -0.4965 N   0  0  0  0  0  0  0  0  0  0  0  0
   10.2087   11.1189   -0.1532 C   0  0  0  0  0  0  0  0  0  0  0  0
   10.4778   10.6554    1.0896 N   0  0  0  0  0  0  0  0  0  0  0  0
   11.1142   11.4477    1.9686 C   0  0  0  0  0  0  0  0  0  0  0  0
   11.4641   12.6959    1.6217 N   0  0  0  0  0  0  0  0  0  0  0  0
    9.5191   10.2826   -1.1581 N   0  0  0  0  0  0  0  0  0  0  0  0
   11.5132   14.3947    0.0025 O   0  0  0  0  0  0  0  0  0  0  0  0
  1  2  1  0  0  0  0
  1  6  1  0  0  0  0
  1  8  2  0  0  0  0
  2  3  1  0  0  0  0
  3  4  2  0  0  0  0
  3  7  1  0  0  0  0
  4  5  1  0  0  0  0
  5  6  2  0  0  0  0
M  END
>  <CHROM.1>
10.76349242,12.06235547,0.38206229,0.45931458,-1.08321692,-0.80540209

>  <Name>
ligand

>  <RI>
0

>  <Rbt.Current_Directory>
/home/itssahil/PROJECTS/Mol_Feturizer/Test_systems_manuscript/rnas/3la5

>  <Rbt.Executable>
rbdock ($Id: //depot/dev/client3/rdock/2013.1/src/exe/rbdock.cxx#4 $)

>  <Rbt.Library>
libRbt.so (2013.1, Build901 2013/11/27)

>  <Rbt.Parameter_File>
/export/apps/rDock/src/rDock_2013.1_src/data/scripts/dock_solv.prm

>  <Rbt.Receptor>
prm/blind_docking_40.prm

>  <SCORE>
-5.24942

>  <SCORE.INTER>
-5.24942

>  <SCORE.INTER.CONST>
1

>  <SCORE.INTER.POLAR>
0

>  <SCORE.INTER.ROT>
0

>  <SCORE.INTER.SOLV>
11.8932

>  <SCORE.INTER.VDW>
-11.064

>  <SCORE.INTER.norm>
-0.656178

>  <SCORE.INTRA>
0

>  <SCORE.INTRA.DIHEDRAL>
0

>  <SCORE.INTRA.DIHEDRAL.0>
0

>  <SCORE.INTRA.POLAR>
0

>  <SCORE.INTRA.POLAR.0>
0

>  <SCORE.INTRA.REPUL>
0

>  <SCORE.INTRA.REPUL.0>
0

>  <SCORE.INTRA.SOLV>
0

>  <SCORE.INTRA.SOLV.lig_0>
-29.58

>  <SCORE.INTRA.VDW>
0

>  <SCORE.INTRA.VDW.0>
0

>  <SCORE.INTRA.norm>
0

>  <SCORE.RESTR>
0

>  <SCORE.RESTR.CAVITY>
0

>  <SCORE.RESTR.norm>
0

>  <SCORE.SYSTEM>
0

>  <SCORE.SYSTEM.CONST>
0

>  <SCORE.SYSTEM.DIHEDRAL>
0

>  <SCORE.SYSTEM.SOLV>
0

>  <SCORE.SYSTEM.norm>
0

>  <SCORE.heavy>
8

>  <SCORE.norm>
-0.656178

>  <RMSD>
2.265

$$$$
ligand
 OpenBabel02271912143D
libRbt.so/2013.1/901 2013/11/27
  8  8  0  0  0  0  0  0  0  0999 V2000
   10.5626   11.0924    1.6825 C   0  0  0  0  0  0  0  0  0  0  0  0
   10.7563   12.4100    1.6273 N   0  0  0  0  0  0  0  0  0  0  0  0
   10.5024   13.0686    0.4935 C   0  0  0  0  0  0  0  0  0  0  0  0
   10.0359   12.4051   -0.5901 N   0  0  0  0  0  0  0  0  0  0  0  0
    9.8504   11.0760   -0.5237 C   0  0  0  0  0  0  0  0  0  0  0  0
   10.1089   10.4146    0.6150 N   0  0  0  0  0  0  0  0  0  0  0  0
   10.7313   14.5286    0.4670 N   0  0  0  0  0  0  0  0  0  0  0  0
   10.8297   10.4603    2.8485 O   0  0  0  0  0  0  0  0  0  0  0  0
  1  2  1  0  0  0  0
  1  6  1  0  0  0  0
  1  8  2  0  0  0  0
  2  3  1  0  0  0  0
  3  4  2  0  0  0  0
  3  7  1  0  0  0  0
  4  5  1  0  0  0  0
  5  6  2  0  0  0  0
M  END
>  <CHROM.1>
10.43616951,11.91515163,0.88011011,-1.48832903,-1.22460323,-0.46906157

>  <Name>
ligand

>  <RI>
0

>  <Rbt.Current_Directory>
/home/itssahil/PROJECTS/Mol_Feturizer/Test_systems_manuscript/rnas/3la5

>  <Rbt.Executable>
rbdock ($Id: //depot/dev/client3/rdock/2013.1/src/exe/rbdock.cxx#4 $)

>  <Rbt.Library>
libRbt.so (2013.1, Build901 2013/11/27)

>  <Rbt.Parameter_File>
/export/apps/rDock/src/rDock_2013.1_src/data/scripts/dock_solv.prm

>  <Rbt.Receptor>
prm/blind_docking_60.prm

>  <SCORE>
-6.16637

>  <SCORE.INTER>
-6.16637

>  <SCORE.INTER.CONST>
1

>  <SCORE.INTER.POLAR>
0

>  <SCORE.INTER.ROT>
0

>  <SCORE.INTER.SOLV>
8.19512

>  <SCORE.INTER.VDW>
-10.4426

>  <SCORE.INTER.norm>
-0.770796

>  <SCORE.INTRA>
0

>  <SCORE.INTRA.DIHEDRAL>
0

>  <SCORE.INTRA.DIHEDRAL.0>
0

>  <SCORE.INTRA.POLAR>
0

>  <SCORE.INTRA.POLAR.0>
0

>  <SCORE.INTRA.REPUL>
0

>  <SCORE.INTRA.REPUL.0>
0

>  <SCORE.INTRA.SOLV>
0

>  <SCORE.INTRA.SOLV.lig_0>
-29.58

>  <SCORE.INTRA.VDW>
0

>  <SCORE.INTRA.VDW.0>
0

>  <SCORE.INTRA.norm>
0

>  <SCORE.RESTR>
0

>  <SCORE.RESTR.CAVITY>
0

>  <SCORE.RESTR.norm>
0

>  <SCORE.SYSTEM>
0

>  <SCORE.SYSTEM.CONST>
0

>  <SCORE.SYSTEM.DIHEDRAL>
0

>  <SCORE.SYSTEM.SOLV>
0

>  <SCORE.SYSTEM.norm>
0

>  <SCORE.heavy>
8

>  <SCORE.norm>
-0.770796

>  <RMSD>
2.862

$$$$
ligand
 OpenBabel02271912143D
libRbt.so/2013.1/901 2013/11/27
  8  8  0  0  0  0  0  0  0  0999 V2000
   10.5726   11.0478    1.6776 C   0  0  0  0  0  0  0  0  0  0  0  0
   10.7550   12.3668    1.6207 N   0  0  0  0  0  0  0  0  0  0  0  0
   10.4923   13.0223    0.4871 C   0  0  0  0  0  0  0  0  0  0  0  0
   10.0283   12.3539   -0.5946 N   0  0  0  0  0  0  0  0  0  0  0  0
    9.8542   11.0234   -0.5265 C   0  0  0  0  0  0  0  0  0  0  0  0
   10.1216   10.3652    0.6120 N   0  0  0  0  0  0  0  0  0  0  0  0
   10.7087   14.4842    0.4587 N   0  0  0  0  0  0  0  0  0  0  0  0
   10.8484   10.4189    2.8433 O   0  0  0  0  0  0  0  0  0  0  0  0
  1  2  1  0  0  0  0
  1  6  1  0  0  0  0
  1  8  2  0  0  0  0
  2  3  1  0  0  0  0
  3  4  2  0  0  0  0
  3  7  1  0  0  0  0
  4  5  1  0  0  0  0
  5  6  2  0  0  0  0
M  END
>  <CHROM.1>
10.43694008,11.86866240,0.87488663,-1.46214289,-1.22574736,-0.44529861

>  <Name>
ligand

>  <RI>
0

>  <Rbt.Current_Directory>
/home/itssahil/PROJECTS/Mol_Feturizer/Test_systems_manuscript/rnas/3la5

>  <Rbt.Executable>
rbdock ($Id: //depot/dev/client3/rdock/2013.1/src/exe/rbdock.cxx#4 $)

>  <Rbt.Library>
libRbt.so (2013.1, Build901 2013/11/27)

>  <Rbt.Parameter_File>
/export/apps/rDock/src/rDock_2013.1_src/data/scripts/dock_solv.prm

>  <Rbt.Receptor>
prm/blind_docking_100.prm

>  <SCORE>
-6.14222

>  <SCORE.INTER>
-6.14222

>  <SCORE.INTER.CONST>
1

>  <SCORE.INTER.POLAR>
0

>  <SCORE.INTER.ROT>
0

>  <SCORE.INTER.SOLV>
8.27272

>  <SCORE.INTER.VDW>
-10.4524

>  <SCORE.INTER.norm>
-0.767777

>  <SCORE.INTRA>
0

>  <SCORE.INTRA.DIHEDRAL>
0

>  <SCORE.INTRA.DIHEDRAL.0>
0

>  <SCORE.INTRA.POLAR>
0

>  <SCORE.INTRA.POLAR.0>
0

>  <SCORE.INTRA.REPUL>
0

>  <SCORE.INTRA.REPUL.0>
0

>  <SCORE.INTRA.SOLV>
0

>  <SCORE.INTRA.SOLV.lig_0>
-29.58

>  <SCORE.INTRA.VDW>
0

>  <SCORE.INTRA.VDW.0>
0

>  <SCORE.INTRA.norm>
0

>  <SCORE.RESTR>
0

>  <SCORE.RESTR.CAVITY>
0

>  <SCORE.RESTR.norm>
0

>  <SCORE.SYSTEM>
0

>  <SCORE.SYSTEM.CONST>
0

>  <SCORE.SYSTEM.DIHEDRAL>
0

>  <SCORE.SYSTEM.SOLV>
0

>  <SCORE.SYSTEM.norm>
0

>  <SCORE.heavy>
8

>  <SCORE.norm>
-0.767777

>  <RMSD>
2.863

$$$$
ligand
 OpenBabel02271912143D
libRbt.so/2013.1/901 2013/11/27
  8  8  0  0  0  0  0  0  0  0999 V2000
   10.5637   11.0944    1.6885 C   0  0  0  0  0  0  0  0  0  0  0  0
   10.7643   12.4102    1.6190 N   0  0  0  0  0  0  0  0  0  0  0  0
   10.5129   13.0580    0.4783 C   0  0  0  0  0  0  0  0  0  0  0  0
   10.0419   12.3854   -0.5976 N   0  0  0  0  0  0  0  0  0  0  0  0
    9.8495   11.0580   -0.5169 C   0  0  0  0  0  0  0  0  0  0  0  0
   10.1055   10.4076    0.6287 N   0  0  0  0  0  0  0  0  0  0  0  0
   10.7495   14.5164    0.4360 N   0  0  0  0  0  0  0  0  0  0  0  0
   10.8285   10.4734    2.8609 O   0  0  0  0  0  0  0  0  0  0  0  0
  1  2  1  0  0  0  0
  1  6  1  0  0  0  0
  1  8  2  0  0  0  0
  2  3  1  0  0  0  0
  3  4  2  0  0  0  0
  3  7  1  0  0  0  0
  4  5  1  0  0  0  0
  5  6  2  0  0  0  0
M  END
>  <CHROM.1>
10.44093071,11.90908080,0.87739522,-1.50095821,-1.22141530,-0.49167230

>  <Name>
ligand

>  <RI>
0

>  <Rbt.Current_Directory>
/home/itssahil/PROJECTS/Mol_Feturizer/Test_systems_manuscript/rnas/3la5

>  <Rbt.Executable>
rbdock ($Id: //depot/dev/client3/rdock/2013.1/src/exe/rbdock.cxx#4 $)

>  <Rbt.Library>
libRbt.so (2013.1, Build901 2013/11/27)

>  <Rbt.Parameter_File>
/export/apps/rDock/src/rDock_2013.1_src/data/scripts/dock_solv.prm

>  <Rbt.Receptor>
prm/blind_docking_40.prm

>  <SCORE>
-6.15656

>  <SCORE.INTER>
-6.15656

>  <SCORE.INTER.CONST>
1

>  <SCORE.INTER.POLAR>
0

>  <SCORE.INTER.ROT>
0

>  <SCORE.INTER.SOLV>
8.28687

>  <SCORE.INTER.VDW>
-10.4667

>  <SCORE.INTER.norm>
-0.769569

>  <SCORE.INTRA>
0

>  <SCORE.INTRA.DIHEDRAL>
0

>  <SCORE.INTRA.DIHEDRAL.0>
0

>  <SCORE.INTRA.POLAR>
0

>  <SCORE.INTRA.POLAR.0>
0

>  <SCORE.INTRA.REPUL>
0

>  <SCORE.INTRA.REPUL.0>
0

>  <SCORE.INTRA.SOLV>
0

>  <SCORE.INTRA.SOLV.lig_0>
-29.58

>  <SCORE.INTRA.VDW>
0

>  <SCORE.INTRA.VDW.0>
0

>  <SCORE.INTRA.norm>
0

>  <SCORE.RESTR>
0

>  <SCORE.RESTR.CAVITY>
0

>  <SCORE.RESTR.norm>
0

>  <SCORE.SYSTEM>
0

>  <SCORE.SYSTEM.CONST>
0

>  <SCORE.SYSTEM.DIHEDRAL>
0

>  <SCORE.SYSTEM.SOLV>
0

>  <SCORE.SYSTEM.norm>
0

>  <SCORE.heavy>
8

>  <SCORE.norm>
-0.769569

>  <RMSD>
2.863

$$$$
ligand
 OpenBabel02271912143D
libRbt.so/2013.1/901 2013/11/27
  8  8  0  0  0  0  0  0  0  0999 V2000
   10.5560   11.1018    1.6973 C   0  0  0  0  0  0  0  0  0  0  0  0
   10.7504   12.4190    1.6376 N   0  0  0  0  0  0  0  0  0  0  0  0
   10.5030   13.0730    0.4996 C   0  0  0  0  0  0  0  0  0  0  0  0
   10.0423   12.4050   -0.5838 N   0  0  0  0  0  0  0  0  0  0  0  0
    9.8560   11.0763   -0.5128 C   0  0  0  0  0  0  0  0  0  0  0  0
   10.1080   10.4196    0.6301 N   0  0  0  0  0  0  0  0  0  0  0  0
   10.7325   14.5328    0.4682 N   0  0  0  0  0  0  0  0  0  0  0  0
   10.8164   10.4745    2.8673 O   0  0  0  0  0  0  0  0  0  0  0  0
  1  2  1  0  0  0  0
  1  6  1  0  0  0  0
  1  8  2  0  0  0  0
  2  3  1  0  0  0  0
  3  4  2  0  0  0  0
  3  7  1  0  0  0  0
  4  5  1  0  0  0  0
  5  6  2  0  0  0  0
M  END
>  <CHROM.1>
10.43426940,11.92116748,0.89069848,-1.49664463,-1.22940567,-0.48112327

>  <Name>
ligand

>  <RI>
0

>  <Rbt.Current_Directory>
/home/itssahil/PROJECTS/Mol_Feturizer/Test_systems_manuscript/rnas/3la5

>  <Rbt.Executable>
rbdock ($Id: //depot/dev/client3/rdock/2013.1/src/exe/rbdock.cxx#4 $)

>  <Rbt.Library>
libRbt.so (2013.1, Build901 2013/11/27)

>  <Rbt.Parameter_File>
/export/apps/rDock/src/rDock_2013.1_src/data/scripts/dock_solv.prm

>  <Rbt.Receptor>
prm/blind_docking_80.prm

>  <SCORE>
-6.16614

>  <SCORE.INTER>
-6.16614

>  <SCORE.INTER.CONST>
1

>  <SCORE.INTER.POLAR>
0

>  <SCORE.INTER.ROT>
0

>  <SCORE.INTER.SOLV>
8.18143

>  <SCORE.INTER.VDW>
-10.4379

>  <SCORE.INTER.norm>
-0.770767

>  <SCORE.INTRA>
0

>  <SCORE.INTRA.DIHEDRAL>
0

>  <SCORE.INTRA.DIHEDRAL.0>
0

>  <SCORE.INTRA.POLAR>
0

>  <SCORE.INTRA.POLAR.0>
0

>  <SCORE.INTRA.REPUL>
0

>  <SCORE.INTRA.REPUL.0>
0

>  <SCORE.INTRA.SOLV>
0

>  <SCORE.INTRA.SOLV.lig_0>
-29.58

>  <SCORE.INTRA.VDW>
0

>  <SCORE.INTRA.VDW.0>
0

>  <SCORE.INTRA.norm>
0

>  <SCORE.RESTR>
0

>  <SCORE.RESTR.CAVITY>
0

>  <SCORE.RESTR.norm>
0

>  <SCORE.SYSTEM>
0

>  <SCORE.SYSTEM.CONST>
0

>  <SCORE.SYSTEM.DIHEDRAL>
0

>  <SCORE.SYSTEM.SOLV>
0

>  <SCORE.SYSTEM.norm>
0

>  <SCORE.heavy>
8

>  <SCORE.norm>
-0.770767

>  <RMSD>
2.863

$$$$
ligand
 OpenBabel02271912143D
libRbt.so/2013.1/901 2013/11/27
  8  8  0  0  0  0  0  0  0  0999 V2000
   10.5938   11.0812    1.5740 C   0  0  0  0  0  0  0  0  0  0  0  0
   10.7957   12.3984    1.5534 N   0  0  0  0  0  0  0  0  0  0  0  0
   10.5780   13.0832    0.4275 C   0  0  0  0  0  0  0  0  0  0  0  0
   10.1395   12.4462   -0.6833 N   0  0  0  0  0  0  0  0  0  0  0  0
    9.9453   11.1171   -0.6516 C   0  0  0  0  0  0  0  0  0  0  0  0
   10.1676   10.4295    0.4793 N   0  0  0  0  0  0  0  0  0  0  0  0
   10.8151   14.5421    0.4398 N   0  0  0  0  0  0  0  0  0  0  0  0
   10.8239   10.4222    2.7330 O   0  0  0  0  0  0  0  0  0  0  0  0
  1  2  1  0  0  0  0
  1  6  1  0  0  0  0
  1  8  2  0  0  0  0
  2  3  1  0  0  0  0
  3  4  2  0  0  0  0
  3  7  1  0  0  0  0
  4  5  1  0  0  0  0
  5  6  2  0  0  0  0
M  END
>  <CHROM.1>
10.49476619,11.92192965,0.78663625,-1.54378181,-1.24751431,-0.49951323

>  <Name>
ligand

>  <RI>
0

>  <Rbt.Current_Directory>
/home/itssahil/PROJECTS/Mol_Feturizer/Test_systems_manuscript/rnas/3la5

>  <Rbt.Executable>
rbdock ($Id: //depot/dev/client3/rdock/2013.1/src/exe/rbdock.cxx#4 $)

>  <Rbt.Library>
libRbt.so (2013.1, Build901 2013/11/27)

>  <Rbt.Parameter_File>
/export/apps/rDock/src/rDock_2013.1_src/data/scripts/dock_solv.prm

>  <Rbt.Receptor>
prm/blind_docking_40.prm

>  <SCORE>
-6.10837

>  <SCORE.INTER>
-6.10837

>  <SCORE.INTER.CONST>
1

>  <SCORE.INTER.POLAR>
0

>  <SCORE.INTER.ROT>
0

>  <SCORE.INTER.SOLV>
8.36827

>  <SCORE.INTER.VDW>
-10.4617

>  <SCORE.INTER.norm>
-0.763546

>  <SCORE.INTRA>
0

>  <SCORE.INTRA.DIHEDRAL>
0

>  <SCORE.INTRA.DIHEDRAL.0>
0

>  <SCORE.INTRA.POLAR>
0

>  <SCORE.INTRA.POLAR.0>
0

>  <SCORE.INTRA.REPUL>
0

>  <SCORE.INTRA.REPUL.0>
0

>  <SCORE.INTRA.SOLV>
0

>  <SCORE.INTRA.SOLV.lig_0>
-29.58

>  <SCORE.INTRA.VDW>
0

>  <SCORE.INTRA.VDW.0>
0

>  <SCORE.INTRA.norm>
0

>  <SCORE.RESTR>
0

>  <SCORE.RESTR.CAVITY>
0

>  <SCORE.RESTR.norm>
0

>  <SCORE.SYSTEM>
0

>  <SCORE.SYSTEM.CONST>
0

>  <SCORE.SYSTEM.DIHEDRAL>
0

>  <SCORE.SYSTEM.SOLV>
0

>  <SCORE.SYSTEM.norm>
0

>  <SCORE.heavy>
8

>  <SCORE.norm>
-0.763546

>  <RMSD>
2.865

$$$$
ligand
 OpenBabel02271912143D
libRbt.so/2013.1/901 2013/11/27
  8  8  0  0  0  0  0  0  0  0999 V2000
   10.5776   11.0203    1.7732 C   0  0  0  0  0  0  0  0  0  0  0  0
   10.7976   12.3324    1.6928 N   0  0  0  0  0  0  0  0  0  0  0  0
   10.5353   12.9782    0.5535 C   0  0  0  0  0  0  0  0  0  0  0  0
   10.0338   12.3076   -0.5099 N   0  0  0  0  0  0  0  0  0  0  0  0
    9.8220   10.9839   -0.4183 C   0  0  0  0  0  0  0  0  0  0  0  0
   10.0891   10.3354    0.7259 N   0  0  0  0  0  0  0  0  0  0  0  0
   10.7940   14.4324    0.4989 N   0  0  0  0  0  0  0  0  0  0  0  0
   10.8544   10.4012    2.9439 O   0  0  0  0  0  0  0  0  0  0  0  0
  1  2  1  0  0  0  0
  1  6  1  0  0  0  0
  1  8  2  0  0  0  0
  2  3  1  0  0  0  0
  3  4  2  0  0  0  0
  3  7  1  0  0  0  0
  4  5  1  0  0  0  0
  5  6  2  0  0  0  0
M  END
>  <CHROM.1>
10.45265529,11.83262892,0.96009909,-1.51492197,-1.19753952,-0.51004924

>  <Name>
ligand

>  <RI>
0

>  <Rbt.Current_Directory>
/home/itssahil/PROJECTS/Mol_Feturizer/Test_systems_manuscript/rnas/3la5

>  <Rbt.Executable>
rbdock ($Id: //depot/dev/client3/rdock/2013.1/src/exe/rbdock.cxx#4 $)

>  <Rbt.Library>
libRbt.so (2013.1, Build901 2013/11/27)

>  <Rbt.Parameter_File>
/export/apps/rDock/src/rDock_2013.1_src/data/scripts/dock_solv.prm

>  <Rbt.Receptor>
prm/blind_docking_100.prm

>  <SCORE>
-6.0866

>  <SCORE.INTER>
-6.0866

>  <SCORE.INTER.CONST>
1

>  <SCORE.INTER.POLAR>
0

>  <SCORE.INTER.ROT>
0

>  <SCORE.INTER.SOLV>
8.56512

>  <SCORE.INTER.VDW>
-10.5128

>  <SCORE.INTER.norm>
-0.760825

>  <SCORE.INTRA>
0

>  <SCORE.INTRA.DIHEDRAL>
0

>  <SCORE.INTRA.DIHEDRAL.0>
0

>  <SCORE.INTRA.POLAR>
0

>  <SCORE.INTRA.POLAR.0>
0

>  <SCORE.INTRA.REPUL>
0

>  <SCORE.INTRA.REPUL.0>
0

>  <SCORE.INTRA.SOLV>
0

>  <SCORE.INTRA.SOLV.lig_0>
-29.58

>  <SCORE.INTRA.VDW>
0

>  <SCORE.INTRA.VDW.0>
0

>  <SCORE.INTRA.norm>
0

>  <SCORE.RESTR>
0

>  <SCORE.RESTR.CAVITY>
0

>  <SCORE.RESTR.norm>
0

>  <SCORE.SYSTEM>
0

>  <SCORE.SYSTEM.CONST>
0

>  <SCORE.SYSTEM.DIHEDRAL>
0

>  <SCORE.SYSTEM.SOLV>
0

>  <SCORE.SYSTEM.norm>
0

>  <SCORE.heavy>
8

>  <SCORE.norm>
-0.760825

>  <RMSD>
2.866

$$$$
ligand
 OpenBabel02271912143D
libRbt.so/2013.1/901 2013/11/27
  8  8  0  0  0  0  0  0  0  0999 V2000
   10.5257   11.1324    1.6943 C   0  0  0  0  0  0  0  0  0  0  0  0
   10.7539   12.4440    1.6306 N   0  0  0  0  0  0  0  0  0  0  0  0
   10.5284   13.0997    0.4890 C   0  0  0  0  0  0  0  0  0  0  0  0
   10.0558   12.4395   -0.5940 N   0  0  0  0  0  0  0  0  0  0  0  0
    9.8354   11.1162   -0.5189 C   0  0  0  0  0  0  0  0  0  0  0  0
   10.0653   10.4578    0.6276 N   0  0  0  0  0  0  0  0  0  0  0  0
   10.7952   14.5530    0.4532 N   0  0  0  0  0  0  0  0  0  0  0  0
   10.7647   10.5032    2.8679 O   0  0  0  0  0  0  0  0  0  0  0  0
  1  2  1  0  0  0  0
  1  6  1  0  0  0  0
  1  8  2  0  0  0  0
  2  3  1  0  0  0  0
  3  4  2  0  0  0  0
  3  7  1  0  0  0  0
  4  5  1  0  0  0  0
  5  6  2  0  0  0  0
M  END
>  <CHROM.1>
10.42858303,11.95149165,0.88408717,-1.56877177,-1.22079540,-0.55278224

>  <Name>
ligand

>  <RI>
0

>  <Rbt.Current_Directory>
/home/itssahil/PROJECTS/Mol_Feturizer/Test_systems_manuscript/rnas/3la5

>  <Rbt.Executable>
rbdock ($Id: //depot/dev/client3/rdock/2013.1/src/exe/rbdock.cxx#4 $)

>  <Rbt.Library>
libRbt.so (2013.1, Build901 2013/11/27)

>  <Rbt.Parameter_File>
/export/apps/rDock/src/rDock_2013.1_src/data/scripts/dock_solv.prm

>  <Rbt.Receptor>
prm/blind_docking_100.prm

>  <SCORE>
-6.17165

>  <SCORE.INTER>
-6.17165

>  <SCORE.INTER.CONST>
1

>  <SCORE.INTER.POLAR>
0

>  <SCORE.INTER.ROT>
0

>  <SCORE.INTER.SOLV>
8.2429

>  <SCORE.INTER.VDW>
-10.4621

>  <SCORE.INTER.norm>
-0.771456

>  <SCORE.INTRA>
0

>  <SCORE.INTRA.DIHEDRAL>
0

>  <SCORE.INTRA.DIHEDRAL.0>
0

>  <SCORE.INTRA.POLAR>
0

>  <SCORE.INTRA.POLAR.0>
0

>  <SCORE.INTRA.REPUL>
0

>  <SCORE.INTRA.REPUL.0>
0

>  <SCORE.INTRA.SOLV>
0

>  <SCORE.INTRA.SOLV.lig_0>
-29.58

>  <SCORE.INTRA.VDW>
0

>  <SCORE.INTRA.VDW.0>
0

>  <SCORE.INTRA.norm>
0

>  <SCORE.RESTR>
0

>  <SCORE.RESTR.CAVITY>
0

>  <SCORE.RESTR.norm>
0

>  <SCORE.SYSTEM>
0

>  <SCORE.SYSTEM.CONST>
0

>  <SCORE.SYSTEM.DIHEDRAL>
0

>  <SCORE.SYSTEM.SOLV>
0

>  <SCORE.SYSTEM.norm>
0

>  <SCORE.heavy>
8

>  <SCORE.norm>
-0.771456

>  <RMSD>
2.866

$$$$
ligand
 OpenBabel02271912143D
libRbt.so/2013.1/901 2013/11/27
  8  8  0  0  0  0  0  0  0  0999 V2000
   10.5518   11.0639    1.6958 C   0  0  0  0  0  0  0  0  0  0  0  0
   10.7510   12.3800    1.6289 N   0  0  0  0  0  0  0  0  0  0  0  0
   10.5072   13.0285    0.4870 C   0  0  0  0  0  0  0  0  0  0  0  0
   10.0453   12.3561   -0.5930 N   0  0  0  0  0  0  0  0  0  0  0  0
    9.8541   11.0285   -0.5149 C   0  0  0  0  0  0  0  0  0  0  0  0
   10.1025   10.3773    0.6320 N   0  0  0  0  0  0  0  0  0  0  0  0
   10.7421   14.4872    0.4478 N   0  0  0  0  0  0  0  0  0  0  0  0
   10.8087   10.4422    2.8697 O   0  0  0  0  0  0  0  0  0  0  0  0
  1  2  1  0  0  0  0
  1  6  1  0  0  0  0
  1  8  2  0  0  0  0
  2  3  1  0  0  0  0
  3  4  2  0  0  0  0
  3  7  1  0  0  0  0
  4  5  1  0  0  0  0
  5  6  2  0  0  0  0
M  END
>  <CHROM.1>
10.43392089,11.87910595,0.88451808,-1.50773603,-1.22865960,-0.49717301

>  <Name>
ligand

>  <RI>
0

>  <Rbt.Current_Directory>
/home/itssahil/PROJECTS/Mol_Feturizer/Test_systems_manuscript/rnas/3la5

>  <Rbt.Executable>
rbdock ($Id: //depot/dev/client3/rdock/2013.1/src/exe/rbdock.cxx#4 $)

>  <Rbt.Library>
libRbt.so (2013.1, Build901 2013/11/27)

>  <Rbt.Parameter_File>
/export/apps/rDock/src/rDock_2013.1_src/data/scripts/dock_solv.prm

>  <Rbt.Receptor>
prm/pocket_docking_3.prm

>  <SCORE>
-6.20978

>  <SCORE.INTER>
-6.20978

>  <SCORE.INTER.CONST>
1

>  <SCORE.INTER.POLAR>
0

>  <SCORE.INTER.ROT>
0

>  <SCORE.INTER.SOLV>
8.32606

>  <SCORE.INTER.VDW>
-10.5152

>  <SCORE.INTER.norm>
-0.776223

>  <SCORE.INTRA>
0

>  <SCORE.INTRA.DIHEDRAL>
0

>  <SCORE.INTRA.DIHEDRAL.0>
0

>  <SCORE.INTRA.POLAR>
0

>  <SCORE.INTRA.POLAR.0>
0

>  <SCORE.INTRA.REPUL>
0

>  <SCORE.INTRA.REPUL.0>
0

>  <SCORE.INTRA.SOLV>
0

>  <SCORE.INTRA.SOLV.lig_0>
-29.58

>  <SCORE.INTRA.VDW>
0

>  <SCORE.INTRA.VDW.0>
0

>  <SCORE.INTRA.norm>
0

>  <SCORE.RESTR>
0

>  <SCORE.RESTR.CAVITY>
0

>  <SCORE.RESTR.norm>
0

>  <SCORE.SYSTEM>
0

>  <SCORE.SYSTEM.CONST>
0

>  <SCORE.SYSTEM.DIHEDRAL>
0

>  <SCORE.SYSTEM.SOLV>
0

>  <SCORE.SYSTEM.norm>
0

>  <SCORE.heavy>
8

>  <SCORE.norm>
-0.776223

>  <RMSD>
2.866

$$$$
ligand
 OpenBabel02271912143D
libRbt.so/2013.1/901 2013/11/27
  8  8  0  0  0  0  0  0  0  0999 V2000
   10.5428   11.1248    1.6958 C   0  0  0  0  0  0  0  0  0  0  0  0
   10.7830   12.4337    1.6222 N   0  0  0  0  0  0  0  0  0  0  0  0
   10.5584   13.0838    0.4773 C   0  0  0  0  0  0  0  0  0  0  0  0
   10.0746   12.4209   -0.5990 N   0  0  0  0  0  0  0  0  0  0  0  0
    9.8422   11.1002   -0.5141 C   0  0  0  0  0  0  0  0  0  0  0  0
   10.0713   10.4474    0.6358 N   0  0  0  0  0  0  0  0  0  0  0  0
   10.8386   14.5343    0.4305 N   0  0  0  0  0  0  0  0  0  0  0  0
   10.7814   10.5013    2.8725 O   0  0  0  0  0  0  0  0  0  0  0  0
  1  2  1  0  0  0  0
  1  6  1  0  0  0  0
  1  8  2  0  0  0  0
  2  3  1  0  0  0  0
  3  4  2  0  0  0  0
  3  7  1  0  0  0  0
  4  5  1  0  0  0  0
  5  6  2  0  0  0  0
M  END
>  <CHROM.1>
10.44964717,11.93929814,0.88056643,-1.58449546,-1.21192285,-0.57424369

>  <Name>
ligand

>  <RI>
0

>  <Rbt.Current_Directory>
/home/itssahil/PROJECTS/Mol_Feturizer/Test_systems_manuscript/rnas/3la5

>  <Rbt.Executable>
rbdock ($Id: //depot/dev/client3/rdock/2013.1/src/exe/rbdock.cxx#4 $)

>  <Rbt.Library>
libRbt.so (2013.1, Build901 2013/11/27)

>  <Rbt.Parameter_File>
/export/apps/rDock/src/rDock_2013.1_src/data/scripts/dock_solv.prm

>  <Rbt.Receptor>
prm/pocket_docking_3.prm

>  <SCORE>
-6.14738

>  <SCORE.INTER>
-6.14738

>  <SCORE.INTER.CONST>
1

>  <SCORE.INTER.POLAR>
0

>  <SCORE.INTER.ROT>
0

>  <SCORE.INTER.SOLV>
8.40248

>  <SCORE.INTER.VDW>
-10.4991

>  <SCORE.INTER.norm>
-0.768422

>  <SCORE.INTRA>
0

>  <SCORE.INTRA.DIHEDRAL>
0

>  <SCORE.INTRA.DIHEDRAL.0>
0

>  <SCORE.INTRA.POLAR>
0

>  <SCORE.INTRA.POLAR.0>
0

>  <SCORE.INTRA.REPUL>
0

>  <SCORE.INTRA.REPUL.0>
0

>  <SCORE.INTRA.SOLV>
0

>  <SCORE.INTRA.SOLV.lig_0>
-29.58

>  <SCORE.INTRA.VDW>
0

>  <SCORE.INTRA.VDW.0>
0

>  <SCORE.INTRA.norm>
0

>  <SCORE.RESTR>
0

>  <SCORE.RESTR.CAVITY>
0

>  <SCORE.RESTR.norm>
0

>  <SCORE.SYSTEM>
0

>  <SCORE.SYSTEM.CONST>
0

>  <SCORE.SYSTEM.DIHEDRAL>
0

>  <SCORE.SYSTEM.SOLV>
0

>  <SCORE.SYSTEM.norm>
0

>  <SCORE.heavy>
8

>  <SCORE.norm>
-0.768422

>  <RMSD>
2.866

$$$$
ligand
 OpenBabel02271912143D
libRbt.so/2013.1/901 2013/11/27
  8  8  0  0  0  0  0  0  0  0999 V2000
   10.5279   11.1172    1.6968 C   0  0  0  0  0  0  0  0  0  0  0  0
   10.7614   12.4275    1.6265 N   0  0  0  0  0  0  0  0  0  0  0  0
   10.5434   13.0775    0.4802 C   0  0  0  0  0  0  0  0  0  0  0  0
   10.0729   12.4129   -0.6010 N   0  0  0  0  0  0  0  0  0  0  0  0
    9.8471   11.0908   -0.5193 C   0  0  0  0  0  0  0  0  0  0  0  0
   10.0696   10.4382    0.6320 N   0  0  0  0  0  0  0  0  0  0  0  0
   10.8159   14.5296    0.4373 N   0  0  0  0  0  0  0  0  0  0  0  0
   10.7595   10.4939    2.8750 O   0  0  0  0  0  0  0  0  0  0  0  0
  1  2  1  0  0  0  0
  1  6  1  0  0  0  0
  1  8  2  0  0  0  0
  2  3  1  0  0  0  0
  3  4  2  0  0  0  0
  3  7  1  0  0  0  0
  4  5  1  0  0  0  0
  5  6  2  0  0  0  0
M  END
>  <CHROM.1>
10.43745359,11.93195497,0.88147083,-1.58488213,-1.22241626,-0.57367743

>  <Name>
ligand

>  <RI>
0

>  <Rbt.Current_Directory>
/home/itssahil/PROJECTS/Mol_Feturizer/Test_systems_manuscript/rnas/3la5

>  <Rbt.Executable>
rbdock ($Id: //depot/dev/client3/rdock/2013.1/src/exe/rbdock.cxx#4 $)

>  <Rbt.Library>
libRbt.so (2013.1, Build901 2013/11/27)

>  <Rbt.Parameter_File>
/export/apps/rDock/src/rDock_2013.1_src/data/scripts/dock_solv.prm

>  <Rbt.Receptor>
prm/blind_docking_40.prm

>  <SCORE>
-6.15266

>  <SCORE.INTER>
-6.15266

>  <SCORE.INTER.CONST>
1

>  <SCORE.INTER.POLAR>
0

>  <SCORE.INTER.ROT>
0

>  <SCORE.INTER.SOLV>
8.35422

>  <SCORE.INTER.VDW>
-10.4865

>  <SCORE.INTER.norm>
-0.769082

>  <SCORE.INTRA>
0

>  <SCORE.INTRA.DIHEDRAL>
0

>  <SCORE.INTRA.DIHEDRAL.0>
0

>  <SCORE.INTRA.POLAR>
0

>  <SCORE.INTRA.POLAR.0>
0

>  <SCORE.INTRA.REPUL>
0

>  <SCORE.INTRA.REPUL.0>
0

>  <SCORE.INTRA.SOLV>
0

>  <SCORE.INTRA.SOLV.lig_0>
-29.58

>  <SCORE.INTRA.VDW>
0

>  <SCORE.INTRA.VDW.0>
0

>  <SCORE.INTRA.norm>
0

>  <SCORE.RESTR>
0

>  <SCORE.RESTR.CAVITY>
0

>  <SCORE.RESTR.norm>
0

>  <SCORE.SYSTEM>
0

>  <SCORE.SYSTEM.CONST>
0

>  <SCORE.SYSTEM.DIHEDRAL>
0

>  <SCORE.SYSTEM.SOLV>
0

>  <SCORE.SYSTEM.norm>
0

>  <SCORE.heavy>
8

>  <SCORE.norm>
-0.769082

>  <RMSD>
2.867

$$$$
ligand
 OpenBabel02271912143D
libRbt.so/2013.1/901 2013/11/27
  8  8  0  0  0  0  0  0  0  0999 V2000
   10.7569   11.2368    1.4102 C   0  0  0  0  0  0  0  0  0  0  0  0
   10.2628   10.3229    0.5754 N   0  0  0  0  0  0  0  0  0  0  0  0
    9.9838   10.6617   -0.6861 C   0  0  0  0  0  0  0  0  0  0  0  0
   10.2160   11.9226   -1.1201 N   0  0  0  0  0  0  0  0  0  0  0  0
   10.7088   12.8364   -0.2673 C   0  0  0  0  0  0  0  0  0  0  0  0
   10.9857   12.4958    1.0009 N   0  0  0  0  0  0  0  0  0  0  0  0
    9.4341    9.6238   -1.5834 N   0  0  0  0  0  0  0  0  0  0  0  0
   11.0280   10.8557    2.6797 O   0  0  0  0  0  0  0  0  0  0  0  0
  1  2  1  0  0  0  0
  1  6  1  0  0  0  0
  1  8  2  0  0  0  0
  2  3  1  0  0  0  0
  3  4  2  0  0  0  0
  3  7  1  0  0  0  0
  4  5  1  0  0  0  0
  5  6  2  0  0  0  0
M  END
>  <CHROM.1>
10.42980573,11.21879614,0.30144243,0.46500677,1.18762576,2.38355631

>  <Name>
ligand

>  <RI>
0

>  <Rbt.Current_Directory>
/home/itssahil/PROJECTS/Mol_Feturizer/Test_systems_manuscript/rnas/3la5

>  <Rbt.Executable>
rbdock ($Id: //depot/dev/client3/rdock/2013.1/src/exe/rbdock.cxx#4 $)

>  <Rbt.Library>
libRbt.so (2013.1, Build901 2013/11/27)

>  <Rbt.Parameter_File>
/export/apps/rDock/src/rDock_2013.1_src/data/scripts/dock_solv.prm

>  <Rbt.Receptor>
prm/blind_docking_60.prm

>  <SCORE>
-5.86683

>  <SCORE.INTER>
-5.86683

>  <SCORE.INTER.CONST>
1

>  <SCORE.INTER.POLAR>
0

>  <SCORE.INTER.ROT>
0

>  <SCORE.INTER.SOLV>
12.3768

>  <SCORE.INTER.VDW>
-11.6368

>  <SCORE.INTER.norm>
-0.733354

>  <SCORE.INTRA>
0

>  <SCORE.INTRA.DIHEDRAL>
0

>  <SCORE.INTRA.DIHEDRAL.0>
0

>  <SCORE.INTRA.POLAR>
0

>  <SCORE.INTRA.POLAR.0>
0

>  <SCORE.INTRA.REPUL>
0

>  <SCORE.INTRA.REPUL.0>
0

>  <SCORE.INTRA.SOLV>
0

>  <SCORE.INTRA.SOLV.lig_0>
-29.58

>  <SCORE.INTRA.VDW>
0

>  <SCORE.INTRA.VDW.0>
0

>  <SCORE.INTRA.norm>
0

>  <SCORE.RESTR>
0

>  <SCORE.RESTR.CAVITY>
0

>  <SCORE.RESTR.norm>
0

>  <SCORE.SYSTEM>
0

>  <SCORE.SYSTEM.CONST>
0

>  <SCORE.SYSTEM.DIHEDRAL>
0

>  <SCORE.SYSTEM.SOLV>
0

>  <SCORE.SYSTEM.norm>
0

>  <SCORE.heavy>
8

>  <SCORE.norm>
-0.733354

>  <RMSD>
2.867

$$$$
ligand
 OpenBabel02271912143D
libRbt.so/2013.1/901 2013/11/27
  8  8  0  0  0  0  0  0  0  0999 V2000
   10.5194   11.0955    1.5262 C   0  0  0  0  0  0  0  0  0  0  0  0
   10.7472   12.4087    1.5279 N   0  0  0  0  0  0  0  0  0  0  0  0
   10.5529   13.1149    0.4110 C   0  0  0  0  0  0  0  0  0  0  0  0
   10.1118   12.5039   -0.7133 N   0  0  0  0  0  0  0  0  0  0  0  0
    9.8915   11.1784   -0.7040 C   0  0  0  0  0  0  0  0  0  0  0  0
   10.0902   10.4693    0.4179 N   0  0  0  0  0  0  0  0  0  0  0  0
   10.8183   14.5684    0.4480 N   0  0  0  0  0  0  0  0  0  0  0  0
   10.7264   10.4143    2.6767 O   0  0  0  0  0  0  0  0  0  0  0  0
  1  2  1  0  0  0  0
  1  6  1  0  0  0  0
  1  8  2  0  0  0  0
  2  3  1  0  0  0  0
  3  4  2  0  0  0  0
  3  7  1  0  0  0  0
  4  5  1  0  0  0  0
  5  6  2  0  0  0  0
M  END
>  <CHROM.1>
10.44379002,11.95007296,0.75121159,-1.61066291,-1.24523815,-0.54739823

>  <Name>
ligand

>  <RI>
0

>  <Rbt.Current_Directory>
/home/itssahil/PROJECTS/Mol_Feturizer/Test_systems_manuscript/rnas/3la5

>  <Rbt.Executable>
rbdock ($Id: //depot/dev/client3/rdock/2013.1/src/exe/rbdock.cxx#4 $)

>  <Rbt.Library>
libRbt.so (2013.1, Build901 2013/11/27)

>  <Rbt.Parameter_File>
/export/apps/rDock/src/rDock_2013.1_src/data/scripts/dock_solv.prm

>  <Rbt.Receptor>
prm/blind_docking_60.prm

>  <SCORE>
-6.08063

>  <SCORE.INTER>
-6.08063

>  <SCORE.INTER.CONST>
1

>  <SCORE.INTER.POLAR>
0

>  <SCORE.INTER.ROT>
0

>  <SCORE.INTER.SOLV>
8.26112

>  <SCORE.INTER.VDW>
-10.4075

>  <SCORE.INTER.norm>
-0.760079

>  <SCORE.INTRA>
0

>  <SCORE.INTRA.DIHEDRAL>
0

>  <SCORE.INTRA.DIHEDRAL.0>
0

>  <SCORE.INTRA.POLAR>
0

>  <SCORE.INTRA.POLAR.0>
0

>  <SCORE.INTRA.REPUL>
0

>  <SCORE.INTRA.REPUL.0>
0

>  <SCORE.INTRA.SOLV>
0

>  <SCORE.INTRA.SOLV.lig_0>
-29.58

>  <SCORE.INTRA.VDW>
0

>  <SCORE.INTRA.VDW.0>
0

>  <SCORE.INTRA.norm>
0

>  <SCORE.RESTR>
0

>  <SCORE.RESTR.CAVITY>
0

>  <SCORE.RESTR.norm>
0

>  <SCORE.SYSTEM>
0

>  <SCORE.SYSTEM.CONST>
0

>  <SCORE.SYSTEM.DIHEDRAL>
0

>  <SCORE.SYSTEM.SOLV>
0

>  <SCORE.SYSTEM.norm>
0

>  <SCORE.heavy>
8

>  <SCORE.norm>
-0.760079

>  <RMSD>
2.872

$$$$
ligand
 OpenBabel02271912143D
libRbt.so/2013.1/901 2013/11/27
  8  8  0  0  0  0  0  0  0  0999 V2000
   10.6601   11.1492    1.4966 C   0  0  0  0  0  0  0  0  0  0  0  0
   11.0502   12.4193    1.3913 N   0  0  0  0  0  0  0  0  0  0  0  0
   10.8683   13.0737    0.2412 C   0  0  0  0  0  0  0  0  0  0  0  0
   10.2769   12.4560   -0.8079 N   0  0  0  0  0  0  0  0  0  0  0  0
    9.8934   11.1736   -0.6913 C   0  0  0  0  0  0  0  0  0  0  0  0
   10.0796   10.5160    0.4637 N   0  0  0  0  0  0  0  0  0  0  0  0
   11.3157   14.4800    0.1589 N   0  0  0  0  0  0  0  0  0  0  0  0
   10.8600   10.5200    2.6775 O   0  0  0  0  0  0  0  0  0  0  0  0
  1  2  1  0  0  0  0
  1  6  1  0  0  0  0
  1  8  2  0  0  0  0
  2  3  1  0  0  0  0
  3  4  2  0  0  0  0
  3  7  1  0  0  0  0
  4  5  1  0  0  0  0
  5  6  2  0  0  0  0
M  END
>  <CHROM.1>
10.63824394,11.95635198,0.66910000,-1.77169874,-1.11468629,-0.76363708

>  <Name>
ligand

>  <RI>
0

>  <Rbt.Current_Directory>
/home/itssahil/PROJECTS/Mol_Feturizer/Test_systems_manuscript/rnas/3la5

>  <Rbt.Executable>
rbdock ($Id: //depot/dev/client3/rdock/2013.1/src/exe/rbdock.cxx#4 $)

>  <Rbt.Library>
libRbt.so (2013.1, Build901 2013/11/27)

>  <Rbt.Parameter_File>
/export/apps/rDock/src/rDock_2013.1_src/data/scripts/dock_solv.prm

>  <Rbt.Receptor>
prm/pocket_docking_7.prm

>  <SCORE>
-6.08491

>  <SCORE.INTER>
-6.08491

>  <SCORE.INTER.CONST>
1

>  <SCORE.INTER.POLAR>
0

>  <SCORE.INTER.ROT>
0

>  <SCORE.INTER.SOLV>
9.94584

>  <SCORE.INTER.VDW>
-10.9719

>  <SCORE.INTER.norm>
-0.760613

>  <SCORE.INTRA>
0

>  <SCORE.INTRA.DIHEDRAL>
0

>  <SCORE.INTRA.DIHEDRAL.0>
0

>  <SCORE.INTRA.POLAR>
0

>  <SCORE.INTRA.POLAR.0>
0

>  <SCORE.INTRA.REPUL>
0

>  <SCORE.INTRA.REPUL.0>
0

>  <SCORE.INTRA.SOLV>
0

>  <SCORE.INTRA.SOLV.lig_0>
-29.58

>  <SCORE.INTRA.VDW>
0

>  <SCORE.INTRA.VDW.0>
0

>  <SCORE.INTRA.norm>
0

>  <SCORE.RESTR>
0

>  <SCORE.RESTR.CAVITY>
0

>  <SCORE.RESTR.norm>
0

>  <SCORE.SYSTEM>
0

>  <SCORE.SYSTEM.CONST>
0

>  <SCORE.SYSTEM.DIHEDRAL>
0

>  <SCORE.SYSTEM.SOLV>
0

>  <SCORE.SYSTEM.norm>
0

>  <SCORE.heavy>
8

>  <SCORE.norm>
-0.760613

>  <RMSD>
2.883

$$$$
ligand
 OpenBabel02271912143D
libRbt.so/2013.1/901 2013/11/27
  8  8  0  0  0  0  0  0  0  0999 V2000
   10.7221   11.2694    1.3814 C   0  0  0  0  0  0  0  0  0  0  0  0
   10.2126   10.3753    0.5344 N   0  0  0  0  0  0  0  0  0  0  0  0
    9.9743   10.7254   -0.7323 C   0  0  0  0  0  0  0  0  0  0  0  0
   10.2628   11.9771   -1.1590 N   0  0  0  0  0  0  0  0  0  0  0  0
   10.7705   12.8712   -0.2940 C   0  0  0  0  0  0  0  0  0  0  0  0
   11.0066   12.5193    0.9794 N   0  0  0  0  0  0  0  0  0  0  0  0
    9.4061    9.7095   -1.6432 N   0  0  0  0  0  0  0  0  0  0  0  0
   10.9508   10.8774    2.6559 O   0  0  0  0  0  0  0  0  0  0  0  0
  1  2  1  0  0  0  0
  1  6  1  0  0  0  0
  1  8  2  0  0  0  0
  2  3  1  0  0  0  0
  3  4  2  0  0  0  0
  3  7  1  0  0  0  0
  4  5  1  0  0  0  0
  5  6  2  0  0  0  0
M  END
>  <CHROM.1>
10.41894031,11.26458523,0.26571384,0.57483671,1.17578863,2.28321239

>  <Name>
ligand

>  <RI>
0

>  <Rbt.Current_Directory>
/home/itssahil/PROJECTS/Mol_Feturizer/Test_systems_manuscript/rnas/3la5

>  <Rbt.Executable>
rbdock ($Id: //depot/dev/client3/rdock/2013.1/src/exe/rbdock.cxx#4 $)

>  <Rbt.Library>
libRbt.so (2013.1, Build901 2013/11/27)

>  <Rbt.Parameter_File>
/export/apps/rDock/src/rDock_2013.1_src/data/scripts/dock_solv.prm

>  <Rbt.Receptor>
prm/pocket_docking_8.prm

>  <SCORE>
-5.86496

>  <SCORE.INTER>
-5.86496

>  <SCORE.INTER.CONST>
1

>  <SCORE.INTER.POLAR>
0

>  <SCORE.INTER.ROT>
0

>  <SCORE.INTER.SOLV>
12.5053

>  <SCORE.INTER.VDW>
-11.6784

>  <SCORE.INTER.norm>
-0.73312

>  <SCORE.INTRA>
0

>  <SCORE.INTRA.DIHEDRAL>
0

>  <SCORE.INTRA.DIHEDRAL.0>
0

>  <SCORE.INTRA.POLAR>
0

>  <SCORE.INTRA.POLAR.0>
0

>  <SCORE.INTRA.REPUL>
0

>  <SCORE.INTRA.REPUL.0>
0

>  <SCORE.INTRA.SOLV>
0

>  <SCORE.INTRA.SOLV.lig_0>
-29.58

>  <SCORE.INTRA.VDW>
0

>  <SCORE.INTRA.VDW.0>
0

>  <SCORE.INTRA.norm>
0

>  <SCORE.RESTR>
0

>  <SCORE.RESTR.CAVITY>
0

>  <SCORE.RESTR.norm>
0

>  <SCORE.SYSTEM>
0

>  <SCORE.SYSTEM.CONST>
0

>  <SCORE.SYSTEM.DIHEDRAL>
0

>  <SCORE.SYSTEM.SOLV>
0

>  <SCORE.SYSTEM.norm>
0

>  <SCORE.heavy>
8

>  <SCORE.norm>
-0.73312

>  <RMSD>
2.883

$$$$
ligand
 OpenBabel02271912143D
libRbt.so/2013.1/901 2013/11/27
  8  8  0  0  0  0  0  0  0  0999 V2000
   10.7248   11.2650    1.3830 C   0  0  0  0  0  0  0  0  0  0  0  0
   10.2147   10.3725    0.5347 N   0  0  0  0  0  0  0  0  0  0  0  0
    9.9754   10.7251   -0.7311 C   0  0  0  0  0  0  0  0  0  0  0  0
   10.2635   11.9776   -1.1556 N   0  0  0  0  0  0  0  0  0  0  0  0
   10.7719   12.8701   -0.2893 C   0  0  0  0  0  0  0  0  0  0  0  0
   11.0089   12.5157    0.9832 N   0  0  0  0  0  0  0  0  0  0  0  0
    9.4066    9.7109   -1.6436 N   0  0  0  0  0  0  0  0  0  0  0  0
   10.9545   10.8705    2.6566 O   0  0  0  0  0  0  0  0  0  0  0  0
  1  2  1  0  0  0  0
  1  6  1  0  0  0  0
  1  8  2  0  0  0  0
  2  3  1  0  0  0  0
  3  4  2  0  0  0  0
  3  7  1  0  0  0  0
  4  5  1  0  0  0  0
  5  6  2  0  0  0  0
M  END
>  <CHROM.1>
10.42080861,11.26235537,0.26756982,0.57325529,1.17529778,2.28661379

>  <Name>
ligand

>  <RI>
0

>  <Rbt.Current_Directory>
/home/itssahil/PROJECTS/Mol_Feturizer/Test_systems_manuscript/rnas/3la5

>  <Rbt.Executable>
rbdock ($Id: //depot/dev/client3/rdock/2013.1/src/exe/rbdock.cxx#4 $)

>  <Rbt.Library>
libRbt.so (2013.1, Build901 2013/11/27)

>  <Rbt.Parameter_File>
/export/apps/rDock/src/rDock_2013.1_src/data/scripts/dock_solv.prm

>  <Rbt.Receptor>
prm/blind_docking_80.prm

>  <SCORE>
-5.86517

>  <SCORE.INTER>
-5.86517

>  <SCORE.INTER.CONST>
1

>  <SCORE.INTER.POLAR>
0

>  <SCORE.INTER.ROT>
0

>  <SCORE.INTER.SOLV>
12.5127

>  <SCORE.INTER.VDW>
-11.681

>  <SCORE.INTER.norm>
-0.733147

>  <SCORE.INTRA>
0

>  <SCORE.INTRA.DIHEDRAL>
0

>  <SCORE.INTRA.DIHEDRAL.0>
0

>  <SCORE.INTRA.POLAR>
0

>  <SCORE.INTRA.POLAR.0>
0

>  <SCORE.INTRA.REPUL>
0

>  <SCORE.INTRA.REPUL.0>
0

>  <SCORE.INTRA.SOLV>
0

>  <SCORE.INTRA.SOLV.lig_0>
-29.58

>  <SCORE.INTRA.VDW>
0

>  <SCORE.INTRA.VDW.0>
0

>  <SCORE.INTRA.norm>
0

>  <SCORE.RESTR>
0

>  <SCORE.RESTR.CAVITY>
0

>  <SCORE.RESTR.norm>
0

>  <SCORE.SYSTEM>
0

>  <SCORE.SYSTEM.CONST>
0

>  <SCORE.SYSTEM.DIHEDRAL>
0

>  <SCORE.SYSTEM.SOLV>
0

>  <SCORE.SYSTEM.norm>
0

>  <SCORE.heavy>
8

>  <SCORE.norm>
-0.733147

>  <RMSD>
2.885

$$$$
ligand
 OpenBabel02271912143D
libRbt.so/2013.1/901 2013/11/27
  8  8  0  0  0  0  0  0  0  0999 V2000
   10.1927   11.1737    1.6482 C   0  0  0  0  0  0  0  0  0  0  0  0
   10.4578   12.4798    1.6268 N   0  0  0  0  0  0  0  0  0  0  0  0
   10.4585   13.1353    0.4632 C   0  0  0  0  0  0  0  0  0  0  0  0
   10.1762   12.4811   -0.6876 N   0  0  0  0  0  0  0  0  0  0  0  0
    9.9164   11.1632   -0.6537 C   0  0  0  0  0  0  0  0  0  0  0  0
    9.9193   10.5048    0.5157 N   0  0  0  0  0  0  0  0  0  0  0  0
   10.7595   14.5824    0.4763 N   0  0  0  0  0  0  0  0  0  0  0  0
   10.2002   10.5444    2.8458 O   0  0  0  0  0  0  0  0  0  0  0  0
  1  2  1  0  0  0  0
  1  6  1  0  0  0  0
  1  8  2  0  0  0  0
  2  3  1  0  0  0  0
  3  4  2  0  0  0  0
  3  7  1  0  0  0  0
  4  5  1  0  0  0  0
  5  6  2  0  0  0  0
M  END
>  <CHROM.1>
10.26289284,11.99129220,0.83371869,-2.08304168,-1.33596755,-1.04913042

>  <Name>
ligand

>  <RI>
0

>  <Rbt.Current_Directory>
/home/itssahil/PROJECTS/Mol_Feturizer/Test_systems_manuscript/rnas/3la5

>  <Rbt.Executable>
rbdock ($Id: //depot/dev/client3/rdock/2013.1/src/exe/rbdock.cxx#4 $)

>  <Rbt.Library>
libRbt.so (2013.1, Build901 2013/11/27)

>  <Rbt.Parameter_File>
/export/apps/rDock/src/rDock_2013.1_src/data/scripts/dock_solv.prm

>  <Rbt.Receptor>
prm/blind_docking_80.prm

>  <SCORE>
-6.08791

>  <SCORE.INTER>
-6.08791

>  <SCORE.INTER.CONST>
1

>  <SCORE.INTER.POLAR>
0

>  <SCORE.INTER.ROT>
0

>  <SCORE.INTER.SOLV>
7.97215

>  <SCORE.INTER.VDW>
-10.316

>  <SCORE.INTER.norm>
-0.760989

>  <SCORE.INTRA>
0

>  <SCORE.INTRA.DIHEDRAL>
0

>  <SCORE.INTRA.DIHEDRAL.0>
0

>  <SCORE.INTRA.POLAR>
0

>  <SCORE.INTRA.POLAR.0>
0

>  <SCORE.INTRA.REPUL>
0

>  <SCORE.INTRA.REPUL.0>
0

>  <SCORE.INTRA.SOLV>
0

>  <SCORE.INTRA.SOLV.lig_0>
-29.58

>  <SCORE.INTRA.VDW>
0

>  <SCORE.INTRA.VDW.0>
0

>  <SCORE.INTRA.norm>
0

>  <SCORE.RESTR>
0

>  <SCORE.RESTR.CAVITY>
0

>  <SCORE.RESTR.norm>
0

>  <SCORE.SYSTEM>
0

>  <SCORE.SYSTEM.CONST>
0

>  <SCORE.SYSTEM.DIHEDRAL>
0

>  <SCORE.SYSTEM.SOLV>
0

>  <SCORE.SYSTEM.norm>
0

>  <SCORE.heavy>
8

>  <SCORE.norm>
-0.760989

>  <RMSD>
2.903

$$$$
ligand
 OpenBabel02271912143D
libRbt.so/2013.1/901 2013/11/27
  8  8  0  0  0  0  0  0  0  0999 V2000
   10.0912   11.4053    0.1348 C   0  0  0  0  0  0  0  0  0  0  0  0
   10.1836   10.1077   -0.1552 N   0  0  0  0  0  0  0  0  0  0  0  0
   10.1533    9.7114   -1.4304 C   0  0  0  0  0  0  0  0  0  0  0  0
   10.0451   10.6232   -2.4248 N   0  0  0  0  0  0  0  0  0  0  0  0
    9.9466   11.9280   -2.1193 C   0  0  0  0  0  0  0  0  0  0  0  0
    9.9738   12.3248   -0.8376 N   0  0  0  0  0  0  0  0  0  0  0  0
   10.2552    8.2646   -1.7153 N   0  0  0  0  0  0  0  0  0  0  0  0
   10.1267   11.7682    1.4377 O   0  0  0  0  0  0  0  0  0  0  0  0
  1  2  1  0  0  0  0
  1  6  1  0  0  0  0
  1  8  2  0  0  0  0
  2  3  1  0  0  0  0
  3  4  2  0  0  0  0
  3  7  1  0  0  0  0
  4  5  1  0  0  0  0
  5  6  2  0  0  0  0
M  END
>  <CHROM.1>
10.09934730,10.77135822,-0.83202665,-1.86718690,1.47980711,-2.09510422

>  <Name>
ligand

>  <RI>
0

>  <Rbt.Current_Directory>
/home/itssahil/PROJECTS/Mol_Feturizer/Test_systems_manuscript/rnas/3la5

>  <Rbt.Executable>
rbdock ($Id: //depot/dev/client3/rdock/2013.1/src/exe/rbdock.cxx#4 $)

>  <Rbt.Library>
libRbt.so (2013.1, Build901 2013/11/27)

>  <Rbt.Parameter_File>
/export/apps/rDock/src/rDock_2013.1_src/data/scripts/dock_solv.prm

>  <Rbt.Receptor>
prm/blind_docking_80.prm

>  <SCORE>
-6.17509

>  <SCORE.INTER>
-6.17509

>  <SCORE.INTER.CONST>
1

>  <SCORE.INTER.POLAR>
0

>  <SCORE.INTER.ROT>
0

>  <SCORE.INTER.SOLV>
11.7416

>  <SCORE.INTER.VDW>
-11.6306

>  <SCORE.INTER.norm>
-0.771887

>  <SCORE.INTRA>
0

>  <SCORE.INTRA.DIHEDRAL>
0

>  <SCORE.INTRA.DIHEDRAL.0>
0

>  <SCORE.INTRA.POLAR>
0

>  <SCORE.INTRA.POLAR.0>
0

>  <SCORE.INTRA.REPUL>
0

>  <SCORE.INTRA.REPUL.0>
0

>  <SCORE.INTRA.SOLV>
0

>  <SCORE.INTRA.SOLV.lig_0>
-29.58

>  <SCORE.INTRA.VDW>
0

>  <SCORE.INTRA.VDW.0>
0

>  <SCORE.INTRA.norm>
0

>  <SCORE.RESTR>
0

>  <SCORE.RESTR.CAVITY>
0

>  <SCORE.RESTR.norm>
0

>  <SCORE.SYSTEM>
0

>  <SCORE.SYSTEM.CONST>
0

>  <SCORE.SYSTEM.DIHEDRAL>
0

>  <SCORE.SYSTEM.SOLV>
0

>  <SCORE.SYSTEM.norm>
0

>  <SCORE.heavy>
8

>  <SCORE.norm>
-0.771887

>  <RMSD>
3.058

$$$$
ligand
 OpenBabel02271912143D
libRbt.so/2013.1/901 2013/11/27
  8  8  0  0  0  0  0  0  0  0999 V2000
   10.0886   11.3998    0.1365 C   0  0  0  0  0  0  0  0  0  0  0  0
   10.1835   10.1026   -0.1545 N   0  0  0  0  0  0  0  0  0  0  0  0
   10.1532    9.7071   -1.4299 C   0  0  0  0  0  0  0  0  0  0  0  0
   10.0426   10.6194   -2.4236 N   0  0  0  0  0  0  0  0  0  0  0  0
    9.9417   11.9237   -2.1172 C   0  0  0  0  0  0  0  0  0  0  0  0
    9.9689   12.3197   -0.8352 N   0  0  0  0  0  0  0  0  0  0  0  0
   10.2578    8.2608   -1.7158 N   0  0  0  0  0  0  0  0  0  0  0  0
   10.1242   11.7619    1.4396 O   0  0  0  0  0  0  0  0  0  0  0  0
  1  2  1  0  0  0  0
  1  6  1  0  0  0  0
  1  8  2  0  0  0  0
  2  3  1  0  0  0  0
  3  4  2  0  0  0  0
  3  7  1  0  0  0  0
  4  5  1  0  0  0  0
  5  6  2  0  0  0  0
M  END
>  <CHROM.1>
10.09748382,10.76655468,-0.83077703,-1.87247260,1.47778490,-2.08916810

>  <Name>
ligand

>  <RI>
0

>  <Rbt.Current_Directory>
/home/itssahil/PROJECTS/Mol_Feturizer/Test_systems_manuscript/rnas/3la5

>  <Rbt.Executable>
rbdock ($Id: //depot/dev/client3/rdock/2013.1/src/exe/rbdock.cxx#4 $)

>  <Rbt.Library>
libRbt.so (2013.1, Build901 2013/11/27)

>  <Rbt.Parameter_File>
/export/apps/rDock/src/rDock_2013.1_src/data/scripts/dock_solv.prm

>  <Rbt.Receptor>
prm/blind_docking_40.prm

>  <SCORE>
-6.17597

>  <SCORE.INTER>
-6.17597

>  <SCORE.INTER.CONST>
1

>  <SCORE.INTER.POLAR>
0

>  <SCORE.INTER.ROT>
0

>  <SCORE.INTER.SOLV>
11.7582

>  <SCORE.INTER.VDW>
-11.6367

>  <SCORE.INTER.norm>
-0.771996

>  <SCORE.INTRA>
0

>  <SCORE.INTRA.DIHEDRAL>
0

>  <SCORE.INTRA.DIHEDRAL.0>
0

>  <SCORE.INTRA.POLAR>
0

>  <SCORE.INTRA.POLAR.0>
0

>  <SCORE.INTRA.REPUL>
0

>  <SCORE.INTRA.REPUL.0>
0

>  <SCORE.INTRA.SOLV>
0

>  <SCORE.INTRA.SOLV.lig_0>
-29.58

>  <SCORE.INTRA.VDW>
0

>  <SCORE.INTRA.VDW.0>
0

>  <SCORE.INTRA.norm>
0

>  <SCORE.RESTR>
0

>  <SCORE.RESTR.CAVITY>
0

>  <SCORE.RESTR.norm>
0

>  <SCORE.SYSTEM>
0

>  <SCORE.SYSTEM.CONST>
0

>  <SCORE.SYSTEM.DIHEDRAL>
0

>  <SCORE.SYSTEM.SOLV>
0

>  <SCORE.SYSTEM.norm>
0

>  <SCORE.heavy>
8

>  <SCORE.norm>
-0.771996

>  <RMSD>
3.061

$$$$
ligand
 OpenBabel02271912143D
libRbt.so/2013.1/901 2013/11/27
  8  8  0  0  0  0  0  0  0  0999 V2000
    9.9465   11.4403    0.1152 C   0  0  0  0  0  0  0  0  0  0  0  0
   10.0602   10.1410   -0.1591 N   0  0  0  0  0  0  0  0  0  0  0  0
   10.1288    9.7371   -1.4303 C   0  0  0  0  0  0  0  0  0  0  0  0
   10.0988   10.6429   -2.4356 N   0  0  0  0  0  0  0  0  0  0  0  0
    9.9779   11.9495   -2.1464 C   0  0  0  0  0  0  0  0  0  0  0  0
    9.9057   12.3540   -0.8689 N   0  0  0  0  0  0  0  0  0  0  0  0
   10.2514    8.2886   -1.6978 N   0  0  0  0  0  0  0  0  0  0  0  0
    9.8809   11.8110    1.4147 O   0  0  0  0  0  0  0  0  0  0  0  0
  1  2  1  0  0  0  0
  1  6  1  0  0  0  0
  1  8  2  0  0  0  0
  2  3  1  0  0  0  0
  3  4  2  0  0  0  0
  3  7  1  0  0  0  0
  4  5  1  0  0  0  0
  5  6  2  0  0  0  0
M  END
>  <CHROM.1>
10.02924953,10.80062496,-0.84431677,-2.78471867,1.48647278,-1.18661175

>  <Name>
ligand

>  <RI>
0

>  <Rbt.Current_Directory>
/home/itssahil/PROJECTS/Mol_Feturizer/Test_systems_manuscript/rnas/3la5

>  <Rbt.Executable>
rbdock ($Id: //depot/dev/client3/rdock/2013.1/src/exe/rbdock.cxx#4 $)

>  <Rbt.Library>
libRbt.so (2013.1, Build901 2013/11/27)

>  <Rbt.Parameter_File>
/export/apps/rDock/src/rDock_2013.1_src/data/scripts/dock_solv.prm

>  <Rbt.Receptor>
prm/blind_docking_40.prm

>  <SCORE>
-6.1398

>  <SCORE.INTER>
-6.1398

>  <SCORE.INTER.CONST>
1

>  <SCORE.INTER.POLAR>
0

>  <SCORE.INTER.ROT>
0

>  <SCORE.INTER.SOLV>
11.7651

>  <SCORE.INTER.VDW>
-11.6149

>  <SCORE.INTER.norm>
-0.767475

>  <SCORE.INTRA>
0

>  <SCORE.INTRA.DIHEDRAL>
0

>  <SCORE.INTRA.DIHEDRAL.0>
0

>  <SCORE.INTRA.POLAR>
0

>  <SCORE.INTRA.POLAR.0>
0

>  <SCORE.INTRA.REPUL>
0

>  <SCORE.INTRA.REPUL.0>
0

>  <SCORE.INTRA.SOLV>
0

>  <SCORE.INTRA.SOLV.lig_0>
-29.58

>  <SCORE.INTRA.VDW>
0

>  <SCORE.INTRA.VDW.0>
0

>  <SCORE.INTRA.norm>
0

>  <SCORE.RESTR>
0

>  <SCORE.RESTR.CAVITY>
0

>  <SCORE.RESTR.norm>
0

>  <SCORE.SYSTEM>
0

>  <SCORE.SYSTEM.CONST>
0

>  <SCORE.SYSTEM.DIHEDRAL>
0

>  <SCORE.SYSTEM.SOLV>
0

>  <SCORE.SYSTEM.norm>
0

>  <SCORE.heavy>
8

>  <SCORE.norm>
-0.767475

>  <RMSD>
3.074

$$$$
ligand
 OpenBabel02271912143D
libRbt.so/2013.1/901 2013/11/27
  8  8  0  0  0  0  0  0  0  0999 V2000
    9.3901   10.4615   -1.2945 C   0  0  0  0  0  0  0  0  0  0  0  0
    9.3593   10.5799    0.0327 N   0  0  0  0  0  0  0  0  0  0  0  0
    9.9659   11.6157    0.6184 C   0  0  0  0  0  0  0  0  0  0  0  0
   10.5957   12.5496   -0.1319 N   0  0  0  0  0  0  0  0  0  0  0  0
   10.6250   12.4160   -1.4686 C   0  0  0  0  0  0  0  0  0  0  0  0
   10.0180   11.3731   -2.0559 N   0  0  0  0  0  0  0  0  0  0  0  0
    9.9143   11.7138    2.0923 N   0  0  0  0  0  0  0  0  0  0  0  0
    8.7635    9.3996   -1.8514 O   0  0  0  0  0  0  0  0  0  0  0  0
  1  2  1  0  0  0  0
  1  6  1  0  0  0  0
  1  8  2  0  0  0  0
  2  3  1  0  0  0  0
  3  4  2  0  0  0  0
  3  7  1  0  0  0  0
  4  5  1  0  0  0  0
  5  6  2  0  0  0  0
M  END
>  <CHROM.1>
9.80018709,11.21630623,-0.52065285,2.06358505,-1.00900653,-1.69200224

>  <Name>
ligand

>  <RI>
0

>  <Rbt.Current_Directory>
/home/itssahil/PROJECTS/Mol_Feturizer/Test_systems_manuscript/rnas/3la5

>  <Rbt.Executable>
rbdock ($Id: //depot/dev/client3/rdock/2013.1/src/exe/rbdock.cxx#4 $)

>  <Rbt.Library>
libRbt.so (2013.1, Build901 2013/11/27)

>  <Rbt.Parameter_File>
/export/apps/rDock/src/rDock_2013.1_src/data/scripts/dock_solv.prm

>  <Rbt.Receptor>
prm/pocket_docking_3.prm

>  <SCORE>
-7.06287

>  <SCORE.INTER>
-7.06323

>  <SCORE.INTER.CONST>
1

>  <SCORE.INTER.POLAR>
0

>  <SCORE.INTER.ROT>
0

>  <SCORE.INTER.SOLV>
9.44579

>  <SCORE.INTER.VDW>
-11.4574

>  <SCORE.INTER.norm>
-0.882903

>  <SCORE.INTRA>
0

>  <SCORE.INTRA.DIHEDRAL>
0

>  <SCORE.INTRA.DIHEDRAL.0>
0

>  <SCORE.INTRA.POLAR>
0

>  <SCORE.INTRA.POLAR.0>
0

>  <SCORE.INTRA.REPUL>
0

>  <SCORE.INTRA.REPUL.0>
0

>  <SCORE.INTRA.SOLV>
0

>  <SCORE.INTRA.SOLV.lig_0>
-29.58

>  <SCORE.INTRA.VDW>
0

>  <SCORE.INTRA.VDW.0>
0

>  <SCORE.INTRA.norm>
0

>  <SCORE.RESTR>
0.000360598

>  <SCORE.RESTR.CAVITY>
0.000360598

>  <SCORE.RESTR.norm>
4.50747e-05

>  <SCORE.SYSTEM>
0

>  <SCORE.SYSTEM.CONST>
0

>  <SCORE.SYSTEM.DIHEDRAL>
0

>  <SCORE.SYSTEM.SOLV>
0

>  <SCORE.SYSTEM.norm>
0

>  <SCORE.heavy>
8

>  <SCORE.norm>
-0.882858

>  <RMSD>
3.111

$$$$
ligand
 OpenBabel02271912143D
libRbt.so/2013.1/901 2013/11/27
  8  8  0  0  0  0  0  0  0  0999 V2000
    9.3907   10.4598   -1.2988 C   0  0  0  0  0  0  0  0  0  0  0  0
    9.3645   10.5731    0.0290 N   0  0  0  0  0  0  0  0  0  0  0  0
    9.9705   11.6084    0.6163 C   0  0  0  0  0  0  0  0  0  0  0  0
   10.5950   12.5468   -0.1328 N   0  0  0  0  0  0  0  0  0  0  0  0
   10.6196   12.4183   -1.4701 C   0  0  0  0  0  0  0  0  0  0  0  0
   10.0133   11.3759   -2.0590 N   0  0  0  0  0  0  0  0  0  0  0  0
    9.9240   11.7007    2.0908 N   0  0  0  0  0  0  0  0  0  0  0  0
    8.7649    9.3983   -1.8573 O   0  0  0  0  0  0  0  0  0  0  0  0
  1  2  1  0  0  0  0
  1  6  1  0  0  0  0
  1  8  2  0  0  0  0
  2  3  1  0  0  0  0
  3  4  2  0  0  0  0
  3  7  1  0  0  0  0
  4  5  1  0  0  0  0
  5  6  2  0  0  0  0
M  END
>  <CHROM.1>
9.80160624,11.21279364,-0.52359731,2.06993449,-1.01213432,-1.68284883

>  <Name>
ligand

>  <RI>
0

>  <Rbt.Current_Directory>
/home/itssahil/PROJECTS/Mol_Feturizer/Test_systems_manuscript/rnas/3la5

>  <Rbt.Executable>
rbdock ($Id: //depot/dev/client3/rdock/2013.1/src/exe/rbdock.cxx#4 $)

>  <Rbt.Library>
libRbt.so (2013.1, Build901 2013/11/27)

>  <Rbt.Parameter_File>
/export/apps/rDock/src/rDock_2013.1_src/data/scripts/dock_solv.prm

>  <Rbt.Receptor>
prm/pocket_docking_3.prm

>  <SCORE>
-7.06586

>  <SCORE.INTER>
-7.06752

>  <SCORE.INTER.CONST>
1

>  <SCORE.INTER.POLAR>
0

>  <SCORE.INTER.ROT>
0

>  <SCORE.INTER.SOLV>
9.45312

>  <SCORE.INTER.VDW>
-11.4627

>  <SCORE.INTER.norm>
-0.88344

>  <SCORE.INTRA>
0

>  <SCORE.INTRA.DIHEDRAL>
0

>  <SCORE.INTRA.DIHEDRAL.0>
0

>  <SCORE.INTRA.POLAR>
0

>  <SCORE.INTRA.POLAR.0>
0

>  <SCORE.INTRA.REPUL>
0

>  <SCORE.INTRA.REPUL.0>
0

>  <SCORE.INTRA.SOLV>
0

>  <SCORE.INTRA.SOLV.lig_0>
-29.58

>  <SCORE.INTRA.VDW>
0

>  <SCORE.INTRA.VDW.0>
0

>  <SCORE.INTRA.norm>
0

>  <SCORE.RESTR>
0.00165811

>  <SCORE.RESTR.CAVITY>
0.00165811

>  <SCORE.RESTR.norm>
0.000207264

>  <SCORE.SYSTEM>
0

>  <SCORE.SYSTEM.CONST>
0

>  <SCORE.SYSTEM.DIHEDRAL>
0

>  <SCORE.SYSTEM.SOLV>
0

>  <SCORE.SYSTEM.norm>
0

>  <SCORE.heavy>
8

>  <SCORE.norm>
-0.883232

>  <RMSD>
3.111

$$$$
ligand
 OpenBabel02271912143D
libRbt.so/2013.1/901 2013/11/27
  8  8  0  0  0  0  0  0  0  0999 V2000
    9.3849   10.4582   -1.2968 C   0  0  0  0  0  0  0  0  0  0  0  0
    9.3773   10.5711    0.0312 N   0  0  0  0  0  0  0  0  0  0  0  0
    9.9961   11.6033    0.6106 C   0  0  0  0  0  0  0  0  0  0  0  0
   10.6149   12.5390   -0.1466 N   0  0  0  0  0  0  0  0  0  0  0  0
   10.6207   12.4109   -1.4841 C   0  0  0  0  0  0  0  0  0  0  0  0
   10.0014   11.3717   -2.0651 N   0  0  0  0  0  0  0  0  0  0  0  0
    9.9702   11.6953    2.0856 N   0  0  0  0  0  0  0  0  0  0  0  0
    8.7465    9.4000   -1.8471 O   0  0  0  0  0  0  0  0  0  0  0  0
  1  2  1  0  0  0  0
  1  6  1  0  0  0  0
  1  8  2  0  0  0  0
  2  3  1  0  0  0  0
  3  4  2  0  0  0  0
  3  7  1  0  0  0  0
  4  5  1  0  0  0  0
  5  6  2  0  0  0  0
M  END
>  <CHROM.1>
9.80989885,11.20894172,-0.52702506,2.09630281,-1.00875886,-1.66015049

>  <Name>
ligand

>  <RI>
0

>  <Rbt.Current_Directory>
/home/itssahil/PROJECTS/Mol_Feturizer/Test_systems_manuscript/rnas/3la5

>  <Rbt.Executable>
rbdock ($Id: //depot/dev/client3/rdock/2013.1/src/exe/rbdock.cxx#4 $)

>  <Rbt.Library>
libRbt.so (2013.1, Build901 2013/11/27)

>  <Rbt.Parameter_File>
/export/apps/rDock/src/rDock_2013.1_src/data/scripts/dock_solv.prm

>  <Rbt.Receptor>
prm/pocket_docking_3.prm

>  <SCORE>
-7.06363

>  <SCORE.INTER>
-7.06365

>  <SCORE.INTER.CONST>
1

>  <SCORE.INTER.POLAR>
0

>  <SCORE.INTER.ROT>
0

>  <SCORE.INTER.SOLV>
9.41524

>  <SCORE.INTER.VDW>
-11.4475

>  <SCORE.INTER.norm>
-0.882957

>  <SCORE.INTRA>
0

>  <SCORE.INTRA.DIHEDRAL>
0

>  <SCORE.INTRA.DIHEDRAL.0>
0

>  <SCORE.INTRA.POLAR>
0

>  <SCORE.INTRA.POLAR.0>
0

>  <SCORE.INTRA.REPUL>
0

>  <SCORE.INTRA.REPUL.0>
0

>  <SCORE.INTRA.SOLV>
0

>  <SCORE.INTRA.SOLV.lig_0>
-29.58

>  <SCORE.INTRA.VDW>
0

>  <SCORE.INTRA.VDW.0>
0

>  <SCORE.INTRA.norm>
0

>  <SCORE.RESTR>
2.37541e-05

>  <SCORE.RESTR.CAVITY>
2.37541e-05

>  <SCORE.RESTR.norm>
2.96926e-06

>  <SCORE.SYSTEM>
0

>  <SCORE.SYSTEM.CONST>
0

>  <SCORE.SYSTEM.DIHEDRAL>
0

>  <SCORE.SYSTEM.SOLV>
0

>  <SCORE.SYSTEM.norm>
0

>  <SCORE.heavy>
8

>  <SCORE.norm>
-0.882954

>  <RMSD>
3.112

$$$$
ligand
 OpenBabel02271912143D
libRbt.so/2013.1/901 2013/11/27
  8  8  0  0  0  0  0  0  0  0999 V2000
    9.3896   10.4516   -1.3195 C   0  0  0  0  0  0  0  0  0  0  0  0
    9.3877   10.5356    0.0107 N   0  0  0  0  0  0  0  0  0  0  0  0
   10.0002   11.5604    0.6094 C   0  0  0  0  0  0  0  0  0  0  0  0
   10.6068   12.5180   -0.1303 N   0  0  0  0  0  0  0  0  0  0  0  0
   10.6070   12.4190   -1.4703 C   0  0  0  0  0  0  0  0  0  0  0  0
    9.9941   11.3871   -2.0707 N   0  0  0  0  0  0  0  0  0  0  0  0
    9.9809   11.6201    2.0861 N   0  0  0  0  0  0  0  0  0  0  0  0
    8.7579    9.3999   -1.8897 O   0  0  0  0  0  0  0  0  0  0  0  0
  1  2  1  0  0  0  0
  1  6  1  0  0  0  0
  1  8  2  0  0  0  0
  2  3  1  0  0  0  0
  3  4  2  0  0  0  0
  3  7  1  0  0  0  0
  4  5  1  0  0  0  0
  5  6  2  0  0  0  0
M  END
>  <CHROM.1>
9.81177584,11.18924920,-0.53565426,2.10432043,-1.01808321,-1.63159174

>  <Name>
ligand

>  <RI>
0

>  <Rbt.Current_Directory>
/home/itssahil/PROJECTS/Mol_Feturizer/Test_systems_manuscript/rnas/3la5

>  <Rbt.Executable>
rbdock ($Id: //depot/dev/client3/rdock/2013.1/src/exe/rbdock.cxx#4 $)

>  <Rbt.Library>
libRbt.so (2013.1, Build901 2013/11/27)

>  <Rbt.Parameter_File>
/export/apps/rDock/src/rDock_2013.1_src/data/scripts/dock_solv.prm

>  <Rbt.Receptor>
prm/pocket_docking_3.prm

>  <SCORE>
-7.10485

>  <SCORE.INTER>
-7.10498

>  <SCORE.INTER.CONST>
1

>  <SCORE.INTER.POLAR>
0

>  <SCORE.INTER.ROT>
0

>  <SCORE.INTER.SOLV>
9.56546

>  <SCORE.INTER.VDW>
-11.5251

>  <SCORE.INTER.norm>
-0.888123

>  <SCORE.INTRA>
0

>  <SCORE.INTRA.DIHEDRAL>
0

>  <SCORE.INTRA.DIHEDRAL.0>
0

>  <SCORE.INTRA.POLAR>
0

>  <SCORE.INTRA.POLAR.0>
0

>  <SCORE.INTRA.REPUL>
0

>  <SCORE.INTRA.REPUL.0>
0

>  <SCORE.INTRA.SOLV>
0

>  <SCORE.INTRA.SOLV.lig_0>
-29.58

>  <SCORE.INTRA.VDW>
0

>  <SCORE.INTRA.VDW.0>
0

>  <SCORE.INTRA.norm>
0

>  <SCORE.RESTR>
0.000134734

>  <SCORE.RESTR.CAVITY>
0.000134734

>  <SCORE.RESTR.norm>
1.68417e-05

>  <SCORE.SYSTEM>
0

>  <SCORE.SYSTEM.CONST>
0

>  <SCORE.SYSTEM.DIHEDRAL>
0

>  <SCORE.SYSTEM.SOLV>
0

>  <SCORE.SYSTEM.norm>
0

>  <SCORE.heavy>
8

>  <SCORE.norm>
-0.888106

>  <RMSD>
3.113

$$$$
ligand
 OpenBabel02271912143D
libRbt.so/2013.1/901 2013/11/27
  8  8  0  0  0  0  0  0  0  0999 V2000
    9.3830   10.4558   -1.3068 C   0  0  0  0  0  0  0  0  0  0  0  0
    9.3686   10.5600    0.0219 N   0  0  0  0  0  0  0  0  0  0  0  0
    9.9820   11.5899    0.6110 C   0  0  0  0  0  0  0  0  0  0  0  0
   10.6022   12.5320   -0.1371 N   0  0  0  0  0  0  0  0  0  0  0  0
   10.6149   12.4126   -1.4754 C   0  0  0  0  0  0  0  0  0  0  0  0
   10.0010   11.3757   -2.0661 N   0  0  0  0  0  0  0  0  0  0  0  0
    9.9486   11.6722    2.0864 N   0  0  0  0  0  0  0  0  0  0  0  0
    8.7498    9.3996   -1.8671 O   0  0  0  0  0  0  0  0  0  0  0  0
  1  2  1  0  0  0  0
  1  6  1  0  0  0  0
  1  8  2  0  0  0  0
  2  3  1  0  0  0  0
  3  4  2  0  0  0  0
  3  7  1  0  0  0  0
  4  5  1  0  0  0  0
  5  6  2  0  0  0  0
M  END
>  <CHROM.1>
9.80235219,11.20251244,-0.53009871,2.08668122,-1.01072328,-1.66180392

>  <Name>
ligand

>  <RI>
0

>  <Rbt.Current_Directory>
/home/itssahil/PROJECTS/Mol_Feturizer/Test_systems_manuscript/rnas/3la5

>  <Rbt.Executable>
rbdock ($Id: //depot/dev/client3/rdock/2013.1/src/exe/rbdock.cxx#4 $)

>  <Rbt.Library>
libRbt.so (2013.1, Build901 2013/11/27)

>  <Rbt.Parameter_File>
/export/apps/rDock/src/rDock_2013.1_src/data/scripts/dock_solv.prm

>  <Rbt.Receptor>
prm/pocket_docking_3.prm

>  <SCORE>
-7.09279

>  <SCORE.INTER>
-7.09317

>  <SCORE.INTER.CONST>
1

>  <SCORE.INTER.POLAR>
0

>  <SCORE.INTER.ROT>
0

>  <SCORE.INTER.SOLV>
9.48766

>  <SCORE.INTER.VDW>
-11.4913

>  <SCORE.INTER.norm>
-0.886647

>  <SCORE.INTRA>
0

>  <SCORE.INTRA.DIHEDRAL>
0

>  <SCORE.INTRA.DIHEDRAL.0>
0

>  <SCORE.INTRA.POLAR>
0

>  <SCORE.INTRA.POLAR.0>
0

>  <SCORE.INTRA.REPUL>
0

>  <SCORE.INTRA.REPUL.0>
0

>  <SCORE.INTRA.SOLV>
0

>  <SCORE.INTRA.SOLV.lig_0>
-29.58

>  <SCORE.INTRA.VDW>
0

>  <SCORE.INTRA.VDW.0>
0

>  <SCORE.INTRA.norm>
0

>  <SCORE.RESTR>
0.000383969

>  <SCORE.RESTR.CAVITY>
0.000383969

>  <SCORE.RESTR.norm>
4.79961e-05

>  <SCORE.SYSTEM>
0

>  <SCORE.SYSTEM.CONST>
0

>  <SCORE.SYSTEM.DIHEDRAL>
0

>  <SCORE.SYSTEM.SOLV>
0

>  <SCORE.SYSTEM.norm>
0

>  <SCORE.heavy>
8

>  <SCORE.norm>
-0.886599

>  <RMSD>
3.114

$$$$
ligand
 OpenBabel02271912143D
libRbt.so/2013.1/901 2013/11/27
  8  8  0  0  0  0  0  0  0  0999 V2000
    9.3870   10.4618   -1.2957 C   0  0  0  0  0  0  0  0  0  0  0  0
    9.3449   10.5888    0.0304 N   0  0  0  0  0  0  0  0  0  0  0  0
    9.9498   11.6264    0.6147 C   0  0  0  0  0  0  0  0  0  0  0  0
   10.5894   12.5534   -0.1360 N   0  0  0  0  0  0  0  0  0  0  0  0
   10.6299   12.4110   -1.4714 C   0  0  0  0  0  0  0  0  0  0  0  0
   10.0246   11.3664   -2.0573 N   0  0  0  0  0  0  0  0  0  0  0  0
    9.8856   11.7341    2.0875 N   0  0  0  0  0  0  0  0  0  0  0  0
    8.7617    9.3985   -1.8513 O   0  0  0  0  0  0  0  0  0  0  0  0
  1  2  1  0  0  0  0
  1  6  1  0  0  0  0
  1  8  2  0  0  0  0
  2  3  1  0  0  0  0
  3  4  2  0  0  0  0
  3  7  1  0  0  0  0
  4  5  1  0  0  0  0
  5  6  2  0  0  0  0
M  END
>  <CHROM.1>
9.79278914,11.22020228,-0.52313648,2.04811759,-1.00454329,-1.71147192

>  <Name>
ligand

>  <RI>
0

>  <Rbt.Current_Directory>
/home/itssahil/PROJECTS/Mol_Feturizer/Test_systems_manuscript/rnas/3la5

>  <Rbt.Executable>
rbdock ($Id: //depot/dev/client3/rdock/2013.1/src/exe/rbdock.cxx#4 $)

>  <Rbt.Library>
libRbt.so (2013.1, Build901 2013/11/27)

>  <Rbt.Parameter_File>
/export/apps/rDock/src/rDock_2013.1_src/data/scripts/dock_solv.prm

>  <Rbt.Receptor>
prm/pocket_docking_3.prm

>  <SCORE>
-7.0552

>  <SCORE.INTER>
-7.05671

>  <SCORE.INTER.CONST>
1

>  <SCORE.INTER.POLAR>
0

>  <SCORE.INTER.ROT>
0

>  <SCORE.INTER.SOLV>
9.4519

>  <SCORE.INTER.VDW>
-11.4551

>  <SCORE.INTER.norm>
-0.882089

>  <SCORE.INTRA>
0

>  <SCORE.INTRA.DIHEDRAL>
0

>  <SCORE.INTRA.DIHEDRAL.0>
0

>  <SCORE.INTRA.POLAR>
0

>  <SCORE.INTRA.POLAR.0>
0

>  <SCORE.INTRA.REPUL>
0

>  <SCORE.INTRA.REPUL.0>
0

>  <SCORE.INTRA.SOLV>
0

>  <SCORE.INTRA.SOLV.lig_0>
-29.58

>  <SCORE.INTRA.VDW>
0

>  <SCORE.INTRA.VDW.0>
0

>  <SCORE.INTRA.norm>
0

>  <SCORE.RESTR>
0.00151148

>  <SCORE.RESTR.CAVITY>
0.00151148

>  <SCORE.RESTR.norm>
0.000188934

>  <SCORE.SYSTEM>
0

>  <SCORE.SYSTEM.CONST>
0

>  <SCORE.SYSTEM.DIHEDRAL>
0

>  <SCORE.SYSTEM.SOLV>
0

>  <SCORE.SYSTEM.norm>
0

>  <SCORE.heavy>
8

>  <SCORE.norm>
-0.8819

>  <RMSD>
3.115

$$$$
ligand
 OpenBabel02271912143D
libRbt.so/2013.1/901 2013/11/27
  8  8  0  0  0  0  0  0  0  0999 V2000
    9.3906   10.4649   -1.3065 C   0  0  0  0  0  0  0  0  0  0  0  0
    9.3535   10.5875    0.0202 N   0  0  0  0  0  0  0  0  0  0  0  0
    9.9555   11.6262    0.6054 C   0  0  0  0  0  0  0  0  0  0  0  0
   10.5871   12.5589   -0.1451 N   0  0  0  0  0  0  0  0  0  0  0  0
   10.6228   12.4210   -1.4811 C   0  0  0  0  0  0  0  0  0  0  0  0
   10.0204   11.3751   -2.0678 N   0  0  0  0  0  0  0  0  0  0  0  0
    9.8969   11.7289    2.0787 N   0  0  0  0  0  0  0  0  0  0  0  0
    8.7685    9.4001   -1.8628 O   0  0  0  0  0  0  0  0  0  0  0  0
  1  2  1  0  0  0  0
  1  6  1  0  0  0  0
  1  8  2  0  0  0  0
  2  3  1  0  0  0  0
  3  4  2  0  0  0  0
  3  7  1  0  0  0  0
  4  5  1  0  0  0  0
  5  6  2  0  0  0  0
M  END
>  <CHROM.1>
9.79576493,11.22288029,-0.53315001,2.05454932,-1.01019953,-1.70286133

>  <Name>
ligand

>  <RI>
0

>  <Rbt.Current_Directory>
/home/itssahil/PROJECTS/Mol_Feturizer/Test_systems_manuscript/rnas/3la5

>  <Rbt.Executable>
rbdock ($Id: //depot/dev/client3/rdock/2013.1/src/exe/rbdock.cxx#4 $)

>  <Rbt.Library>
libRbt.so (2013.1, Build901 2013/11/27)

>  <Rbt.Parameter_File>
/export/apps/rDock/src/rDock_2013.1_src/data/scripts/dock_solv.prm

>  <Rbt.Receptor>
prm/pocket_docking_3.prm

>  <SCORE>
-7.05514

>  <SCORE.INTER>
-7.05514

>  <SCORE.INTER.CONST>
1

>  <SCORE.INTER.POLAR>
0

>  <SCORE.INTER.ROT>
0

>  <SCORE.INTER.SOLV>
9.42037

>  <SCORE.INTER.VDW>
-11.4435

>  <SCORE.INTER.norm>
-0.881892

>  <SCORE.INTRA>
0

>  <SCORE.INTRA.DIHEDRAL>
0

>  <SCORE.INTRA.DIHEDRAL.0>
0

>  <SCORE.INTRA.POLAR>
0

>  <SCORE.INTRA.POLAR.0>
0

>  <SCORE.INTRA.REPUL>
0

>  <SCORE.INTRA.REPUL.0>
0

>  <SCORE.INTRA.SOLV>
0

>  <SCORE.INTRA.SOLV.lig_0>
-29.58

>  <SCORE.INTRA.VDW>
0

>  <SCORE.INTRA.VDW.0>
0

>  <SCORE.INTRA.norm>
0

>  <SCORE.RESTR>
0

>  <SCORE.RESTR.CAVITY>
0

>  <SCORE.RESTR.norm>
0

>  <SCORE.SYSTEM>
0

>  <SCORE.SYSTEM.CONST>
0

>  <SCORE.SYSTEM.DIHEDRAL>
0

>  <SCORE.SYSTEM.SOLV>
0

>  <SCORE.SYSTEM.norm>
0

>  <SCORE.heavy>
8

>  <SCORE.norm>
-0.881892

>  <RMSD>
3.117

$$$$
ligand
 OpenBabel02271912143D
libRbt.so/2013.1/901 2013/11/27
  8  8  0  0  0  0  0  0  0  0999 V2000
    9.8902   11.0503   -1.1816 C   0  0  0  0  0  0  0  0  0  0  0  0
   10.0260   12.3398   -0.8729 N   0  0  0  0  0  0  0  0  0  0  0  0
   10.3566   12.6902    0.3728 C   0  0  0  0  0  0  0  0  0  0  0  0
   10.5683   11.7409    1.3141 N   0  0  0  0  0  0  0  0  0  0  0  0
   10.4225   10.4446    0.9921 C   0  0  0  0  0  0  0  0  0  0  0  0
   10.0871   10.0938   -0.2591 N   0  0  0  0  0  0  0  0  0  0  0  0
   10.4956   14.1292    0.6805 N   0  0  0  0  0  0  0  0  0  0  0  0
    9.5556   10.7344   -2.4539 O   0  0  0  0  0  0  0  0  0  0  0  0
  1  2  1  0  0  0  0
  1  6  1  0  0  0  0
  1  8  2  0  0  0  0
  2  3  1  0  0  0  0
  3  4  2  0  0  0  0
  3  7  1  0  0  0  0
  4  5  1  0  0  0  0
  5  6  2  0  0  0  0
M  END
>  <CHROM.1>
10.16118198,11.65023952,-0.23115641,2.51008668,1.31656207,2.98196869

>  <Name>
ligand

>  <RI>
0

>  <Rbt.Current_Directory>
/home/itssahil/PROJECTS/Mol_Feturizer/Test_systems_manuscript/rnas/3la5

>  <Rbt.Executable>
rbdock ($Id: //depot/dev/client3/rdock/2013.1/src/exe/rbdock.cxx#4 $)

>  <Rbt.Library>
libRbt.so (2013.1, Build901 2013/11/27)

>  <Rbt.Parameter_File>
/export/apps/rDock/src/rDock_2013.1_src/data/scripts/dock_solv.prm

>  <Rbt.Receptor>
prm/blind_docking_100.prm

>  <SCORE>
-6.687

>  <SCORE.INTER>
-6.687

>  <SCORE.INTER.CONST>
1

>  <SCORE.INTER.POLAR>
0

>  <SCORE.INTER.ROT>
0

>  <SCORE.INTER.SOLV>
8.554

>  <SCORE.INTER.VDW>
-10.9093

>  <SCORE.INTER.norm>
-0.835874

>  <SCORE.INTRA>
0

>  <SCORE.INTRA.DIHEDRAL>
0

>  <SCORE.INTRA.DIHEDRAL.0>
0

>  <SCORE.INTRA.POLAR>
0

>  <SCORE.INTRA.POLAR.0>
0

>  <SCORE.INTRA.REPUL>
0

>  <SCORE.INTRA.REPUL.0>
0

>  <SCORE.INTRA.SOLV>
0

>  <SCORE.INTRA.SOLV.lig_0>
-29.58

>  <SCORE.INTRA.VDW>
0

>  <SCORE.INTRA.VDW.0>
0

>  <SCORE.INTRA.norm>
0

>  <SCORE.RESTR>
0

>  <SCORE.RESTR.CAVITY>
0

>  <SCORE.RESTR.norm>
0

>  <SCORE.SYSTEM>
0

>  <SCORE.SYSTEM.CONST>
0

>  <SCORE.SYSTEM.DIHEDRAL>
0

>  <SCORE.SYSTEM.SOLV>
0

>  <SCORE.SYSTEM.norm>
0

>  <SCORE.heavy>
8

>  <SCORE.norm>
-0.835874

>  <RMSD>
3.160

$$$$
ligand
 OpenBabel02271912143D
libRbt.so/2013.1/901 2013/11/27
  8  8  0  0  0  0  0  0  0  0999 V2000
    9.8876   11.1038   -1.1429 C   0  0  0  0  0  0  0  0  0  0  0  0
   10.0808   12.3959   -0.8791 N   0  0  0  0  0  0  0  0  0  0  0  0
   10.4180   12.7754    0.3563 C   0  0  0  0  0  0  0  0  0  0  0  0
   10.5784   11.8520    1.3327 N   0  0  0  0  0  0  0  0  0  0  0  0
   10.3750   10.5530    1.0558 C   0  0  0  0  0  0  0  0  0  0  0  0
   10.0330   10.1731   -0.1850 N   0  0  0  0  0  0  0  0  0  0  0  0
   10.6213   14.2166    0.6137 N   0  0  0  0  0  0  0  0  0  0  0  0
    9.5482   10.7580   -2.4060 O   0  0  0  0  0  0  0  0  0  0  0  0
  1  2  1  0  0  0  0
  1  6  1  0  0  0  0
  1  8  2  0  0  0  0
  2  3  1  0  0  0  0
  3  4  2  0  0  0  0
  3  7  1  0  0  0  0
  4  5  1  0  0  0  0
  5  6  2  0  0  0  0
M  END
>  <CHROM.1>
10.17899780,11.72448493,-0.21196701,2.69504392,1.31234784,2.76713325

>  <Name>
ligand

>  <RI>
0

>  <Rbt.Current_Directory>
/home/itssahil/PROJECTS/Mol_Feturizer/Test_systems_manuscript/rnas/3la5

>  <Rbt.Executable>
rbdock ($Id: //depot/dev/client3/rdock/2013.1/src/exe/rbdock.cxx#4 $)

>  <Rbt.Library>
libRbt.so (2013.1, Build901 2013/11/27)

>  <Rbt.Parameter_File>
/export/apps/rDock/src/rDock_2013.1_src/data/scripts/dock_solv.prm

>  <Rbt.Receptor>
prm/pocket_docking_4.prm

>  <SCORE>
-6.71094

>  <SCORE.INTER>
-6.71094

>  <SCORE.INTER.CONST>
1

>  <SCORE.INTER.POLAR>
0

>  <SCORE.INTER.ROT>
0

>  <SCORE.INTER.SOLV>
8.56431

>  <SCORE.INTER.VDW>
-10.9287

>  <SCORE.INTER.norm>
-0.838867

>  <SCORE.INTRA>
0

>  <SCORE.INTRA.DIHEDRAL>
0

>  <SCORE.INTRA.DIHEDRAL.0>
0

>  <SCORE.INTRA.POLAR>
0

>  <SCORE.INTRA.POLAR.0>
0

>  <SCORE.INTRA.REPUL>
0

>  <SCORE.INTRA.REPUL.0>
0

>  <SCORE.INTRA.SOLV>
0

>  <SCORE.INTRA.SOLV.lig_0>
-29.58

>  <SCORE.INTRA.VDW>
0

>  <SCORE.INTRA.VDW.0>
0

>  <SCORE.INTRA.norm>
0

>  <SCORE.RESTR>
0

>  <SCORE.RESTR.CAVITY>
0

>  <SCORE.RESTR.norm>
0

>  <SCORE.SYSTEM>
0

>  <SCORE.SYSTEM.CONST>
0

>  <SCORE.SYSTEM.DIHEDRAL>
0

>  <SCORE.SYSTEM.SOLV>
0

>  <SCORE.SYSTEM.norm>
0

>  <SCORE.heavy>
8

>  <SCORE.norm>
-0.838867

>  <RMSD>
3.166

$$$$
ligand
 OpenBabel02271912143D
libRbt.so/2013.1/901 2013/11/27
  8  8  0  0  0  0  0  0  0  0999 V2000
    9.9038   11.0817   -1.1961 C   0  0  0  0  0  0  0  0  0  0  0  0
   10.1102   12.3679   -0.9141 N   0  0  0  0  0  0  0  0  0  0  0  0
   10.4208   12.7297    0.3335 C   0  0  0  0  0  0  0  0  0  0  0  0
   10.5409   11.7942    1.3042 N   0  0  0  0  0  0  0  0  0  0  0  0
   10.3245   10.5014    1.0087 C   0  0  0  0  0  0  0  0  0  0  0  0
   10.0093   10.1394   -0.2445 N   0  0  0  0  0  0  0  0  0  0  0  0
   10.6399   14.1648    0.6111 N   0  0  0  0  0  0  0  0  0  0  0  0
    9.5924   10.7539   -2.4713 O   0  0  0  0  0  0  0  0  0  0  0  0
  1  2  1  0  0  0  0
  1  6  1  0  0  0  0
  1  8  2  0  0  0  0
  2  3  1  0  0  0  0
  3  4  2  0  0  0  0
  3  7  1  0  0  0  0
  4  5  1  0  0  0  0
  5  6  2  0  0  0  0
M  END
>  <CHROM.1>
10.18033581,11.68841700,-0.25158988,2.79677742,1.32988054,2.67866904

>  <Name>
ligand

>  <RI>
0

>  <Rbt.Current_Directory>
/home/itssahil/PROJECTS/Mol_Feturizer/Test_systems_manuscript/rnas/3la5

>  <Rbt.Executable>
rbdock ($Id: //depot/dev/client3/rdock/2013.1/src/exe/rbdock.cxx#4 $)

>  <Rbt.Library>
libRbt.so (2013.1, Build901 2013/11/27)

>  <Rbt.Parameter_File>
/export/apps/rDock/src/rDock_2013.1_src/data/scripts/dock_solv.prm

>  <Rbt.Receptor>
prm/blind_docking_40.prm

>  <SCORE>
-6.73301

>  <SCORE.INTER>
-6.73301

>  <SCORE.INTER.CONST>
1

>  <SCORE.INTER.POLAR>
0

>  <SCORE.INTER.ROT>
0

>  <SCORE.INTER.SOLV>
8.66878

>  <SCORE.INTER.VDW>
-10.9783

>  <SCORE.INTER.norm>
-0.841626

>  <SCORE.INTRA>
0

>  <SCORE.INTRA.DIHEDRAL>
0

>  <SCORE.INTRA.DIHEDRAL.0>
0

>  <SCORE.INTRA.POLAR>
0

>  <SCORE.INTRA.POLAR.0>
0

>  <SCORE.INTRA.REPUL>
0

>  <SCORE.INTRA.REPUL.0>
0

>  <SCORE.INTRA.SOLV>
0

>  <SCORE.INTRA.SOLV.lig_0>
-29.58

>  <SCORE.INTRA.VDW>
0

>  <SCORE.INTRA.VDW.0>
0

>  <SCORE.INTRA.norm>
0

>  <SCORE.RESTR>
0

>  <SCORE.RESTR.CAVITY>
0

>  <SCORE.RESTR.norm>
0

>  <SCORE.SYSTEM>
0

>  <SCORE.SYSTEM.CONST>
0

>  <SCORE.SYSTEM.DIHEDRAL>
0

>  <SCORE.SYSTEM.SOLV>
0

>  <SCORE.SYSTEM.norm>
0

>  <SCORE.heavy>
8

>  <SCORE.norm>
-0.841626

>  <RMSD>
3.167

$$$$
ligand
 OpenBabel02271912143D
libRbt.so/2013.1/901 2013/11/27
  8  8  0  0  0  0  0  0  0  0999 V2000
    9.9068   11.1100   -1.1500 C   0  0  0  0  0  0  0  0  0  0  0  0
   10.1163   12.4015   -0.8958 N   0  0  0  0  0  0  0  0  0  0  0  0
   10.4275   12.7893    0.3439 C   0  0  0  0  0  0  0  0  0  0  0  0
   10.5454   11.8747    1.3345 N   0  0  0  0  0  0  0  0  0  0  0  0
   10.3259   10.5764    1.0669 C   0  0  0  0  0  0  0  0  0  0  0  0
   10.0100   10.1881   -0.1783 N   0  0  0  0  0  0  0  0  0  0  0  0
   10.6500   14.2296    0.5905 N   0  0  0  0  0  0  0  0  0  0  0  0
    9.5947   10.7556   -2.4178 O   0  0  0  0  0  0  0  0  0  0  0  0
  1  2  1  0  0  0  0
  1  6  1  0  0  0  0
  1  8  2  0  0  0  0
  2  3  1  0  0  0  0
  3  4  2  0  0  0  0
  3  7  1  0  0  0  0
  4  5  1  0  0  0  0
  5  6  2  0  0  0  0
M  END
>  <CHROM.1>
10.18470771,11.73626734,-0.21871879,2.80586737,1.32890076,2.64829935

>  <Name>
ligand

>  <RI>
0

>  <Rbt.Current_Directory>
/home/itssahil/PROJECTS/Mol_Feturizer/Test_systems_manuscript/rnas/3la5

>  <Rbt.Executable>
rbdock ($Id: //depot/dev/client3/rdock/2013.1/src/exe/rbdock.cxx#4 $)

>  <Rbt.Library>
libRbt.so (2013.1, Build901 2013/11/27)

>  <Rbt.Parameter_File>
/export/apps/rDock/src/rDock_2013.1_src/data/scripts/dock_solv.prm

>  <Rbt.Receptor>
prm/blind_docking_100.prm

>  <SCORE>
-6.74517

>  <SCORE.INTER>
-6.74517

>  <SCORE.INTER.CONST>
1

>  <SCORE.INTER.POLAR>
0

>  <SCORE.INTER.ROT>
0

>  <SCORE.INTER.SOLV>
8.56587

>  <SCORE.INTER.VDW>
-10.9521

>  <SCORE.INTER.norm>
-0.843147

>  <SCORE.INTRA>
0

>  <SCORE.INTRA.DIHEDRAL>
0

>  <SCORE.INTRA.DIHEDRAL.0>
0

>  <SCORE.INTRA.POLAR>
0

>  <SCORE.INTRA.POLAR.0>
0

>  <SCORE.INTRA.REPUL>
0

>  <SCORE.INTRA.REPUL.0>
0

>  <SCORE.INTRA.SOLV>
0

>  <SCORE.INTRA.SOLV.lig_0>
-29.58

>  <SCORE.INTRA.VDW>
0

>  <SCORE.INTRA.VDW.0>
0

>  <SCORE.INTRA.norm>
0

>  <SCORE.RESTR>
0

>  <SCORE.RESTR.CAVITY>
0

>  <SCORE.RESTR.norm>
0

>  <SCORE.SYSTEM>
0

>  <SCORE.SYSTEM.CONST>
0

>  <SCORE.SYSTEM.DIHEDRAL>
0

>  <SCORE.SYSTEM.SOLV>
0

>  <SCORE.SYSTEM.norm>
0

>  <SCORE.heavy>
8

>  <SCORE.norm>
-0.843147

>  <RMSD>
3.168

$$$$
ligand
 OpenBabel02271912143D
libRbt.so/2013.1/901 2013/11/27
  8  8  0  0  0  0  0  0  0  0999 V2000
    9.8958   11.1066   -1.1462 C   0  0  0  0  0  0  0  0  0  0  0  0
   10.0908   12.3993   -0.8865 N   0  0  0  0  0  0  0  0  0  0  0  0
   10.4187   12.7832    0.3500 C   0  0  0  0  0  0  0  0  0  0  0  0
   10.5680   11.8636    1.3318 N   0  0  0  0  0  0  0  0  0  0  0  0
   10.3629   10.5640    1.0589 C   0  0  0  0  0  0  0  0  0  0  0  0
   10.0302   10.1797   -0.1831 N   0  0  0  0  0  0  0  0  0  0  0  0
   10.6244   14.2249    0.6028 N   0  0  0  0  0  0  0  0  0  0  0  0
    9.5660   10.7563   -2.4107 O   0  0  0  0  0  0  0  0  0  0  0  0
  1  2  1  0  0  0  0
  1  6  1  0  0  0  0
  1  8  2  0  0  0  0
  2  3  1  0  0  0  0
  3  4  2  0  0  0  0
  3  7  1  0  0  0  0
  4  5  1  0  0  0  0
  5  6  2  0  0  0  0
M  END
>  <CHROM.1>
10.18130093,11.73050865,-0.21562925,2.71905231,1.31898149,2.73950808

>  <Name>
ligand

>  <RI>
0

>  <Rbt.Current_Directory>
/home/itssahil/PROJECTS/Mol_Feturizer/Test_systems_manuscript/rnas/3la5

>  <Rbt.Executable>
rbdock ($Id: //depot/dev/client3/rdock/2013.1/src/exe/rbdock.cxx#4 $)

>  <Rbt.Library>
libRbt.so (2013.1, Build901 2013/11/27)

>  <Rbt.Parameter_File>
/export/apps/rDock/src/rDock_2013.1_src/data/scripts/dock_solv.prm

>  <Rbt.Receptor>
prm/blind_docking_40.prm

>  <SCORE>
-6.71403

>  <SCORE.INTER>
-6.71403

>  <SCORE.INTER.CONST>
1

>  <SCORE.INTER.POLAR>
0

>  <SCORE.INTER.ROT>
0

>  <SCORE.INTER.SOLV>
8.5471

>  <SCORE.INTER.VDW>
-10.9251

>  <SCORE.INTER.norm>
-0.839254

>  <SCORE.INTRA>
0

>  <SCORE.INTRA.DIHEDRAL>
0

>  <SCORE.INTRA.DIHEDRAL.0>
0

>  <SCORE.INTRA.POLAR>
0

>  <SCORE.INTRA.POLAR.0>
0

>  <SCORE.INTRA.REPUL>
0

>  <SCORE.INTRA.REPUL.0>
0

>  <SCORE.INTRA.SOLV>
0

>  <SCORE.INTRA.SOLV.lig_0>
-29.58

>  <SCORE.INTRA.VDW>
0

>  <SCORE.INTRA.VDW.0>
0

>  <SCORE.INTRA.norm>
0

>  <SCORE.RESTR>
0

>  <SCORE.RESTR.CAVITY>
0

>  <SCORE.RESTR.norm>
0

>  <SCORE.SYSTEM>
0

>  <SCORE.SYSTEM.CONST>
0

>  <SCORE.SYSTEM.DIHEDRAL>
0

>  <SCORE.SYSTEM.SOLV>
0

>  <SCORE.SYSTEM.norm>
0

>  <SCORE.heavy>
8

>  <SCORE.norm>
-0.839254

>  <RMSD>
3.168

$$$$
ligand
 OpenBabel02271912143D
libRbt.so/2013.1/901 2013/11/27
  8  8  0  0  0  0  0  0  0  0999 V2000
    9.8528   11.0306   -1.2160 C   0  0  0  0  0  0  0  0  0  0  0  0
   10.0045   12.3166   -0.9001 N   0  0  0  0  0  0  0  0  0  0  0  0
   10.3200   12.6570    0.3523 C   0  0  0  0  0  0  0  0  0  0  0  0
   10.5004   11.7010    1.2933 N   0  0  0  0  0  0  0  0  0  0  0  0
   10.3388   10.4084    0.9638 C   0  0  0  0  0  0  0  0  0  0  0  0
   10.0186   10.0676   -0.2941 N   0  0  0  0  0  0  0  0  0  0  0  0
   10.4773   14.0924    0.6679 N   0  0  0  0  0  0  0  0  0  0  0  0
    9.5344   10.7249   -2.4949 O   0  0  0  0  0  0  0  0  0  0  0  0
  1  2  1  0  0  0  0
  1  6  1  0  0  0  0
  1  8  2  0  0  0  0
  2  3  1  0  0  0  0
  3  4  2  0  0  0  0
  3  7  1  0  0  0  0
  4  5  1  0  0  0  0
  5  6  2  0  0  0  0
M  END
>  <CHROM.1>
10.11763051,11.62258474,-0.25887720,2.58893885,1.32972388,2.90927475

>  <Name>
ligand

>  <RI>
0

>  <Rbt.Current_Directory>
/home/itssahil/PROJECTS/Mol_Feturizer/Test_systems_manuscript/rnas/3la5

>  <Rbt.Executable>
rbdock ($Id: //depot/dev/client3/rdock/2013.1/src/exe/rbdock.cxx#4 $)

>  <Rbt.Library>
libRbt.so (2013.1, Build901 2013/11/27)

>  <Rbt.Parameter_File>
/export/apps/rDock/src/rDock_2013.1_src/data/scripts/dock_solv.prm

>  <Rbt.Receptor>
prm/blind_docking_80.prm

>  <SCORE>
-6.71065

>  <SCORE.INTER>
-6.71065

>  <SCORE.INTER.CONST>
1

>  <SCORE.INTER.POLAR>
0

>  <SCORE.INTER.ROT>
0

>  <SCORE.INTER.SOLV>
8.58967

>  <SCORE.INTER.VDW>
-10.937

>  <SCORE.INTER.norm>
-0.838831

>  <SCORE.INTRA>
0

>  <SCORE.INTRA.DIHEDRAL>
0

>  <SCORE.INTRA.DIHEDRAL.0>
0

>  <SCORE.INTRA.POLAR>
0

>  <SCORE.INTRA.POLAR.0>
0

>  <SCORE.INTRA.REPUL>
0

>  <SCORE.INTRA.REPUL.0>
0

>  <SCORE.INTRA.SOLV>
0

>  <SCORE.INTRA.SOLV.lig_0>
-29.58

>  <SCORE.INTRA.VDW>
0

>  <SCORE.INTRA.VDW.0>
0

>  <SCORE.INTRA.norm>
0

>  <SCORE.RESTR>
0

>  <SCORE.RESTR.CAVITY>
0

>  <SCORE.RESTR.norm>
0

>  <SCORE.SYSTEM>
0

>  <SCORE.SYSTEM.CONST>
0

>  <SCORE.SYSTEM.DIHEDRAL>
0

>  <SCORE.SYSTEM.SOLV>
0

>  <SCORE.SYSTEM.norm>
0

>  <SCORE.heavy>
8

>  <SCORE.norm>
-0.838831

>  <RMSD>
3.171

$$$$
ligand
 OpenBabel02271912143D
libRbt.so/2013.1/901 2013/11/27
  8  8  0  0  0  0  0  0  0  0999 V2000
    9.8895   11.1026   -1.1458 C   0  0  0  0  0  0  0  0  0  0  0  0
   10.0863   12.3957   -0.8897 N   0  0  0  0  0  0  0  0  0  0  0  0
   10.4069   12.7834    0.3476 C   0  0  0  0  0  0  0  0  0  0  0  0
   10.5467   11.8671    1.3339 N   0  0  0  0  0  0  0  0  0  0  0  0
   10.3397   10.5671    1.0645 C   0  0  0  0  0  0  0  0  0  0  0  0
   10.0145   10.1790   -0.1783 N   0  0  0  0  0  0  0  0  0  0  0  0
   10.6149   14.2254    0.5964 N   0  0  0  0  0  0  0  0  0  0  0  0
    9.5674   10.7484   -2.4112 O   0  0  0  0  0  0  0  0  0  0  0  0
  1  2  1  0  0  0  0
  1  6  1  0  0  0  0
  1  8  2  0  0  0  0
  2  3  1  0  0  0  0
  3  4  2  0  0  0  0
  3  7  1  0  0  0  0
  4  5  1  0  0  0  0
  5  6  2  0  0  0  0
M  END
>  <CHROM.1>
10.17027259,11.72923329,-0.21562097,2.74107114,1.32415392,2.71435866

>  <Name>
ligand

>  <RI>
0

>  <Rbt.Current_Directory>
/home/itssahil/PROJECTS/Mol_Feturizer/Test_systems_manuscript/rnas/3la5

>  <Rbt.Executable>
rbdock ($Id: //depot/dev/client3/rdock/2013.1/src/exe/rbdock.cxx#4 $)

>  <Rbt.Library>
libRbt.so (2013.1, Build901 2013/11/27)

>  <Rbt.Parameter_File>
/export/apps/rDock/src/rDock_2013.1_src/data/scripts/dock_solv.prm

>  <Rbt.Receptor>
prm/pocket_docking_6.prm

>  <SCORE>
-6.7145

>  <SCORE.INTER>
-6.7145

>  <SCORE.INTER.CONST>
1

>  <SCORE.INTER.POLAR>
0

>  <SCORE.INTER.ROT>
0

>  <SCORE.INTER.SOLV>
8.52668

>  <SCORE.INTER.VDW>
-10.9186

>  <SCORE.INTER.norm>
-0.839312

>  <SCORE.INTRA>
0

>  <SCORE.INTRA.DIHEDRAL>
0

>  <SCORE.INTRA.DIHEDRAL.0>
0

>  <SCORE.INTRA.POLAR>
0

>  <SCORE.INTRA.POLAR.0>
0

>  <SCORE.INTRA.REPUL>
0

>  <SCORE.INTRA.REPUL.0>
0

>  <SCORE.INTRA.SOLV>
0

>  <SCORE.INTRA.SOLV.lig_0>
-29.58

>  <SCORE.INTRA.VDW>
0

>  <SCORE.INTRA.VDW.0>
0

>  <SCORE.INTRA.norm>
0

>  <SCORE.RESTR>
0

>  <SCORE.RESTR.CAVITY>
0

>  <SCORE.RESTR.norm>
0

>  <SCORE.SYSTEM>
0

>  <SCORE.SYSTEM.CONST>
0

>  <SCORE.SYSTEM.DIHEDRAL>
0

>  <SCORE.SYSTEM.SOLV>
0

>  <SCORE.SYSTEM.norm>
0

>  <SCORE.heavy>
8

>  <SCORE.norm>
-0.839312

>  <RMSD>
3.171

$$$$
ligand
 OpenBabel02271912143D
libRbt.so/2013.1/901 2013/11/27
  8  8  0  0  0  0  0  0  0  0999 V2000
    9.8988   11.0813   -1.1890 C   0  0  0  0  0  0  0  0  0  0  0  0
   10.1139   12.3681   -0.9167 N   0  0  0  0  0  0  0  0  0  0  0  0
   10.4304   12.7368    0.3274 C   0  0  0  0  0  0  0  0  0  0  0  0
   10.5478   11.8074    1.3044 N   0  0  0  0  0  0  0  0  0  0  0  0
   10.3226   10.5139    1.0186 C   0  0  0  0  0  0  0  0  0  0  0  0
   10.0014   10.1450   -0.2311 N   0  0  0  0  0  0  0  0  0  0  0  0
   10.6592   14.1725    0.5942 N   0  0  0  0  0  0  0  0  0  0  0  0
    9.5815   10.7465   -2.4609 O   0  0  0  0  0  0  0  0  0  0  0  0
  1  2  1  0  0  0  0
  1  6  1  0  0  0  0
  1  8  2  0  0  0  0
  2  3  1  0  0  0  0
  3  4  2  0  0  0  0
  3  7  1  0  0  0  0
  4  5  1  0  0  0  0
  5  6  2  0  0  0  0
M  END
>  <CHROM.1>
10.18188499,11.69289615,-0.24961467,2.81367308,1.32440415,2.65524103

>  <Name>
ligand

>  <RI>
0

>  <Rbt.Current_Directory>
/home/itssahil/PROJECTS/Mol_Feturizer/Test_systems_manuscript/rnas/3la5

>  <Rbt.Executable>
rbdock ($Id: //depot/dev/client3/rdock/2013.1/src/exe/rbdock.cxx#4 $)

>  <Rbt.Library>
libRbt.so (2013.1, Build901 2013/11/27)

>  <Rbt.Parameter_File>
/export/apps/rDock/src/rDock_2013.1_src/data/scripts/dock_solv.prm

>  <Rbt.Receptor>
prm/pocket_docking_3.prm

>  <SCORE>
-6.73222

>  <SCORE.INTER>
-6.73222

>  <SCORE.INTER.CONST>
1

>  <SCORE.INTER.POLAR>
0

>  <SCORE.INTER.ROT>
0

>  <SCORE.INTER.SOLV>
8.69048

>  <SCORE.INTER.VDW>
-10.985

>  <SCORE.INTER.norm>
-0.841528

>  <SCORE.INTRA>
0

>  <SCORE.INTRA.DIHEDRAL>
0

>  <SCORE.INTRA.DIHEDRAL.0>
0

>  <SCORE.INTRA.POLAR>
0

>  <SCORE.INTRA.POLAR.0>
0

>  <SCORE.INTRA.REPUL>
0

>  <SCORE.INTRA.REPUL.0>
0

>  <SCORE.INTRA.SOLV>
0

>  <SCORE.INTRA.SOLV.lig_0>
-29.58

>  <SCORE.INTRA.VDW>
0

>  <SCORE.INTRA.VDW.0>
0

>  <SCORE.INTRA.norm>
0

>  <SCORE.RESTR>
0

>  <SCORE.RESTR.CAVITY>
0

>  <SCORE.RESTR.norm>
0

>  <SCORE.SYSTEM>
0

>  <SCORE.SYSTEM.CONST>
0

>  <SCORE.SYSTEM.DIHEDRAL>
0

>  <SCORE.SYSTEM.SOLV>
0

>  <SCORE.SYSTEM.norm>
0

>  <SCORE.heavy>
8

>  <SCORE.norm>
-0.841528

>  <RMSD>
3.172

$$$$
ligand
 OpenBabel02271912143D
libRbt.so/2013.1/901 2013/11/27
  8  8  0  0  0  0  0  0  0  0999 V2000
    9.8987   11.0794   -1.1890 C   0  0  0  0  0  0  0  0  0  0  0  0
   10.1100   12.3671   -0.9178 N   0  0  0  0  0  0  0  0  0  0  0  0
   10.4267   12.7375    0.3258 C   0  0  0  0  0  0  0  0  0  0  0  0
   10.5480   11.8091    1.3032 N   0  0  0  0  0  0  0  0  0  0  0  0
   10.3266   10.5148    1.0185 C   0  0  0  0  0  0  0  0  0  0  0  0
   10.0052   10.1440   -0.2306 N   0  0  0  0  0  0  0  0  0  0  0  0
   10.6512   14.1741    0.5914 N   0  0  0  0  0  0  0  0  0  0  0  0
    9.5810   10.7427   -2.4603 O   0  0  0  0  0  0  0  0  0  0  0  0
  1  2  1  0  0  0  0
  1  6  1  0  0  0  0
  1  8  2  0  0  0  0
  2  3  1  0  0  0  0
  3  4  2  0  0  0  0
  3  7  1  0  0  0  0
  4  5  1  0  0  0  0
  5  6  2  0  0  0  0
M  END
>  <CHROM.1>
10.18082623,11.69246712,-0.25029426,2.80018891,1.32490702,2.66766982

>  <Name>
ligand

>  <RI>
0

>  <Rbt.Current_Directory>
/home/itssahil/PROJECTS/Mol_Feturizer/Test_systems_manuscript/rnas/3la5

>  <Rbt.Executable>
rbdock ($Id: //depot/dev/client3/rdock/2013.1/src/exe/rbdock.cxx#4 $)

>  <Rbt.Library>
libRbt.so (2013.1, Build901 2013/11/27)

>  <Rbt.Parameter_File>
/export/apps/rDock/src/rDock_2013.1_src/data/scripts/dock_solv.prm

>  <Rbt.Receptor>
prm/blind_docking_100.prm

>  <SCORE>
-6.73305

>  <SCORE.INTER>
-6.73305

>  <SCORE.INTER.CONST>
1

>  <SCORE.INTER.POLAR>
0

>  <SCORE.INTER.ROT>
0

>  <SCORE.INTER.SOLV>
8.67574

>  <SCORE.INTER.VDW>
-10.9806

>  <SCORE.INTER.norm>
-0.841631

>  <SCORE.INTRA>
0

>  <SCORE.INTRA.DIHEDRAL>
0

>  <SCORE.INTRA.DIHEDRAL.0>
0

>  <SCORE.INTRA.POLAR>
0

>  <SCORE.INTRA.POLAR.0>
0

>  <SCORE.INTRA.REPUL>
0

>  <SCORE.INTRA.REPUL.0>
0

>  <SCORE.INTRA.SOLV>
0

>  <SCORE.INTRA.SOLV.lig_0>
-29.58

>  <SCORE.INTRA.VDW>
0

>  <SCORE.INTRA.VDW.0>
0

>  <SCORE.INTRA.norm>
0

>  <SCORE.RESTR>
0

>  <SCORE.RESTR.CAVITY>
0

>  <SCORE.RESTR.norm>
0

>  <SCORE.SYSTEM>
0

>  <SCORE.SYSTEM.CONST>
0

>  <SCORE.SYSTEM.DIHEDRAL>
0

>  <SCORE.SYSTEM.SOLV>
0

>  <SCORE.SYSTEM.norm>
0

>  <SCORE.heavy>
8

>  <SCORE.norm>
-0.841631

>  <RMSD>
3.173

$$$$
ligand
 OpenBabel02271912143D
libRbt.so/2013.1/901 2013/11/27
  8  8  0  0  0  0  0  0  0  0999 V2000
    9.9051   11.0808   -1.1462 C   0  0  0  0  0  0  0  0  0  0  0  0
   10.0905   12.3754   -0.8891 N   0  0  0  0  0  0  0  0  0  0  0  0
   10.4139   12.7643    0.3470 C   0  0  0  0  0  0  0  0  0  0  0  0
   10.5683   11.8480    1.3311 N   0  0  0  0  0  0  0  0  0  0  0  0
   10.3729   10.5464    1.0608 C   0  0  0  0  0  0  0  0  0  0  0  0
   10.0447   10.1570   -0.1808 N   0  0  0  0  0  0  0  0  0  0  0  0
   10.6089   14.2080    0.5970 N   0  0  0  0  0  0  0  0  0  0  0  0
    9.5797   10.7253   -2.4103 O   0  0  0  0  0  0  0  0  0  0  0  0
  1  2  1  0  0  0  0
  1  6  1  0  0  0  0
  1  8  2  0  0  0  0
  2  3  1  0  0  0  0
  3  4  2  0  0  0  0
  3  7  1  0  0  0  0
  4  5  1  0  0  0  0
  5  6  2  0  0  0  0
M  END
>  <CHROM.1>
10.18476826,11.70874624,-0.21656148,2.69457532,1.32303690,2.76100495

>  <Name>
ligand

>  <RI>
0

>  <Rbt.Current_Directory>
/home/itssahil/PROJECTS/Mol_Feturizer/Test_systems_manuscript/rnas/3la5

>  <Rbt.Executable>
rbdock ($Id: //depot/dev/client3/rdock/2013.1/src/exe/rbdock.cxx#4 $)

>  <Rbt.Library>
libRbt.so (2013.1, Build901 2013/11/27)

>  <Rbt.Parameter_File>
/export/apps/rDock/src/rDock_2013.1_src/data/scripts/dock_solv.prm

>  <Rbt.Receptor>
prm/blind_docking_20.prm

>  <SCORE>
-6.70313

>  <SCORE.INTER>
-6.70313

>  <SCORE.INTER.CONST>
1

>  <SCORE.INTER.POLAR>
0

>  <SCORE.INTER.ROT>
0

>  <SCORE.INTER.SOLV>
8.53072

>  <SCORE.INTER.VDW>
-10.9123

>  <SCORE.INTER.norm>
-0.837892

>  <SCORE.INTRA>
0

>  <SCORE.INTRA.DIHEDRAL>
0

>  <SCORE.INTRA.DIHEDRAL.0>
0

>  <SCORE.INTRA.POLAR>
0

>  <SCORE.INTRA.POLAR.0>
0

>  <SCORE.INTRA.REPUL>
0

>  <SCORE.INTRA.REPUL.0>
0

>  <SCORE.INTRA.SOLV>
0

>  <SCORE.INTRA.SOLV.lig_0>
-29.58

>  <SCORE.INTRA.VDW>
0

>  <SCORE.INTRA.VDW.0>
0

>  <SCORE.INTRA.norm>
0

>  <SCORE.RESTR>
0

>  <SCORE.RESTR.CAVITY>
0

>  <SCORE.RESTR.norm>
0

>  <SCORE.SYSTEM>
0

>  <SCORE.SYSTEM.CONST>
0

>  <SCORE.SYSTEM.DIHEDRAL>
0

>  <SCORE.SYSTEM.SOLV>
0

>  <SCORE.SYSTEM.norm>
0

>  <SCORE.heavy>
8

>  <SCORE.norm>
-0.837892

>  <RMSD>
3.173

$$$$
ligand
 OpenBabel02271912143D
libRbt.so/2013.1/901 2013/11/27
  8  8  0  0  0  0  0  0  0  0999 V2000
    9.9002   11.1041   -1.1504 C   0  0  0  0  0  0  0  0  0  0  0  0
   10.1128   12.3958   -0.9000 N   0  0  0  0  0  0  0  0  0  0  0  0
   10.4366   12.7852    0.3359 C   0  0  0  0  0  0  0  0  0  0  0  0
   10.5639   11.8718    1.3266 N   0  0  0  0  0  0  0  0  0  0  0  0
   10.3412   10.5733    1.0629 C   0  0  0  0  0  0  0  0  0  0  0  0
   10.0126   10.1835   -0.1785 N   0  0  0  0  0  0  0  0  0  0  0  0
   10.6622   14.2257    0.5783 N   0  0  0  0  0  0  0  0  0  0  0  0
    9.5752   10.7481   -2.4145 O   0  0  0  0  0  0  0  0  0  0  0  0
  1  2  1  0  0  0  0
  1  6  1  0  0  0  0
  1  8  2  0  0  0  0
  2  3  1  0  0  0  0
  3  4  2  0  0  0  0
  3  7  1  0  0  0  0
  4  5  1  0  0  0  0
  5  6  2  0  0  0  0
M  END
>  <CHROM.1>
10.18764879,11.73147922,-0.22277882,2.78850352,1.31982566,2.66377072

>  <Name>
ligand

>  <RI>
0

>  <Rbt.Current_Directory>
/home/itssahil/PROJECTS/Mol_Feturizer/Test_systems_manuscript/rnas/3la5

>  <Rbt.Executable>
rbdock ($Id: //depot/dev/client3/rdock/2013.1/src/exe/rbdock.cxx#4 $)

>  <Rbt.Library>
libRbt.so (2013.1, Build901 2013/11/27)

>  <Rbt.Parameter_File>
/export/apps/rDock/src/rDock_2013.1_src/data/scripts/dock_solv.prm

>  <Rbt.Receptor>
prm/blind_docking_20.prm

>  <SCORE>
-6.74365

>  <SCORE.INTER>
-6.74365

>  <SCORE.INTER.CONST>
1

>  <SCORE.INTER.POLAR>
0

>  <SCORE.INTER.ROT>
0

>  <SCORE.INTER.SOLV>
8.60417

>  <SCORE.INTER.VDW>
-10.9638

>  <SCORE.INTER.norm>
-0.842956

>  <SCORE.INTRA>
0

>  <SCORE.INTRA.DIHEDRAL>
0

>  <SCORE.INTRA.DIHEDRAL.0>
0

>  <SCORE.INTRA.POLAR>
0

>  <SCORE.INTRA.POLAR.0>
0

>  <SCORE.INTRA.REPUL>
0

>  <SCORE.INTRA.REPUL.0>
0

>  <SCORE.INTRA.SOLV>
0

>  <SCORE.INTRA.SOLV.lig_0>
-29.58

>  <SCORE.INTRA.VDW>
0

>  <SCORE.INTRA.VDW.0>
0

>  <SCORE.INTRA.norm>
0

>  <SCORE.RESTR>
0

>  <SCORE.RESTR.CAVITY>
0

>  <SCORE.RESTR.norm>
0

>  <SCORE.SYSTEM>
0

>  <SCORE.SYSTEM.CONST>
0

>  <SCORE.SYSTEM.DIHEDRAL>
0

>  <SCORE.SYSTEM.SOLV>
0

>  <SCORE.SYSTEM.norm>
0

>  <SCORE.heavy>
8

>  <SCORE.norm>
-0.842956

>  <RMSD>
3.173

$$$$
ligand
 OpenBabel02271912143D
libRbt.so/2013.1/901 2013/11/27
  8  8  0  0  0  0  0  0  0  0999 V2000
    9.9072   11.1013   -1.1515 C   0  0  0  0  0  0  0  0  0  0  0  0
   10.1139   12.3939   -0.9011 N   0  0  0  0  0  0  0  0  0  0  0  0
   10.4291   12.7856    0.3363 C   0  0  0  0  0  0  0  0  0  0  0  0
   10.5536   11.8736    1.3286 N   0  0  0  0  0  0  0  0  0  0  0  0
   10.3368   10.5740    1.0649 C   0  0  0  0  0  0  0  0  0  0  0  0
   10.0170   10.1820   -0.1781 N   0  0  0  0  0  0  0  0  0  0  0  0
   10.6484   14.2271    0.5786 N   0  0  0  0  0  0  0  0  0  0  0  0
    9.5910   10.7429   -2.4172 O   0  0  0  0  0  0  0  0  0  0  0  0
  1  2  1  0  0  0  0
  1  6  1  0  0  0  0
  1  8  2  0  0  0  0
  2  3  1  0  0  0  0
  3  4  2  0  0  0  0
  3  7  1  0  0  0  0
  4  5  1  0  0  0  0
  5  6  2  0  0  0  0
M  END
>  <CHROM.1>
10.18702106,11.73049670,-0.22279716,2.78736918,1.32665246,2.66390684

>  <Name>
ligand

>  <RI>
0

>  <Rbt.Current_Directory>
/home/itssahil/PROJECTS/Mol_Feturizer/Test_systems_manuscript/rnas/3la5

>  <Rbt.Executable>
rbdock ($Id: //depot/dev/client3/rdock/2013.1/src/exe/rbdock.cxx#4 $)

>  <Rbt.Library>
libRbt.so (2013.1, Build901 2013/11/27)

>  <Rbt.Parameter_File>
/export/apps/rDock/src/rDock_2013.1_src/data/scripts/dock_solv.prm

>  <Rbt.Receptor>
prm/pocket_docking_3.prm

>  <SCORE>
-6.74234

>  <SCORE.INTER>
-6.74234

>  <SCORE.INTER.CONST>
1

>  <SCORE.INTER.POLAR>
0

>  <SCORE.INTER.ROT>
0

>  <SCORE.INTER.SOLV>
8.56952

>  <SCORE.INTER.VDW>
-10.9514

>  <SCORE.INTER.norm>
-0.842792

>  <SCORE.INTRA>
0

>  <SCORE.INTRA.DIHEDRAL>
0

>  <SCORE.INTRA.DIHEDRAL.0>
0

>  <SCORE.INTRA.POLAR>
0

>  <SCORE.INTRA.POLAR.0>
0

>  <SCORE.INTRA.REPUL>
0

>  <SCORE.INTRA.REPUL.0>
0

>  <SCORE.INTRA.SOLV>
0

>  <SCORE.INTRA.SOLV.lig_0>
-29.58

>  <SCORE.INTRA.VDW>
0

>  <SCORE.INTRA.VDW.0>
0

>  <SCORE.INTRA.norm>
0

>  <SCORE.RESTR>
0

>  <SCORE.RESTR.CAVITY>
0

>  <SCORE.RESTR.norm>
0

>  <SCORE.SYSTEM>
0

>  <SCORE.SYSTEM.CONST>
0

>  <SCORE.SYSTEM.DIHEDRAL>
0

>  <SCORE.SYSTEM.SOLV>
0

>  <SCORE.SYSTEM.norm>
0

>  <SCORE.heavy>
8

>  <SCORE.norm>
-0.842792

>  <RMSD>
3.173

$$$$
ligand
 OpenBabel02271912143D
libRbt.so/2013.1/901 2013/11/27
  8  8  0  0  0  0  0  0  0  0999 V2000
    9.8928   11.1002   -1.1449 C   0  0  0  0  0  0  0  0  0  0  0  0
   10.0850   12.3943   -0.8899 N   0  0  0  0  0  0  0  0  0  0  0  0
   10.4125   12.7833    0.3451 C   0  0  0  0  0  0  0  0  0  0  0  0
   10.5642   11.8676    1.3302 N   0  0  0  0  0  0  0  0  0  0  0  0
   10.3619   10.5666    1.0620 C   0  0  0  0  0  0  0  0  0  0  0  0
   10.0296   10.1771   -0.1785 N   0  0  0  0  0  0  0  0  0  0  0  0
   10.6150   14.2264    0.5927 N   0  0  0  0  0  0  0  0  0  0  0  0
    9.5634   10.7446   -2.4080 O   0  0  0  0  0  0  0  0  0  0  0  0
  1  2  1  0  0  0  0
  1  6  1  0  0  0  0
  1  8  2  0  0  0  0
  2  3  1  0  0  0  0
  3  4  2  0  0  0  0
  3  7  1  0  0  0  0
  4  5  1  0  0  0  0
  5  6  2  0  0  0  0
M  END
>  <CHROM.1>
10.17722083,11.72808812,-0.21663095,2.71026996,1.31953376,2.74441924

>  <Name>
ligand

>  <RI>
0

>  <Rbt.Current_Directory>
/home/itssahil/PROJECTS/Mol_Feturizer/Test_systems_manuscript/rnas/3la5

>  <Rbt.Executable>
rbdock ($Id: //depot/dev/client3/rdock/2013.1/src/exe/rbdock.cxx#4 $)

>  <Rbt.Library>
libRbt.so (2013.1, Build901 2013/11/27)

>  <Rbt.Parameter_File>
/export/apps/rDock/src/rDock_2013.1_src/data/scripts/dock_solv.prm

>  <Rbt.Receptor>
prm/pocket_docking_3.prm

>  <SCORE>
-6.71276

>  <SCORE.INTER>
-6.71276

>  <SCORE.INTER.CONST>
1

>  <SCORE.INTER.POLAR>
0

>  <SCORE.INTER.ROT>
0

>  <SCORE.INTER.SOLV>
8.52824

>  <SCORE.INTER.VDW>
-10.9179

>  <SCORE.INTER.norm>
-0.839094

>  <SCORE.INTRA>
0

>  <SCORE.INTRA.DIHEDRAL>
0

>  <SCORE.INTRA.DIHEDRAL.0>
0

>  <SCORE.INTRA.POLAR>
0

>  <SCORE.INTRA.POLAR.0>
0

>  <SCORE.INTRA.REPUL>
0

>  <SCORE.INTRA.REPUL.0>
0

>  <SCORE.INTRA.SOLV>
0

>  <SCORE.INTRA.SOLV.lig_0>
-29.58

>  <SCORE.INTRA.VDW>
0

>  <SCORE.INTRA.VDW.0>
0

>  <SCORE.INTRA.norm>
0

>  <SCORE.RESTR>
0

>  <SCORE.RESTR.CAVITY>
0

>  <SCORE.RESTR.norm>
0

>  <SCORE.SYSTEM>
0

>  <SCORE.SYSTEM.CONST>
0

>  <SCORE.SYSTEM.DIHEDRAL>
0

>  <SCORE.SYSTEM.SOLV>
0

>  <SCORE.SYSTEM.norm>
0

>  <SCORE.heavy>
8

>  <SCORE.norm>
-0.839094

>  <RMSD>
3.173

$$$$
ligand
 OpenBabel02271912143D
libRbt.so/2013.1/901 2013/11/27
  8  8  0  0  0  0  0  0  0  0999 V2000
    9.8653   11.0233   -1.2200 C   0  0  0  0  0  0  0  0  0  0  0  0
   10.0272   12.3088   -0.9074 N   0  0  0  0  0  0  0  0  0  0  0  0
   10.3536   12.6493    0.3421 C   0  0  0  0  0  0  0  0  0  0  0  0
   10.5346   11.6939    1.2835 N   0  0  0  0  0  0  0  0  0  0  0  0
   10.3627   10.4018    0.9574 C   0  0  0  0  0  0  0  0  0  0  0  0
   10.0315   10.0609   -0.2976 N   0  0  0  0  0  0  0  0  0  0  0  0
   10.5221   14.0843    0.6541 N   0  0  0  0  0  0  0  0  0  0  0  0
    9.5359   10.7173   -2.4961 O   0  0  0  0  0  0  0  0  0  0  0  0
  1  2  1  0  0  0  0
  1  6  1  0  0  0  0
  1  8  2  0  0  0  0
  2  3  1  0  0  0  0
  3  4  2  0  0  0  0
  3  7  1  0  0  0  0
  4  5  1  0  0  0  0
  5  6  2  0  0  0  0
M  END
>  <CHROM.1>
10.14049456,11.61519734,-0.26579714,2.60694613,1.32139501,2.89007792

>  <Name>
ligand

>  <RI>
0

>  <Rbt.Current_Directory>
/home/itssahil/PROJECTS/Mol_Feturizer/Test_systems_manuscript/rnas/3la5

>  <Rbt.Executable>
rbdock ($Id: //depot/dev/client3/rdock/2013.1/src/exe/rbdock.cxx#4 $)

>  <Rbt.Library>
libRbt.so (2013.1, Build901 2013/11/27)

>  <Rbt.Parameter_File>
/export/apps/rDock/src/rDock_2013.1_src/data/scripts/dock_solv.prm

>  <Rbt.Receptor>
prm/blind_docking_100.prm

>  <SCORE>
-6.75405

>  <SCORE.INTER>
-6.75405

>  <SCORE.INTER.CONST>
1

>  <SCORE.INTER.POLAR>
0

>  <SCORE.INTER.ROT>
0

>  <SCORE.INTER.SOLV>
8.63791

>  <SCORE.INTER.VDW>
-10.982

>  <SCORE.INTER.norm>
-0.844256

>  <SCORE.INTRA>
0

>  <SCORE.INTRA.DIHEDRAL>
0

>  <SCORE.INTRA.DIHEDRAL.0>
0

>  <SCORE.INTRA.POLAR>
0

>  <SCORE.INTRA.POLAR.0>
0

>  <SCORE.INTRA.REPUL>
0

>  <SCORE.INTRA.REPUL.0>
0

>  <SCORE.INTRA.SOLV>
0

>  <SCORE.INTRA.SOLV.lig_0>
-29.58

>  <SCORE.INTRA.VDW>
0

>  <SCORE.INTRA.VDW.0>
0

>  <SCORE.INTRA.norm>
0

>  <SCORE.RESTR>
0

>  <SCORE.RESTR.CAVITY>
0

>  <SCORE.RESTR.norm>
0

>  <SCORE.SYSTEM>
0

>  <SCORE.SYSTEM.CONST>
0

>  <SCORE.SYSTEM.DIHEDRAL>
0

>  <SCORE.SYSTEM.SOLV>
0

>  <SCORE.SYSTEM.norm>
0

>  <SCORE.heavy>
8

>  <SCORE.norm>
-0.844256

>  <RMSD>
3.174

$$$$
ligand
 OpenBabel02271912143D
libRbt.so/2013.1/901 2013/11/27
  8  8  0  0  0  0  0  0  0  0999 V2000
    9.8908   11.0847   -1.1870 C   0  0  0  0  0  0  0  0  0  0  0  0
   10.1145   12.3710   -0.9195 N   0  0  0  0  0  0  0  0  0  0  0  0
   10.4246   12.7433    0.3252 C   0  0  0  0  0  0  0  0  0  0  0  0
   10.5269   11.8179    1.3076 N   0  0  0  0  0  0  0  0  0  0  0  0
   10.2931   10.5250    1.0266 C   0  0  0  0  0  0  0  0  0  0  0  0
    9.9784   10.1524   -0.2237 N   0  0  0  0  0  0  0  0  0  0  0  0
   10.6632   14.1784    0.5865 N   0  0  0  0  0  0  0  0  0  0  0  0
    9.5803   10.7460   -2.4596 O   0  0  0  0  0  0  0  0  0  0  0  0
  1  2  1  0  0  0  0
  1  6  1  0  0  0  0
  1  8  2  0  0  0  0
  2  3  1  0  0  0  0
  3  4  2  0  0  0  0
  3  7  1  0  0  0  0
  4  5  1  0  0  0  0
  5  6  2  0  0  0  0
M  END
>  <CHROM.1>
10.17177839,11.69863344,-0.24853722,2.85865630,1.32698306,2.60657770

>  <Name>
ligand

>  <RI>
0

>  <Rbt.Current_Directory>
/home/itssahil/PROJECTS/Mol_Feturizer/Test_systems_manuscript/rnas/3la5

>  <Rbt.Executable>
rbdock ($Id: //depot/dev/client3/rdock/2013.1/src/exe/rbdock.cxx#4 $)

>  <Rbt.Library>
libRbt.so (2013.1, Build901 2013/11/27)

>  <Rbt.Parameter_File>
/export/apps/rDock/src/rDock_2013.1_src/data/scripts/dock_solv.prm

>  <Rbt.Receptor>
prm/blind_docking_20.prm

>  <SCORE>
-6.73171

>  <SCORE.INTER>
-6.73171

>  <SCORE.INTER.CONST>
1

>  <SCORE.INTER.POLAR>
0

>  <SCORE.INTER.ROT>
0

>  <SCORE.INTER.SOLV>
8.68567

>  <SCORE.INTER.VDW>
-10.983

>  <SCORE.INTER.norm>
-0.841463

>  <SCORE.INTRA>
0

>  <SCORE.INTRA.DIHEDRAL>
0

>  <SCORE.INTRA.DIHEDRAL.0>
0

>  <SCORE.INTRA.POLAR>
0

>  <SCORE.INTRA.POLAR.0>
0

>  <SCORE.INTRA.REPUL>
0

>  <SCORE.INTRA.REPUL.0>
0

>  <SCORE.INTRA.SOLV>
0

>  <SCORE.INTRA.SOLV.lig_0>
-29.58

>  <SCORE.INTRA.VDW>
0

>  <SCORE.INTRA.VDW.0>
0

>  <SCORE.INTRA.norm>
0

>  <SCORE.RESTR>
0

>  <SCORE.RESTR.CAVITY>
0

>  <SCORE.RESTR.norm>
0

>  <SCORE.SYSTEM>
0

>  <SCORE.SYSTEM.CONST>
0

>  <SCORE.SYSTEM.DIHEDRAL>
0

>  <SCORE.SYSTEM.SOLV>
0

>  <SCORE.SYSTEM.norm>
0

>  <SCORE.heavy>
8

>  <SCORE.norm>
-0.841463

>  <RMSD>
3.174

$$$$
ligand
 OpenBabel02271912143D
libRbt.so/2013.1/901 2013/11/27
  8  8  0  0  0  0  0  0  0  0999 V2000
    9.8906   11.1026   -1.1494 C   0  0  0  0  0  0  0  0  0  0  0  0
   10.0850   12.3964   -0.8951 N   0  0  0  0  0  0  0  0  0  0  0  0
   10.4048   12.7864    0.3416 C   0  0  0  0  0  0  0  0  0  0  0  0
   10.5465   11.8718    1.3292 N   0  0  0  0  0  0  0  0  0  0  0  0
   10.3420   10.5710    1.0617 C   0  0  0  0  0  0  0  0  0  0  0  0
   10.0174   10.1806   -0.1806 N   0  0  0  0  0  0  0  0  0  0  0  0
   10.6101   14.2292    0.5883 N   0  0  0  0  0  0  0  0  0  0  0  0
    9.5691   10.7460   -2.4143 O   0  0  0  0  0  0  0  0  0  0  0  0
  1  2  1  0  0  0  0
  1  6  1  0  0  0  0
  1  8  2  0  0  0  0
  2  3  1  0  0  0  0
  3  4  2  0  0  0  0
  3  7  1  0  0  0  0
  4  5  1  0  0  0  0
  5  6  2  0  0  0  0
M  END
>  <CHROM.1>
10.17025148,11.73103709,-0.22013740,2.73381787,1.32490170,2.71997345

>  <Name>
ligand

>  <RI>
0

>  <Rbt.Current_Directory>
/home/itssahil/PROJECTS/Mol_Feturizer/Test_systems_manuscript/rnas/3la5

>  <Rbt.Executable>
rbdock ($Id: //depot/dev/client3/rdock/2013.1/src/exe/rbdock.cxx#4 $)

>  <Rbt.Library>
libRbt.so (2013.1, Build901 2013/11/27)

>  <Rbt.Parameter_File>
/export/apps/rDock/src/rDock_2013.1_src/data/scripts/dock_solv.prm

>  <Rbt.Receptor>
prm/blind_docking_80.prm

>  <SCORE>
-6.71585

>  <SCORE.INTER>
-6.71585

>  <SCORE.INTER.CONST>
1

>  <SCORE.INTER.POLAR>
0

>  <SCORE.INTER.ROT>
0

>  <SCORE.INTER.SOLV>
8.51576

>  <SCORE.INTER.VDW>
-10.9158

>  <SCORE.INTER.norm>
-0.839481

>  <SCORE.INTRA>
0

>  <SCORE.INTRA.DIHEDRAL>
0

>  <SCORE.INTRA.DIHEDRAL.0>
0

>  <SCORE.INTRA.POLAR>
0

>  <SCORE.INTRA.POLAR.0>
0

>  <SCORE.INTRA.REPUL>
0

>  <SCORE.INTRA.REPUL.0>
0

>  <SCORE.INTRA.SOLV>
0

>  <SCORE.INTRA.SOLV.lig_0>
-29.58

>  <SCORE.INTRA.VDW>
0

>  <SCORE.INTRA.VDW.0>
0

>  <SCORE.INTRA.norm>
0

>  <SCORE.RESTR>
0

>  <SCORE.RESTR.CAVITY>
0

>  <SCORE.RESTR.norm>
0

>  <SCORE.SYSTEM>
0

>  <SCORE.SYSTEM.CONST>
0

>  <SCORE.SYSTEM.DIHEDRAL>
0

>  <SCORE.SYSTEM.SOLV>
0

>  <SCORE.SYSTEM.norm>
0

>  <SCORE.heavy>
8

>  <SCORE.norm>
-0.839481

>  <RMSD>
3.174

$$$$
ligand
 OpenBabel02271912143D
libRbt.so/2013.1/901 2013/11/27
  8  8  0  0  0  0  0  0  0  0999 V2000
    9.8597   11.0264   -1.2322 C   0  0  0  0  0  0  0  0  0  0  0  0
   10.0272   12.3104   -0.9164 N   0  0  0  0  0  0  0  0  0  0  0  0
   10.3462   12.6471    0.3362 C   0  0  0  0  0  0  0  0  0  0  0  0
   10.5142   11.6891    1.2774 N   0  0  0  0  0  0  0  0  0  0  0  0
   10.3368   10.3986    0.9480 C   0  0  0  0  0  0  0  0  0  0  0  0
   10.0130   10.0616   -0.3100 N   0  0  0  0  0  0  0  0  0  0  0  0
   10.5212   14.0805    0.6516 N   0  0  0  0  0  0  0  0  0  0  0  0
    9.5382   10.7245   -2.5112 O   0  0  0  0  0  0  0  0  0  0  0  0
  1  2  1  0  0  0  0
  1  6  1  0  0  0  0
  1  8  2  0  0  0  0
  2  3  1  0  0  0  0
  3  4  2  0  0  0  0
  3  7  1  0  0  0  0
  4  5  1  0  0  0  0
  5  6  2  0  0  0  0
M  END
>  <CHROM.1>
10.13134519,11.61521158,-0.27496081,2.63950632,1.32708550,2.86004287

>  <Name>
ligand

>  <RI>
0

>  <Rbt.Current_Directory>
/home/itssahil/PROJECTS/Mol_Feturizer/Test_systems_manuscript/rnas/3la5

>  <Rbt.Executable>
rbdock ($Id: //depot/dev/client3/rdock/2013.1/src/exe/rbdock.cxx#4 $)

>  <Rbt.Library>
libRbt.so (2013.1, Build901 2013/11/27)

>  <Rbt.Parameter_File>
/export/apps/rDock/src/rDock_2013.1_src/data/scripts/dock_solv.prm

>  <Rbt.Receptor>
prm/pocket_docking_3.prm

>  <SCORE>
-6.75624

>  <SCORE.INTER>
-6.75624

>  <SCORE.INTER.CONST>
1

>  <SCORE.INTER.POLAR>
0

>  <SCORE.INTER.ROT>
0

>  <SCORE.INTER.SOLV>
8.64491

>  <SCORE.INTER.VDW>
-10.9858

>  <SCORE.INTER.norm>
-0.84453

>  <SCORE.INTRA>
0

>  <SCORE.INTRA.DIHEDRAL>
0

>  <SCORE.INTRA.DIHEDRAL.0>
0

>  <SCORE.INTRA.POLAR>
0

>  <SCORE.INTRA.POLAR.0>
0

>  <SCORE.INTRA.REPUL>
0

>  <SCORE.INTRA.REPUL.0>
0

>  <SCORE.INTRA.SOLV>
0

>  <SCORE.INTRA.SOLV.lig_0>
-29.58

>  <SCORE.INTRA.VDW>
0

>  <SCORE.INTRA.VDW.0>
0

>  <SCORE.INTRA.norm>
0

>  <SCORE.RESTR>
0

>  <SCORE.RESTR.CAVITY>
0

>  <SCORE.RESTR.norm>
0

>  <SCORE.SYSTEM>
0

>  <SCORE.SYSTEM.CONST>
0

>  <SCORE.SYSTEM.DIHEDRAL>
0

>  <SCORE.SYSTEM.SOLV>
0

>  <SCORE.SYSTEM.norm>
0

>  <SCORE.heavy>
8

>  <SCORE.norm>
-0.84453

>  <RMSD>
3.174

$$$$
ligand
 OpenBabel02271912143D
libRbt.so/2013.1/901 2013/11/27
  8  8  0  0  0  0  0  0  0  0999 V2000
    9.8629   11.0373   -1.1899 C   0  0  0  0  0  0  0  0  0  0  0  0
   10.0324   12.3252   -0.8916 N   0  0  0  0  0  0  0  0  0  0  0  0
   10.3951   12.6753    0.3452 C   0  0  0  0  0  0  0  0  0  0  0  0
   10.6051   11.7269    1.2878 N   0  0  0  0  0  0  0  0  0  0  0  0
   10.4251   10.4323    0.9765 C   0  0  0  0  0  0  0  0  0  0  0  0
   10.0575   10.0818   -0.2657 N   0  0  0  0  0  0  0  0  0  0  0  0
   10.5710   14.1126    0.6415 N   0  0  0  0  0  0  0  0  0  0  0  0
    9.4964   10.7216   -2.4534 O   0  0  0  0  0  0  0  0  0  0  0  0
  1  2  1  0  0  0  0
  1  6  1  0  0  0  0
  1  8  2  0  0  0  0
  2  3  1  0  0  0  0
  3  4  2  0  0  0  0
  3  7  1  0  0  0  0
  4  5  1  0  0  0  0
  5  6  2  0  0  0  0
M  END
>  <CHROM.1>
10.16545653,11.63647577,-0.24852815,2.57580082,1.29297988,2.91280147

>  <Name>
ligand

>  <RI>
0

>  <Rbt.Current_Directory>
/home/itssahil/PROJECTS/Mol_Feturizer/Test_systems_manuscript/rnas/3la5

>  <Rbt.Executable>
rbdock ($Id: //depot/dev/client3/rdock/2013.1/src/exe/rbdock.cxx#4 $)

>  <Rbt.Library>
libRbt.so (2013.1, Build901 2013/11/27)

>  <Rbt.Parameter_File>
/export/apps/rDock/src/rDock_2013.1_src/data/scripts/dock_solv.prm

>  <Rbt.Receptor>
prm/pocket_docking_5.prm

>  <SCORE>
-6.7173

>  <SCORE.INTER>
-6.7173

>  <SCORE.INTER.CONST>
1

>  <SCORE.INTER.POLAR>
0

>  <SCORE.INTER.ROT>
0

>  <SCORE.INTER.SOLV>
8.68337

>  <SCORE.INTER.VDW>
-10.9727

>  <SCORE.INTER.norm>
-0.839663

>  <SCORE.INTRA>
0

>  <SCORE.INTRA.DIHEDRAL>
0

>  <SCORE.INTRA.DIHEDRAL.0>
0

>  <SCORE.INTRA.POLAR>
0

>  <SCORE.INTRA.POLAR.0>
0

>  <SCORE.INTRA.REPUL>
0

>  <SCORE.INTRA.REPUL.0>
0

>  <SCORE.INTRA.SOLV>
0

>  <SCORE.INTRA.SOLV.lig_0>
-29.58

>  <SCORE.INTRA.VDW>
0

>  <SCORE.INTRA.VDW.0>
0

>  <SCORE.INTRA.norm>
0

>  <SCORE.RESTR>
0

>  <SCORE.RESTR.CAVITY>
0

>  <SCORE.RESTR.norm>
0

>  <SCORE.SYSTEM>
0

>  <SCORE.SYSTEM.CONST>
0

>  <SCORE.SYSTEM.DIHEDRAL>
0

>  <SCORE.SYSTEM.SOLV>
0

>  <SCORE.SYSTEM.norm>
0

>  <SCORE.heavy>
8

>  <SCORE.norm>
-0.839663

>  <RMSD>
3.174

$$$$
ligand
 OpenBabel02271912143D
libRbt.so/2013.1/901 2013/11/27
  8  8  0  0  0  0  0  0  0  0999 V2000
    9.8518   11.0268   -1.2345 C   0  0  0  0  0  0  0  0  0  0  0  0
   10.0226   12.3100   -0.9173 N   0  0  0  0  0  0  0  0  0  0  0  0
   10.3483   12.6440    0.3342 C   0  0  0  0  0  0  0  0  0  0  0  0
   10.5198   11.6840    1.2729 N   0  0  0  0  0  0  0  0  0  0  0  0
   10.3390   10.3943    0.9421 C   0  0  0  0  0  0  0  0  0  0  0  0
   10.0085   10.0601   -0.3149 N   0  0  0  0  0  0  0  0  0  0  0  0
   10.5268   14.0765    0.6514 N   0  0  0  0  0  0  0  0  0  0  0  0
    9.5235   10.7275   -2.5124 O   0  0  0  0  0  0  0  0  0  0  0  0
  1  2  1  0  0  0  0
  1  6  1  0  0  0  0
  1  8  2  0  0  0  0
  2  3  1  0  0  0  0
  3  4  2  0  0  0  0
  3  7  1  0  0  0  0
  4  5  1  0  0  0  0
  5  6  2  0  0  0  0
M  END
>  <CHROM.1>
10.12903863,11.61344933,-0.27763678,2.63904062,1.32189730,2.86229327

>  <Name>
ligand

>  <RI>
0

>  <Rbt.Current_Directory>
/home/itssahil/PROJECTS/Mol_Feturizer/Test_systems_manuscript/rnas/3la5

>  <Rbt.Executable>
rbdock ($Id: //depot/dev/client3/rdock/2013.1/src/exe/rbdock.cxx#4 $)

>  <Rbt.Library>
libRbt.so (2013.1, Build901 2013/11/27)

>  <Rbt.Parameter_File>
/export/apps/rDock/src/rDock_2013.1_src/data/scripts/dock_solv.prm

>  <Rbt.Receptor>
prm/blind_docking_20.prm

>  <SCORE>
-6.75544

>  <SCORE.INTER>
-6.75544

>  <SCORE.INTER.CONST>
1

>  <SCORE.INTER.POLAR>
0

>  <SCORE.INTER.ROT>
0

>  <SCORE.INTER.SOLV>
8.66243

>  <SCORE.INTER.VDW>
-10.9911

>  <SCORE.INTER.norm>
-0.84443

>  <SCORE.INTRA>
0

>  <SCORE.INTRA.DIHEDRAL>
0

>  <SCORE.INTRA.DIHEDRAL.0>
0

>  <SCORE.INTRA.POLAR>
0

>  <SCORE.INTRA.POLAR.0>
0

>  <SCORE.INTRA.REPUL>
0

>  <SCORE.INTRA.REPUL.0>
0

>  <SCORE.INTRA.SOLV>
0

>  <SCORE.INTRA.SOLV.lig_0>
-29.58

>  <SCORE.INTRA.VDW>
0

>  <SCORE.INTRA.VDW.0>
0

>  <SCORE.INTRA.norm>
0

>  <SCORE.RESTR>
0

>  <SCORE.RESTR.CAVITY>
0

>  <SCORE.RESTR.norm>
0

>  <SCORE.SYSTEM>
0

>  <SCORE.SYSTEM.CONST>
0

>  <SCORE.SYSTEM.DIHEDRAL>
0

>  <SCORE.SYSTEM.SOLV>
0

>  <SCORE.SYSTEM.norm>
0

>  <SCORE.heavy>
8

>  <SCORE.norm>
-0.84443

>  <RMSD>
3.175

$$$$
ligand
 OpenBabel02271912143D
libRbt.so/2013.1/901 2013/11/27
  8  8  0  0  0  0  0  0  0  0999 V2000
    9.8995   11.0829   -1.1854 C   0  0  0  0  0  0  0  0  0  0  0  0
   10.1057   12.3726   -0.9196 N   0  0  0  0  0  0  0  0  0  0  0  0
   10.4026   12.7517    0.3263 C   0  0  0  0  0  0  0  0  0  0  0  0
   10.5092   11.8300    1.3117 N   0  0  0  0  0  0  0  0  0  0  0  0
   10.2932   10.5336    1.0323 C   0  0  0  0  0  0  0  0  0  0  0  0
    9.9917   10.1542   -0.2191 N   0  0  0  0  0  0  0  0  0  0  0  0
   10.6218   14.1902    0.5857 N   0  0  0  0  0  0  0  0  0  0  0  0
    9.6021   10.7375   -2.4592 O   0  0  0  0  0  0  0  0  0  0  0  0
  1  2  1  0  0  0  0
  1  6  1  0  0  0  0
  1  8  2  0  0  0  0
  2  3  1  0  0  0  0
  3  4  2  0  0  0  0
  3  7  1  0  0  0  0
  4  5  1  0  0  0  0
  5  6  2  0  0  0  0
M  END
>  <CHROM.1>
10.16647274,11.70258264,-0.24652611,2.82858868,1.33909582,2.63333025

>  <Name>
ligand

>  <RI>
0

>  <Rbt.Current_Directory>
/home/itssahil/PROJECTS/Mol_Feturizer/Test_systems_manuscript/rnas/3la5

>  <Rbt.Executable>
rbdock ($Id: //depot/dev/client3/rdock/2013.1/src/exe/rbdock.cxx#4 $)

>  <Rbt.Library>
libRbt.so (2013.1, Build901 2013/11/27)

>  <Rbt.Parameter_File>
/export/apps/rDock/src/rDock_2013.1_src/data/scripts/dock_solv.prm

>  <Rbt.Receptor>
prm/blind_docking_60.prm

>  <SCORE>
-6.73443

>  <SCORE.INTER>
-6.73443

>  <SCORE.INTER.CONST>
1

>  <SCORE.INTER.POLAR>
0

>  <SCORE.INTER.ROT>
0

>  <SCORE.INTER.SOLV>
8.58808

>  <SCORE.INTER.VDW>
-10.9523

>  <SCORE.INTER.norm>
-0.841804

>  <SCORE.INTRA>
0

>  <SCORE.INTRA.DIHEDRAL>
0

>  <SCORE.INTRA.DIHEDRAL.0>
0

>  <SCORE.INTRA.POLAR>
0

>  <SCORE.INTRA.POLAR.0>
0

>  <SCORE.INTRA.REPUL>
0

>  <SCORE.INTRA.REPUL.0>
0

>  <SCORE.INTRA.SOLV>
0

>  <SCORE.INTRA.SOLV.lig_0>
-29.58

>  <SCORE.INTRA.VDW>
0

>  <SCORE.INTRA.VDW.0>
0

>  <SCORE.INTRA.norm>
0

>  <SCORE.RESTR>
0

>  <SCORE.RESTR.CAVITY>
0

>  <SCORE.RESTR.norm>
0

>  <SCORE.SYSTEM>
0

>  <SCORE.SYSTEM.CONST>
0

>  <SCORE.SYSTEM.DIHEDRAL>
0

>  <SCORE.SYSTEM.SOLV>
0

>  <SCORE.SYSTEM.norm>
0

>  <SCORE.heavy>
8

>  <SCORE.norm>
-0.841804

>  <RMSD>
3.175

$$$$
ligand
 OpenBabel02271912143D
libRbt.so/2013.1/901 2013/11/27
  8  8  0  0  0  0  0  0  0  0999 V2000
    9.8568   11.0242   -1.2349 C   0  0  0  0  0  0  0  0  0  0  0  0
   10.0254   12.3076   -0.9172 N   0  0  0  0  0  0  0  0  0  0  0  0
   10.3513   12.6417    0.3342 C   0  0  0  0  0  0  0  0  0  0  0  0
   10.5251   11.6817    1.2724 N   0  0  0  0  0  0  0  0  0  0  0  0
   10.3465   10.3918    0.9412 C   0  0  0  0  0  0  0  0  0  0  0  0
   10.0158   10.0574   -0.3157 N   0  0  0  0  0  0  0  0  0  0  0  0
   10.5273   14.0744    0.6518 N   0  0  0  0  0  0  0  0  0  0  0  0
    9.5282   10.7248   -2.5127 O   0  0  0  0  0  0  0  0  0  0  0  0
  1  2  1  0  0  0  0
  1  6  1  0  0  0  0
  1  8  2  0  0  0  0
  2  3  1  0  0  0  0
  3  4  2  0  0  0  0
  3  7  1  0  0  0  0
  4  5  1  0  0  0  0
  5  6  2  0  0  0  0
M  END
>  <CHROM.1>
10.13354005,11.61098904,-0.27792329,2.63108906,1.32180403,2.87038097

>  <Name>
ligand

>  <RI>
0

>  <Rbt.Current_Directory>
/home/itssahil/PROJECTS/Mol_Feturizer/Test_systems_manuscript/rnas/3la5

>  <Rbt.Executable>
rbdock ($Id: //depot/dev/client3/rdock/2013.1/src/exe/rbdock.cxx#4 $)

>  <Rbt.Library>
libRbt.so (2013.1, Build901 2013/11/27)

>  <Rbt.Parameter_File>
/export/apps/rDock/src/rDock_2013.1_src/data/scripts/dock_solv.prm

>  <Rbt.Receptor>
prm/pocket_docking_3.prm

>  <SCORE>
-6.75554

>  <SCORE.INTER>
-6.75554

>  <SCORE.INTER.CONST>
1

>  <SCORE.INTER.POLAR>
0

>  <SCORE.INTER.ROT>
0

>  <SCORE.INTER.SOLV>
8.66272

>  <SCORE.INTER.VDW>
-10.9913

>  <SCORE.INTER.norm>
-0.844442

>  <SCORE.INTRA>
0

>  <SCORE.INTRA.DIHEDRAL>
0

>  <SCORE.INTRA.DIHEDRAL.0>
0

>  <SCORE.INTRA.POLAR>
0

>  <SCORE.INTRA.POLAR.0>
0

>  <SCORE.INTRA.REPUL>
0

>  <SCORE.INTRA.REPUL.0>
0

>  <SCORE.INTRA.SOLV>
0

>  <SCORE.INTRA.SOLV.lig_0>
-29.58

>  <SCORE.INTRA.VDW>
0

>  <SCORE.INTRA.VDW.0>
0

>  <SCORE.INTRA.norm>
0

>  <SCORE.RESTR>
0

>  <SCORE.RESTR.CAVITY>
0

>  <SCORE.RESTR.norm>
0

>  <SCORE.SYSTEM>
0

>  <SCORE.SYSTEM.CONST>
0

>  <SCORE.SYSTEM.DIHEDRAL>
0

>  <SCORE.SYSTEM.SOLV>
0

>  <SCORE.SYSTEM.norm>
0

>  <SCORE.heavy>
8

>  <SCORE.norm>
-0.844442

>  <RMSD>
3.175

$$$$
ligand
 OpenBabel02271912143D
libRbt.so/2013.1/901 2013/11/27
  8  8  0  0  0  0  0  0  0  0999 V2000
    9.8535   11.0241   -1.2441 C   0  0  0  0  0  0  0  0  0  0  0  0
   10.0250   12.3063   -0.9233 N   0  0  0  0  0  0  0  0  0  0  0  0
   10.3490   12.6369    0.3295 C   0  0  0  0  0  0  0  0  0  0  0  0
   10.5180   11.6745    1.2661 N   0  0  0  0  0  0  0  0  0  0  0  0
   10.3365   10.3858    0.9318 C   0  0  0  0  0  0  0  0  0  0  0  0
   10.0077   10.0550   -0.3266 N   0  0  0  0  0  0  0  0  0  0  0  0
   10.5284   14.0685    0.6505 N   0  0  0  0  0  0  0  0  0  0  0  0
    9.5269   10.7283   -2.5233 O   0  0  0  0  0  0  0  0  0  0  0  0
  1  2  1  0  0  0  0
  1  6  1  0  0  0  0
  1  8  2  0  0  0  0
  2  3  1  0  0  0  0
  3  4  2  0  0  0  0
  3  7  1  0  0  0  0
  4  5  1  0  0  0  0
  5  6  2  0  0  0  0
M  END
>  <CHROM.1>
10.12974574,11.60811515,-0.28527672,2.64479955,1.32319157,2.85918704

>  <Name>
ligand

>  <RI>
0

>  <Rbt.Current_Directory>
/home/itssahil/PROJECTS/Mol_Feturizer/Test_systems_manuscript/rnas/3la5

>  <Rbt.Executable>
rbdock ($Id: //depot/dev/client3/rdock/2013.1/src/exe/rbdock.cxx#4 $)

>  <Rbt.Library>
libRbt.so (2013.1, Build901 2013/11/27)

>  <Rbt.Parameter_File>
/export/apps/rDock/src/rDock_2013.1_src/data/scripts/dock_solv.prm

>  <Rbt.Receptor>
prm/pocket_docking_3.prm

>  <SCORE>
-6.75507

>  <SCORE.INTER>
-6.75507

>  <SCORE.INTER.CONST>
1

>  <SCORE.INTER.POLAR>
0

>  <SCORE.INTER.ROT>
0

>  <SCORE.INTER.SOLV>
8.67352

>  <SCORE.INTER.VDW>
-10.9946

>  <SCORE.INTER.norm>
-0.844384

>  <SCORE.INTRA>
0

>  <SCORE.INTRA.DIHEDRAL>
0

>  <SCORE.INTRA.DIHEDRAL.0>
0

>  <SCORE.INTRA.POLAR>
0

>  <SCORE.INTRA.POLAR.0>
0

>  <SCORE.INTRA.REPUL>
0

>  <SCORE.INTRA.REPUL.0>
0

>  <SCORE.INTRA.SOLV>
0

>  <SCORE.INTRA.SOLV.lig_0>
-29.58

>  <SCORE.INTRA.VDW>
0

>  <SCORE.INTRA.VDW.0>
0

>  <SCORE.INTRA.norm>
0

>  <SCORE.RESTR>
0

>  <SCORE.RESTR.CAVITY>
0

>  <SCORE.RESTR.norm>
0

>  <SCORE.SYSTEM>
0

>  <SCORE.SYSTEM.CONST>
0

>  <SCORE.SYSTEM.DIHEDRAL>
0

>  <SCORE.SYSTEM.SOLV>
0

>  <SCORE.SYSTEM.norm>
0

>  <SCORE.heavy>
8

>  <SCORE.norm>
-0.844384

>  <RMSD>
3.176

$$$$
ligand
 OpenBabel02271912143D
libRbt.so/2013.1/901 2013/11/27
  8  8  0  0  0  0  0  0  0  0999 V2000
    9.8853   11.0784   -1.1934 C   0  0  0  0  0  0  0  0  0  0  0  0
   10.1086   12.3642   -0.9227 N   0  0  0  0  0  0  0  0  0  0  0  0
   10.4267   12.7325    0.3211 C   0  0  0  0  0  0  0  0  0  0  0  0
   10.5374   11.8036    1.2994 N   0  0  0  0  0  0  0  0  0  0  0  0
   10.3040   10.5113    1.0152 C   0  0  0  0  0  0  0  0  0  0  0  0
    9.9812   10.1428   -0.2342 N   0  0  0  0  0  0  0  0  0  0  0  0
   10.6646   14.1670    0.5861 N   0  0  0  0  0  0  0  0  0  0  0  0
    9.5667   10.7440   -2.4651 O   0  0  0  0  0  0  0  0  0  0  0  0
  1  2  1  0  0  0  0
  1  6  1  0  0  0  0
  1  8  2  0  0  0  0
  2  3  1  0  0  0  0
  3  4  2  0  0  0  0
  3  7  1  0  0  0  0
  4  5  1  0  0  0  0
  5  6  2  0  0  0  0
M  END
>  <CHROM.1>
10.17174400,11.68945029,-0.25466342,2.83828016,1.32187706,2.63003528

>  <Name>
ligand

>  <RI>
0

>  <Rbt.Current_Directory>
/home/itssahil/PROJECTS/Mol_Feturizer/Test_systems_manuscript/rnas/3la5

>  <Rbt.Executable>
rbdock ($Id: //depot/dev/client3/rdock/2013.1/src/exe/rbdock.cxx#4 $)

>  <Rbt.Library>
libRbt.so (2013.1, Build901 2013/11/27)

>  <Rbt.Parameter_File>
/export/apps/rDock/src/rDock_2013.1_src/data/scripts/dock_solv.prm

>  <Rbt.Receptor>
prm/pocket_docking_4.prm

>  <SCORE>
-6.7315

>  <SCORE.INTER>
-6.7315

>  <SCORE.INTER.CONST>
1

>  <SCORE.INTER.POLAR>
0

>  <SCORE.INTER.ROT>
0

>  <SCORE.INTER.SOLV>
8.7159

>  <SCORE.INTER.VDW>
-10.993

>  <SCORE.INTER.norm>
-0.841437

>  <SCORE.INTRA>
0

>  <SCORE.INTRA.DIHEDRAL>
0

>  <SCORE.INTRA.DIHEDRAL.0>
0

>  <SCORE.INTRA.POLAR>
0

>  <SCORE.INTRA.POLAR.0>
0

>  <SCORE.INTRA.REPUL>
0

>  <SCORE.INTRA.REPUL.0>
0

>  <SCORE.INTRA.SOLV>
0

>  <SCORE.INTRA.SOLV.lig_0>
-29.58

>  <SCORE.INTRA.VDW>
0

>  <SCORE.INTRA.VDW.0>
0

>  <SCORE.INTRA.norm>
0

>  <SCORE.RESTR>
0

>  <SCORE.RESTR.CAVITY>
0

>  <SCORE.RESTR.norm>
0

>  <SCORE.SYSTEM>
0

>  <SCORE.SYSTEM.CONST>
0

>  <SCORE.SYSTEM.DIHEDRAL>
0

>  <SCORE.SYSTEM.SOLV>
0

>  <SCORE.SYSTEM.norm>
0

>  <SCORE.heavy>
8

>  <SCORE.norm>
-0.841437

>  <RMSD>
3.176

$$$$
ligand
 OpenBabel02271912143D
libRbt.so/2013.1/901 2013/11/27
  8  8  0  0  0  0  0  0  0  0999 V2000
    9.8849   11.0850   -1.1839 C   0  0  0  0  0  0  0  0  0  0  0  0
   10.1047   12.3724   -0.9180 N   0  0  0  0  0  0  0  0  0  0  0  0
   10.4215   12.7462    0.3245 C   0  0  0  0  0  0  0  0  0  0  0  0
   10.5344   11.8214    1.3063 N   0  0  0  0  0  0  0  0  0  0  0  0
   10.3045   10.5273    1.0270 C   0  0  0  0  0  0  0  0  0  0  0  0
    9.9830   10.1533   -0.2211 N   0  0  0  0  0  0  0  0  0  0  0  0
   10.6555   14.1823    0.5842 N   0  0  0  0  0  0  0  0  0  0  0  0
    9.5675   10.7449   -2.4543 O   0  0  0  0  0  0  0  0  0  0  0  0
  1  2  1  0  0  0  0
  1  6  1  0  0  0  0
  1  8  2  0  0  0  0
  2  3  1  0  0  0  0
  3  4  2  0  0  0  0
  3  7  1  0  0  0  0
  4  5  1  0  0  0  0
  5  6  2  0  0  0  0
M  END
>  <CHROM.1>
10.16946704,11.70033774,-0.24738448,2.82939763,1.32338675,2.63486462

>  <Name>
ligand

>  <RI>
0

>  <Rbt.Current_Directory>
/home/itssahil/PROJECTS/Mol_Feturizer/Test_systems_manuscript/rnas/3la5

>  <Rbt.Executable>
rbdock ($Id: //depot/dev/client3/rdock/2013.1/src/exe/rbdock.cxx#4 $)

>  <Rbt.Library>
libRbt.so (2013.1, Build901 2013/11/27)

>  <Rbt.Parameter_File>
/export/apps/rDock/src/rDock_2013.1_src/data/scripts/dock_solv.prm

>  <Rbt.Receptor>
prm/pocket_docking_7.prm

>  <SCORE>
-6.73472

>  <SCORE.INTER>
-6.73472

>  <SCORE.INTER.CONST>
1

>  <SCORE.INTER.POLAR>
0

>  <SCORE.INTER.ROT>
0

>  <SCORE.INTER.SOLV>
8.67544

>  <SCORE.INTER.VDW>
-10.9816

>  <SCORE.INTER.norm>
-0.84184

>  <SCORE.INTRA>
0

>  <SCORE.INTRA.DIHEDRAL>
0

>  <SCORE.INTRA.DIHEDRAL.0>
0

>  <SCORE.INTRA.POLAR>
0

>  <SCORE.INTRA.POLAR.0>
0

>  <SCORE.INTRA.REPUL>
0

>  <SCORE.INTRA.REPUL.0>
0

>  <SCORE.INTRA.SOLV>
0

>  <SCORE.INTRA.SOLV.lig_0>
-29.58

>  <SCORE.INTRA.VDW>
0

>  <SCORE.INTRA.VDW.0>
0

>  <SCORE.INTRA.norm>
0

>  <SCORE.RESTR>
0

>  <SCORE.RESTR.CAVITY>
0

>  <SCORE.RESTR.norm>
0

>  <SCORE.SYSTEM>
0

>  <SCORE.SYSTEM.CONST>
0

>  <SCORE.SYSTEM.DIHEDRAL>
0

>  <SCORE.SYSTEM.SOLV>
0

>  <SCORE.SYSTEM.norm>
0

>  <SCORE.heavy>
8

>  <SCORE.norm>
-0.84184

>  <RMSD>
3.176

$$$$
ligand
 OpenBabel02271912143D
libRbt.so/2013.1/901 2013/11/27
  8  8  0  0  0  0  0  0  0  0999 V2000
    9.8892   11.0938   -1.1492 C   0  0  0  0  0  0  0  0  0  0  0  0
   10.0854   12.3880   -0.8982 N   0  0  0  0  0  0  0  0  0  0  0  0
   10.4087   12.7804    0.3369 C   0  0  0  0  0  0  0  0  0  0  0  0
   10.5520   11.8678    1.3261 N   0  0  0  0  0  0  0  0  0  0  0  0
   10.3458   10.5667    1.0619 C   0  0  0  0  0  0  0  0  0  0  0  0
   10.0177   10.1738   -0.1787 N   0  0  0  0  0  0  0  0  0  0  0  0
   10.6158   14.2236    0.5799 N   0  0  0  0  0  0  0  0  0  0  0  0
    9.5642   10.7347   -2.4124 O   0  0  0  0  0  0  0  0  0  0  0  0
  1  2  1  0  0  0  0
  1  6  1  0  0  0  0
  1  8  2  0  0  0  0
  2  3  1  0  0  0  0
  3  4  2  0  0  0  0
  3  7  1  0  0  0  0
  4  5  1  0  0  0  0
  5  6  2  0  0  0  0
M  END
>  <CHROM.1>
10.17175994,11.72402083,-0.22198120,2.73271254,1.32222063,2.71886937

>  <Name>
ligand

>  <RI>
0

>  <Rbt.Current_Directory>
/home/itssahil/PROJECTS/Mol_Feturizer/Test_systems_manuscript/rnas/3la5

>  <Rbt.Executable>
rbdock ($Id: //depot/dev/client3/rdock/2013.1/src/exe/rbdock.cxx#4 $)

>  <Rbt.Library>
libRbt.so (2013.1, Build901 2013/11/27)

>  <Rbt.Parameter_File>
/export/apps/rDock/src/rDock_2013.1_src/data/scripts/dock_solv.prm

>  <Rbt.Receptor>
prm/blind_docking_60.prm

>  <SCORE>
-6.71149

>  <SCORE.INTER>
-6.71149

>  <SCORE.INTER.CONST>
1

>  <SCORE.INTER.POLAR>
0

>  <SCORE.INTER.ROT>
0

>  <SCORE.INTER.SOLV>
8.53386

>  <SCORE.INTER.VDW>
-10.9189

>  <SCORE.INTER.norm>
-0.838936

>  <SCORE.INTRA>
0

>  <SCORE.INTRA.DIHEDRAL>
0

>  <SCORE.INTRA.DIHEDRAL.0>
0

>  <SCORE.INTRA.POLAR>
0

>  <SCORE.INTRA.POLAR.0>
0

>  <SCORE.INTRA.REPUL>
0

>  <SCORE.INTRA.REPUL.0>
0

>  <SCORE.INTRA.SOLV>
0

>  <SCORE.INTRA.SOLV.lig_0>
-29.58

>  <SCORE.INTRA.VDW>
0

>  <SCORE.INTRA.VDW.0>
0

>  <SCORE.INTRA.norm>
0

>  <SCORE.RESTR>
0

>  <SCORE.RESTR.CAVITY>
0

>  <SCORE.RESTR.norm>
0

>  <SCORE.SYSTEM>
0

>  <SCORE.SYSTEM.CONST>
0

>  <SCORE.SYSTEM.DIHEDRAL>
0

>  <SCORE.SYSTEM.SOLV>
0

>  <SCORE.SYSTEM.norm>
0

>  <SCORE.heavy>
8

>  <SCORE.norm>
-0.838936

>  <RMSD>
3.177

$$$$
ligand
 OpenBabel02271912143D
libRbt.so/2013.1/901 2013/11/27
  8  8  0  0  0  0  0  0  0  0999 V2000
    9.9072   11.0750   -1.1831 C   0  0  0  0  0  0  0  0  0  0  0  0
   10.1060   12.3660   -0.9179 N   0  0  0  0  0  0  0  0  0  0  0  0
   10.4172   12.7455    0.3242 C   0  0  0  0  0  0  0  0  0  0  0  0
   10.5457   11.8232    1.3064 N   0  0  0  0  0  0  0  0  0  0  0  0
   10.3369   10.5254    1.0279 C   0  0  0  0  0  0  0  0  0  0  0  0
   10.0210   10.1455   -0.2199 N   0  0  0  0  0  0  0  0  0  0  0  0
   10.6278   14.1854    0.5830 N   0  0  0  0  0  0  0  0  0  0  0  0
    9.5948   10.7291   -2.4532 O   0  0  0  0  0  0  0  0  0  0  0  0
  1  2  1  0  0  0  0
  1  6  1  0  0  0  0
  1  8  2  0  0  0  0
  2  3  1  0  0  0  0
  3  4  2  0  0  0  0
  3  7  1  0  0  0  0
  4  5  1  0  0  0  0
  5  6  2  0  0  0  0
M  END
>  <CHROM.1>
10.18210328,11.69538342,-0.24701836,2.76812900,1.33049595,2.69381149

>  <Name>
ligand

>  <RI>
0

>  <Rbt.Current_Directory>
/home/itssahil/PROJECTS/Mol_Feturizer/Test_systems_manuscript/rnas/3la5

>  <Rbt.Executable>
rbdock ($Id: //depot/dev/client3/rdock/2013.1/src/exe/rbdock.cxx#4 $)

>  <Rbt.Library>
libRbt.so (2013.1, Build901 2013/11/27)

>  <Rbt.Parameter_File>
/export/apps/rDock/src/rDock_2013.1_src/data/scripts/dock_solv.prm

>  <Rbt.Receptor>
prm/pocket_docking_3.prm

>  <SCORE>
-6.73106

>  <SCORE.INTER>
-6.73106

>  <SCORE.INTER.CONST>
1

>  <SCORE.INTER.POLAR>
0

>  <SCORE.INTER.ROT>
0

>  <SCORE.INTER.SOLV>
8.60915

>  <SCORE.INTER.VDW>
-10.9571

>  <SCORE.INTER.norm>
-0.841383

>  <SCORE.INTRA>
0

>  <SCORE.INTRA.DIHEDRAL>
0

>  <SCORE.INTRA.DIHEDRAL.0>
0

>  <SCORE.INTRA.POLAR>
0

>  <SCORE.INTRA.POLAR.0>
0

>  <SCORE.INTRA.REPUL>
0

>  <SCORE.INTRA.REPUL.0>
0

>  <SCORE.INTRA.SOLV>
0

>  <SCORE.INTRA.SOLV.lig_0>
-29.58

>  <SCORE.INTRA.VDW>
0

>  <SCORE.INTRA.VDW.0>
0

>  <SCORE.INTRA.norm>
0

>  <SCORE.RESTR>
0

>  <SCORE.RESTR.CAVITY>
0

>  <SCORE.RESTR.norm>
0

>  <SCORE.SYSTEM>
0

>  <SCORE.SYSTEM.CONST>
0

>  <SCORE.SYSTEM.DIHEDRAL>
0

>  <SCORE.SYSTEM.SOLV>
0

>  <SCORE.SYSTEM.norm>
0

>  <SCORE.heavy>
8

>  <SCORE.norm>
-0.841383

>  <RMSD>
3.177

$$$$
ligand
 OpenBabel02271912143D
libRbt.so/2013.1/901 2013/11/27
  8  8  0  0  0  0  0  0  0  0999 V2000
    9.8523   11.0278   -1.2312 C   0  0  0  0  0  0  0  0  0  0  0  0
   10.0205   12.3121   -0.9171 N   0  0  0  0  0  0  0  0  0  0  0  0
   10.3440   12.6500    0.3340 C   0  0  0  0  0  0  0  0  0  0  0  0
   10.5158   11.6928    1.2754 N   0  0  0  0  0  0  0  0  0  0  0  0
   10.3376   10.4020    0.9478 C   0  0  0  0  0  0  0  0  0  0  0  0
   10.0094   10.0638   -0.3088 N   0  0  0  0  0  0  0  0  0  0  0  0
   10.5197   14.0837    0.6476 N   0  0  0  0  0  0  0  0  0  0  0  0
    9.5262   10.7246   -2.5087 O   0  0  0  0  0  0  0  0  0  0  0  0
  1  2  1  0  0  0  0
  1  6  1  0  0  0  0
  1  8  2  0  0  0  0
  2  3  1  0  0  0  0
  3  4  2  0  0  0  0
  3  7  1  0  0  0  0
  4  5  1  0  0  0  0
  5  6  2  0  0  0  0
M  END
>  <CHROM.1>
10.12729478,11.61750328,-0.27547434,2.63403045,1.32364584,2.86448998

>  <Name>
ligand

>  <RI>
0

>  <Rbt.Current_Directory>
/home/itssahil/PROJECTS/Mol_Feturizer/Test_systems_manuscript/rnas/3la5

>  <Rbt.Executable>
rbdock ($Id: //depot/dev/client3/rdock/2013.1/src/exe/rbdock.cxx#4 $)

>  <Rbt.Library>
libRbt.so (2013.1, Build901 2013/11/27)

>  <Rbt.Parameter_File>
/export/apps/rDock/src/rDock_2013.1_src/data/scripts/dock_solv.prm

>  <Rbt.Receptor>
prm/pocket_docking_4.prm

>  <SCORE>
-6.75554

>  <SCORE.INTER>
-6.75554

>  <SCORE.INTER.CONST>
1

>  <SCORE.INTER.POLAR>
0

>  <SCORE.INTER.ROT>
0

>  <SCORE.INTER.SOLV>
8.65008

>  <SCORE.INTER.VDW>
-10.9871

>  <SCORE.INTER.norm>
-0.844442

>  <SCORE.INTRA>
0

>  <SCORE.INTRA.DIHEDRAL>
0

>  <SCORE.INTRA.DIHEDRAL.0>
0

>  <SCORE.INTRA.POLAR>
0

>  <SCORE.INTRA.POLAR.0>
0

>  <SCORE.INTRA.REPUL>
0

>  <SCORE.INTRA.REPUL.0>
0

>  <SCORE.INTRA.SOLV>
0

>  <SCORE.INTRA.SOLV.lig_0>
-29.58

>  <SCORE.INTRA.VDW>
0

>  <SCORE.INTRA.VDW.0>
0

>  <SCORE.INTRA.norm>
0

>  <SCORE.RESTR>
0

>  <SCORE.RESTR.CAVITY>
0

>  <SCORE.RESTR.norm>
0

>  <SCORE.SYSTEM>
0

>  <SCORE.SYSTEM.CONST>
0

>  <SCORE.SYSTEM.DIHEDRAL>
0

>  <SCORE.SYSTEM.SOLV>
0

>  <SCORE.SYSTEM.norm>
0

>  <SCORE.heavy>
8

>  <SCORE.norm>
-0.844442

>  <RMSD>
3.177

$$$$
ligand
 OpenBabel02271912143D
libRbt.so/2013.1/901 2013/11/27
  8  8  0  0  0  0  0  0  0  0999 V2000
    9.8597   11.0188   -1.2343 C   0  0  0  0  0  0  0  0  0  0  0  0
   10.0244   12.3029   -0.9171 N   0  0  0  0  0  0  0  0  0  0  0  0
   10.3581   12.6378    0.3320 C   0  0  0  0  0  0  0  0  0  0  0  0
   10.5436   11.6781    1.2683 N   0  0  0  0  0  0  0  0  0  0  0  0
   10.3688   10.3876    0.9376 C   0  0  0  0  0  0  0  0  0  0  0  0
   10.0303   10.0523   -0.3170 N   0  0  0  0  0  0  0  0  0  0  0  0
   10.5295   14.0712    0.6492 N   0  0  0  0  0  0  0  0  0  0  0  0
    9.5229   10.7186   -2.5098 O   0  0  0  0  0  0  0  0  0  0  0  0
  1  2  1  0  0  0  0
  1  6  1  0  0  0  0
  1  8  2  0  0  0  0
  2  3  1  0  0  0  0
  3  4  2  0  0  0  0
  3  7  1  0  0  0  0
  4  5  1  0  0  0  0
  5  6  2  0  0  0  0
M  END
>  <CHROM.1>
10.14074193,11.60644670,-0.27912057,2.60459464,1.31577299,2.89664575

>  <Name>
ligand

>  <RI>
0

>  <Rbt.Current_Directory>
/home/itssahil/PROJECTS/Mol_Feturizer/Test_systems_manuscript/rnas/3la5

>  <Rbt.Executable>
rbdock ($Id: //depot/dev/client3/rdock/2013.1/src/exe/rbdock.cxx#4 $)

>  <Rbt.Library>
libRbt.so (2013.1, Build901 2013/11/27)

>  <Rbt.Parameter_File>
/export/apps/rDock/src/rDock_2013.1_src/data/scripts/dock_solv.prm

>  <Rbt.Receptor>
prm/pocket_docking_6.prm

>  <SCORE>
-6.75345

>  <SCORE.INTER>
-6.75345

>  <SCORE.INTER.CONST>
1

>  <SCORE.INTER.POLAR>
0

>  <SCORE.INTER.ROT>
0

>  <SCORE.INTER.SOLV>
8.6734

>  <SCORE.INTER.VDW>
-10.9934

>  <SCORE.INTER.norm>
-0.844182

>  <SCORE.INTRA>
0

>  <SCORE.INTRA.DIHEDRAL>
0

>  <SCORE.INTRA.DIHEDRAL.0>
0

>  <SCORE.INTRA.POLAR>
0

>  <SCORE.INTRA.POLAR.0>
0

>  <SCORE.INTRA.REPUL>
0

>  <SCORE.INTRA.REPUL.0>
0

>  <SCORE.INTRA.SOLV>
0

>  <SCORE.INTRA.SOLV.lig_0>
-29.58

>  <SCORE.INTRA.VDW>
0

>  <SCORE.INTRA.VDW.0>
0

>  <SCORE.INTRA.norm>
0

>  <SCORE.RESTR>
0

>  <SCORE.RESTR.CAVITY>
0

>  <SCORE.RESTR.norm>
0

>  <SCORE.SYSTEM>
0

>  <SCORE.SYSTEM.CONST>
0

>  <SCORE.SYSTEM.DIHEDRAL>
0

>  <SCORE.SYSTEM.SOLV>
0

>  <SCORE.SYSTEM.norm>
0

>  <SCORE.heavy>
8

>  <SCORE.norm>
-0.844182

>  <RMSD>
3.177

$$$$
ligand
 OpenBabel02271912143D
libRbt.so/2013.1/901 2013/11/27
  8  8  0  0  0  0  0  0  0  0999 V2000
    9.8579   11.0181   -1.2261 C   0  0  0  0  0  0  0  0  0  0  0  0
   10.0179   12.3034   -0.9119 N   0  0  0  0  0  0  0  0  0  0  0  0
   10.3559   12.6421    0.3351 C   0  0  0  0  0  0  0  0  0  0  0  0
   10.5507   11.6850    1.2720 N   0  0  0  0  0  0  0  0  0  0  0  0
   10.3805   10.3930    0.9444 C   0  0  0  0  0  0  0  0  0  0  0  0
   10.0376   10.0540   -0.3080 N   0  0  0  0  0  0  0  0  0  0  0  0
   10.5219   14.0769    0.6490 N   0  0  0  0  0  0  0  0  0  0  0  0
    9.5165   10.7141   -2.4994 O   0  0  0  0  0  0  0  0  0  0  0  0
  1  2  1  0  0  0  0
  1  6  1  0  0  0  0
  1  8  2  0  0  0  0
  2  3  1  0  0  0  0
  3  4  2  0  0  0  0
  3  7  1  0  0  0  0
  4  5  1  0  0  0  0
  5  6  2  0  0  0  0
M  END
>  <CHROM.1>
10.14070093,11.60869386,-0.27324885,2.58151000,1.31219783,2.91729180

>  <Name>
ligand

>  <RI>
0

>  <Rbt.Current_Directory>
/home/itssahil/PROJECTS/Mol_Feturizer/Test_systems_manuscript/rnas/3la5

>  <Rbt.Executable>
rbdock ($Id: //depot/dev/client3/rdock/2013.1/src/exe/rbdock.cxx#4 $)

>  <Rbt.Library>
libRbt.so (2013.1, Build901 2013/11/27)

>  <Rbt.Parameter_File>
/export/apps/rDock/src/rDock_2013.1_src/data/scripts/dock_solv.prm

>  <Rbt.Receptor>
prm/pocket_docking_3.prm

>  <SCORE>
-6.74919

>  <SCORE.INTER>
-6.74919

>  <SCORE.INTER.CONST>
1

>  <SCORE.INTER.POLAR>
0

>  <SCORE.INTER.ROT>
0

>  <SCORE.INTER.SOLV>
8.66383

>  <SCORE.INTER.VDW>
-10.9874

>  <SCORE.INTER.norm>
-0.843649

>  <SCORE.INTRA>
0

>  <SCORE.INTRA.DIHEDRAL>
0

>  <SCORE.INTRA.DIHEDRAL.0>
0

>  <SCORE.INTRA.POLAR>
0

>  <SCORE.INTRA.POLAR.0>
0

>  <SCORE.INTRA.REPUL>
0

>  <SCORE.INTRA.REPUL.0>
0

>  <SCORE.INTRA.SOLV>
0

>  <SCORE.INTRA.SOLV.lig_0>
-29.58

>  <SCORE.INTRA.VDW>
0

>  <SCORE.INTRA.VDW.0>
0

>  <SCORE.INTRA.norm>
0

>  <SCORE.RESTR>
0

>  <SCORE.RESTR.CAVITY>
0

>  <SCORE.RESTR.norm>
0

>  <SCORE.SYSTEM>
0

>  <SCORE.SYSTEM.CONST>
0

>  <SCORE.SYSTEM.DIHEDRAL>
0

>  <SCORE.SYSTEM.SOLV>
0

>  <SCORE.SYSTEM.norm>
0

>  <SCORE.heavy>
8

>  <SCORE.norm>
-0.843649

>  <RMSD>
3.178

$$$$
ligand
 OpenBabel02271912143D
libRbt.so/2013.1/901 2013/11/27
  8  8  0  0  0  0  0  0  0  0999 V2000
    9.8507   11.0259   -1.2333 C   0  0  0  0  0  0  0  0  0  0  0  0
   10.0189   12.3104   -0.9199 N   0  0  0  0  0  0  0  0  0  0  0  0
   10.3435   12.6488    0.3307 C   0  0  0  0  0  0  0  0  0  0  0  0
   10.5163   11.6920    1.2724 N   0  0  0  0  0  0  0  0  0  0  0  0
   10.3380   10.4010    0.9455 C   0  0  0  0  0  0  0  0  0  0  0  0
   10.0086   10.0623   -0.3107 N   0  0  0  0  0  0  0  0  0  0  0  0
   10.5192   14.0826    0.6436 N   0  0  0  0  0  0  0  0  0  0  0  0
    9.5234   10.7221   -2.5105 O   0  0  0  0  0  0  0  0  0  0  0  0
  1  2  1  0  0  0  0
  1  6  1  0  0  0  0
  1  8  2  0  0  0  0
  2  3  1  0  0  0  0
  3  4  2  0  0  0  0
  3  7  1  0  0  0  0
  4  5  1  0  0  0  0
  5  6  2  0  0  0  0
M  END
>  <CHROM.1>
10.12636577,11.61599541,-0.27810805,2.63240576,1.32283404,2.86565847

>  <Name>
ligand

>  <RI>
0

>  <Rbt.Current_Directory>
/home/itssahil/PROJECTS/Mol_Feturizer/Test_systems_manuscript/rnas/3la5

>  <Rbt.Executable>
rbdock ($Id: //depot/dev/client3/rdock/2013.1/src/exe/rbdock.cxx#4 $)

>  <Rbt.Library>
libRbt.so (2013.1, Build901 2013/11/27)

>  <Rbt.Parameter_File>
/export/apps/rDock/src/rDock_2013.1_src/data/scripts/dock_solv.prm

>  <Rbt.Receptor>
prm/pocket_docking_3.prm

>  <SCORE>
-6.7541

>  <SCORE.INTER>
-6.7541

>  <SCORE.INTER.CONST>
1

>  <SCORE.INTER.POLAR>
0

>  <SCORE.INTER.ROT>
0

>  <SCORE.INTER.SOLV>
8.65503

>  <SCORE.INTER.VDW>
-10.9877

>  <SCORE.INTER.norm>
-0.844262

>  <SCORE.INTRA>
0

>  <SCORE.INTRA.DIHEDRAL>
0

>  <SCORE.INTRA.DIHEDRAL.0>
0

>  <SCORE.INTRA.POLAR>
0

>  <SCORE.INTRA.POLAR.0>
0

>  <SCORE.INTRA.REPUL>
0

>  <SCORE.INTRA.REPUL.0>
0

>  <SCORE.INTRA.SOLV>
0

>  <SCORE.INTRA.SOLV.lig_0>
-29.58

>  <SCORE.INTRA.VDW>
0

>  <SCORE.INTRA.VDW.0>
0

>  <SCORE.INTRA.norm>
0

>  <SCORE.RESTR>
0

>  <SCORE.RESTR.CAVITY>
0

>  <SCORE.RESTR.norm>
0

>  <SCORE.SYSTEM>
0

>  <SCORE.SYSTEM.CONST>
0

>  <SCORE.SYSTEM.DIHEDRAL>
0

>  <SCORE.SYSTEM.SOLV>
0

>  <SCORE.SYSTEM.norm>
0

>  <SCORE.heavy>
8

>  <SCORE.norm>
-0.844262

>  <RMSD>
3.178

$$$$
ligand
 OpenBabel02271912143D
libRbt.so/2013.1/901 2013/11/27
  8  8  0  0  0  0  0  0  0  0999 V2000
    9.8916   11.0770   -1.1804 C   0  0  0  0  0  0  0  0  0  0  0  0
   10.1089   12.3653   -0.9169 N   0  0  0  0  0  0  0  0  0  0  0  0
   10.4395   12.7403    0.3216 C   0  0  0  0  0  0  0  0  0  0  0  0
   10.5688   11.8158    1.3017 N   0  0  0  0  0  0  0  0  0  0  0  0
   10.3412   10.5208    1.0250 C   0  0  0  0  0  0  0  0  0  0  0  0
   10.0059   10.1455   -0.2191 N   0  0  0  0  0  0  0  0  0  0  0  0
   10.6703   14.1774    0.5786 N   0  0  0  0  0  0  0  0  0  0  0  0
    9.5598   10.7356   -2.4468 O   0  0  0  0  0  0  0  0  0  0  0  0
  1  2  1  0  0  0  0
  1  6  1  0  0  0  0
  1  8  2  0  0  0  0
  2  3  1  0  0  0  0
  3  4  2  0  0  0  0
  3  7  1  0  0  0  0
  4  5  1  0  0  0  0
  5  6  2  0  0  0  0
M  END
>  <CHROM.1>
10.18504842,11.69340543,-0.24733318,2.78996567,1.31446540,2.67324424

>  <Name>
ligand

>  <RI>
0

>  <Rbt.Current_Directory>
/home/itssahil/PROJECTS/Mol_Feturizer/Test_systems_manuscript/rnas/3la5

>  <Rbt.Executable>
rbdock ($Id: //depot/dev/client3/rdock/2013.1/src/exe/rbdock.cxx#4 $)

>  <Rbt.Library>
libRbt.so (2013.1, Build901 2013/11/27)

>  <Rbt.Parameter_File>
/export/apps/rDock/src/rDock_2013.1_src/data/scripts/dock_solv.prm

>  <Rbt.Receptor>
prm/pocket_docking_4.prm

>  <SCORE>
-6.72909

>  <SCORE.INTER>
-6.72909

>  <SCORE.INTER.CONST>
1

>  <SCORE.INTER.POLAR>
0

>  <SCORE.INTER.ROT>
0

>  <SCORE.INTER.SOLV>
8.71036

>  <SCORE.INTER.VDW>
-10.9895

>  <SCORE.INTER.norm>
-0.841136

>  <SCORE.INTRA>
0

>  <SCORE.INTRA.DIHEDRAL>
0

>  <SCORE.INTRA.DIHEDRAL.0>
0

>  <SCORE.INTRA.POLAR>
0

>  <SCORE.INTRA.POLAR.0>
0

>  <SCORE.INTRA.REPUL>
0

>  <SCORE.INTRA.REPUL.0>
0

>  <SCORE.INTRA.SOLV>
0

>  <SCORE.INTRA.SOLV.lig_0>
-29.58

>  <SCORE.INTRA.VDW>
0

>  <SCORE.INTRA.VDW.0>
0

>  <SCORE.INTRA.norm>
0

>  <SCORE.RESTR>
0

>  <SCORE.RESTR.CAVITY>
0

>  <SCORE.RESTR.norm>
0

>  <SCORE.SYSTEM>
0

>  <SCORE.SYSTEM.CONST>
0

>  <SCORE.SYSTEM.DIHEDRAL>
0

>  <SCORE.SYSTEM.SOLV>
0

>  <SCORE.SYSTEM.norm>
0

>  <SCORE.heavy>
8

>  <SCORE.norm>
-0.841136

>  <RMSD>
3.178

$$$$
ligand
 OpenBabel02271912143D
libRbt.so/2013.1/901 2013/11/27
  8  8  0  0  0  0  0  0  0  0999 V2000
    9.9118   11.0840   -1.1551 C   0  0  0  0  0  0  0  0  0  0  0  0
   10.1116   12.3782   -0.9071 N   0  0  0  0  0  0  0  0  0  0  0  0
   10.4309   12.7730    0.3282 C   0  0  0  0  0  0  0  0  0  0  0  0
   10.5666   11.8628    1.3207 N   0  0  0  0  0  0  0  0  0  0  0  0
   10.3568   10.5616    1.0594 C   0  0  0  0  0  0  0  0  0  0  0  0
   10.0327   10.1663   -0.1815 N   0  0  0  0  0  0  0  0  0  0  0  0
   10.6423   14.2161    0.5680 N   0  0  0  0  0  0  0  0  0  0  0  0
    9.5910   10.7224   -2.4188 O   0  0  0  0  0  0  0  0  0  0  0  0
  1  2  1  0  0  0  0
  1  6  1  0  0  0  0
  1  8  2  0  0  0  0
  2  3  1  0  0  0  0
  3  4  2  0  0  0  0
  3  7  1  0  0  0  0
  4  5  1  0  0  0  0
  5  6  2  0  0  0  0
M  END
>  <CHROM.1>
10.19259028,11.71585455,-0.22856792,2.75372302,1.32464779,2.69559925

>  <Name>
ligand

>  <RI>
0

>  <Rbt.Current_Directory>
/home/itssahil/PROJECTS/Mol_Feturizer/Test_systems_manuscript/rnas/3la5

>  <Rbt.Executable>
rbdock ($Id: //depot/dev/client3/rdock/2013.1/src/exe/rbdock.cxx#4 $)

>  <Rbt.Library>
libRbt.so (2013.1, Build901 2013/11/27)

>  <Rbt.Parameter_File>
/export/apps/rDock/src/rDock_2013.1_src/data/scripts/dock_solv.prm

>  <Rbt.Receptor>
prm/blind_docking_80.prm

>  <SCORE>
-6.73499

>  <SCORE.INTER>
-6.73499

>  <SCORE.INTER.CONST>
1

>  <SCORE.INTER.POLAR>
0

>  <SCORE.INTER.ROT>
0

>  <SCORE.INTER.SOLV>
8.57593

>  <SCORE.INTER.VDW>
-10.9486

>  <SCORE.INTER.norm>
-0.841873

>  <SCORE.INTRA>
0

>  <SCORE.INTRA.DIHEDRAL>
0

>  <SCORE.INTRA.DIHEDRAL.0>
0

>  <SCORE.INTRA.POLAR>
0

>  <SCORE.INTRA.POLAR.0>
0

>  <SCORE.INTRA.REPUL>
0

>  <SCORE.INTRA.REPUL.0>
0

>  <SCORE.INTRA.SOLV>
0

>  <SCORE.INTRA.SOLV.lig_0>
-29.58

>  <SCORE.INTRA.VDW>
0

>  <SCORE.INTRA.VDW.0>
0

>  <SCORE.INTRA.norm>
0

>  <SCORE.RESTR>
0

>  <SCORE.RESTR.CAVITY>
0

>  <SCORE.RESTR.norm>
0

>  <SCORE.SYSTEM>
0

>  <SCORE.SYSTEM.CONST>
0

>  <SCORE.SYSTEM.DIHEDRAL>
0

>  <SCORE.SYSTEM.SOLV>
0

>  <SCORE.SYSTEM.norm>
0

>  <SCORE.heavy>
8

>  <SCORE.norm>
-0.841873

>  <RMSD>
3.179

$$$$
ligand
 OpenBabel02271912143D
libRbt.so/2013.1/901 2013/11/27
  8  8  0  0  0  0  0  0  0  0999 V2000
    9.9053   11.0675   -1.1884 C   0  0  0  0  0  0  0  0  0  0  0  0
   10.1068   12.3579   -0.9225 N   0  0  0  0  0  0  0  0  0  0  0  0
   10.4261   12.7352    0.3183 C   0  0  0  0  0  0  0  0  0  0  0  0
   10.5600   11.8113    1.2982 N   0  0  0  0  0  0  0  0  0  0  0  0
   10.3485   10.5141    1.0189 C   0  0  0  0  0  0  0  0  0  0  0  0
   10.0245   10.1363   -0.2274 N   0  0  0  0  0  0  0  0  0  0  0  0
   10.6393   14.1746    0.5780 N   0  0  0  0  0  0  0  0  0  0  0  0
    9.5846   10.7237   -2.4571 O   0  0  0  0  0  0  0  0  0  0  0  0
  1  2  1  0  0  0  0
  1  6  1  0  0  0  0
  1  8  2  0  0  0  0
  2  3  1  0  0  0  0
  3  4  2  0  0  0  0
  3  7  1  0  0  0  0
  4  5  1  0  0  0  0
  5  6  2  0  0  0  0
M  END
>  <CHROM.1>
10.18653479,11.68617032,-0.25311566,2.75977185,1.32449257,2.70348398

>  <Name>
ligand

>  <RI>
0

>  <Rbt.Current_Directory>
/home/itssahil/PROJECTS/Mol_Feturizer/Test_systems_manuscript/rnas/3la5

>  <Rbt.Executable>
rbdock ($Id: //depot/dev/client3/rdock/2013.1/src/exe/rbdock.cxx#4 $)

>  <Rbt.Library>
libRbt.so (2013.1, Build901 2013/11/27)

>  <Rbt.Parameter_File>
/export/apps/rDock/src/rDock_2013.1_src/data/scripts/dock_solv.prm

>  <Rbt.Receptor>
prm/pocket_docking_3.prm

>  <SCORE>
-6.72785

>  <SCORE.INTER>
-6.72785

>  <SCORE.INTER.CONST>
1

>  <SCORE.INTER.POLAR>
0

>  <SCORE.INTER.ROT>
0

>  <SCORE.INTER.SOLV>
8.65252

>  <SCORE.INTER.VDW>
-10.9694

>  <SCORE.INTER.norm>
-0.840981

>  <SCORE.INTRA>
0

>  <SCORE.INTRA.DIHEDRAL>
0

>  <SCORE.INTRA.DIHEDRAL.0>
0

>  <SCORE.INTRA.POLAR>
0

>  <SCORE.INTRA.POLAR.0>
0

>  <SCORE.INTRA.REPUL>
0

>  <SCORE.INTRA.REPUL.0>
0

>  <SCORE.INTRA.SOLV>
0

>  <SCORE.INTRA.SOLV.lig_0>
-29.58

>  <SCORE.INTRA.VDW>
0

>  <SCORE.INTRA.VDW.0>
0

>  <SCORE.INTRA.norm>
0

>  <SCORE.RESTR>
0

>  <SCORE.RESTR.CAVITY>
0

>  <SCORE.RESTR.norm>
0

>  <SCORE.SYSTEM>
0

>  <SCORE.SYSTEM.CONST>
0

>  <SCORE.SYSTEM.DIHEDRAL>
0

>  <SCORE.SYSTEM.SOLV>
0

>  <SCORE.SYSTEM.norm>
0

>  <SCORE.heavy>
8

>  <SCORE.norm>
-0.840981

>  <RMSD>
3.179

$$$$
ligand
 OpenBabel02271912143D
libRbt.so/2013.1/901 2013/11/27
  8  8  0  0  0  0  0  0  0  0999 V2000
    9.8424   11.0398   -1.1783 C   0  0  0  0  0  0  0  0  0  0  0  0
   10.0245   12.3287   -0.8919 N   0  0  0  0  0  0  0  0  0  0  0  0
   10.3831   12.6871    0.3437 C   0  0  0  0  0  0  0  0  0  0  0  0
   10.5762   11.7461    1.2971 N   0  0  0  0  0  0  0  0  0  0  0  0
   10.3837   10.4504    0.9976 C   0  0  0  0  0  0  0  0  0  0  0  0
   10.0202   10.0916   -0.2434 N   0  0  0  0  0  0  0  0  0  0  0  0
   10.5732   14.1253    0.6268 N   0  0  0  0  0  0  0  0  0  0  0  0
    9.4806   10.7155   -2.4410 O   0  0  0  0  0  0  0  0  0  0  0  0
  1  2  1  0  0  0  0
  1  6  1  0  0  0  0
  1  8  2  0  0  0  0
  2  3  1  0  0  0  0
  3  4  2  0  0  0  0
  3  7  1  0  0  0  0
  4  5  1  0  0  0  0
  5  6  2  0  0  0  0
M  END
>  <CHROM.1>
10.14556570,11.64502130,-0.24109640,2.62185274,1.29647879,2.85842389

>  <Name>
ligand

>  <RI>
0

>  <Rbt.Current_Directory>
/home/itssahil/PROJECTS/Mol_Feturizer/Test_systems_manuscript/rnas/3la5

>  <Rbt.Executable>
rbdock ($Id: //depot/dev/client3/rdock/2013.1/src/exe/rbdock.cxx#4 $)

>  <Rbt.Library>
libRbt.so (2013.1, Build901 2013/11/27)

>  <Rbt.Parameter_File>
/export/apps/rDock/src/rDock_2013.1_src/data/scripts/dock_solv.prm

>  <Rbt.Receptor>
prm/pocket_docking_5.prm

>  <SCORE>
-6.75152

>  <SCORE.INTER>
-6.75152

>  <SCORE.INTER.CONST>
1

>  <SCORE.INTER.POLAR>
0

>  <SCORE.INTER.ROT>
0

>  <SCORE.INTER.SOLV>
8.66383

>  <SCORE.INTER.VDW>
-10.989

>  <SCORE.INTER.norm>
-0.84394

>  <SCORE.INTRA>
0

>  <SCORE.INTRA.DIHEDRAL>
0

>  <SCORE.INTRA.DIHEDRAL.0>
0

>  <SCORE.INTRA.POLAR>
0

>  <SCORE.INTRA.POLAR.0>
0

>  <SCORE.INTRA.REPUL>
0

>  <SCORE.INTRA.REPUL.0>
0

>  <SCORE.INTRA.SOLV>
0

>  <SCORE.INTRA.SOLV.lig_0>
-29.58

>  <SCORE.INTRA.VDW>
0

>  <SCORE.INTRA.VDW.0>
0

>  <SCORE.INTRA.norm>
0

>  <SCORE.RESTR>
0

>  <SCORE.RESTR.CAVITY>
0

>  <SCORE.RESTR.norm>
0

>  <SCORE.SYSTEM>
0

>  <SCORE.SYSTEM.CONST>
0

>  <SCORE.SYSTEM.DIHEDRAL>
0

>  <SCORE.SYSTEM.SOLV>
0

>  <SCORE.SYSTEM.norm>
0

>  <SCORE.heavy>
8

>  <SCORE.norm>
-0.84394

>  <RMSD>
3.179

$$$$
ligand
 OpenBabel02271912143D
libRbt.so/2013.1/901 2013/11/27
  8  8  0  0  0  0  0  0  0  0999 V2000
    9.8662   11.0378   -1.1235 C   0  0  0  0  0  0  0  0  0  0  0  0
   10.0417   12.3335   -0.8651 N   0  0  0  0  0  0  0  0  0  0  0  0
   10.4060   12.7199    0.3604 C   0  0  0  0  0  0  0  0  0  0  0  0
   10.6114   11.8001    1.3319 N   0  0  0  0  0  0  0  0  0  0  0  0
   10.4254   10.4974    1.0606 C   0  0  0  0  0  0  0  0  0  0  0  0
   10.0562   10.1104   -0.1702 N   0  0  0  0  0  0  0  0  0  0  0  0
   10.5887   14.1649    0.6123 N   0  0  0  0  0  0  0  0  0  0  0  0
    9.4983   10.6850   -2.3767 O   0  0  0  0  0  0  0  0  0  0  0  0
  1  2  1  0  0  0  0
  1  6  1  0  0  0  0
  1  8  2  0  0  0  0
  2  3  1  0  0  0  0
  3  4  2  0  0  0  0
  3  7  1  0  0  0  0
  4  5  1  0  0  0  0
  5  6  2  0  0  0  0
M  END
>  <CHROM.1>
10.17150737,11.66435053,-0.20101067,2.59251868,1.29193352,2.86585516

>  <Name>
ligand

>  <RI>
0

>  <Rbt.Current_Directory>
/home/itssahil/PROJECTS/Mol_Feturizer/Test_systems_manuscript/rnas/3la5

>  <Rbt.Executable>
rbdock ($Id: //depot/dev/client3/rdock/2013.1/src/exe/rbdock.cxx#4 $)

>  <Rbt.Library>
libRbt.so (2013.1, Build901 2013/11/27)

>  <Rbt.Parameter_File>
/export/apps/rDock/src/rDock_2013.1_src/data/scripts/dock_solv.prm

>  <Rbt.Receptor>
prm/pocket_docking_7.prm

>  <SCORE>
-6.71065

>  <SCORE.INTER>
-6.71065

>  <SCORE.INTER.CONST>
1

>  <SCORE.INTER.POLAR>
0

>  <SCORE.INTER.ROT>
0

>  <SCORE.INTER.SOLV>
8.59884

>  <SCORE.INTER.VDW>
-10.94

>  <SCORE.INTER.norm>
-0.838831

>  <SCORE.INTRA>
0

>  <SCORE.INTRA.DIHEDRAL>
0

>  <SCORE.INTRA.DIHEDRAL.0>
0

>  <SCORE.INTRA.POLAR>
0

>  <SCORE.INTRA.POLAR.0>
0

>  <SCORE.INTRA.REPUL>
0

>  <SCORE.INTRA.REPUL.0>
0

>  <SCORE.INTRA.SOLV>
0

>  <SCORE.INTRA.SOLV.lig_0>
-29.58

>  <SCORE.INTRA.VDW>
0

>  <SCORE.INTRA.VDW.0>
0

>  <SCORE.INTRA.norm>
0

>  <SCORE.RESTR>
0

>  <SCORE.RESTR.CAVITY>
0

>  <SCORE.RESTR.norm>
0

>  <SCORE.SYSTEM>
0

>  <SCORE.SYSTEM.CONST>
0

>  <SCORE.SYSTEM.DIHEDRAL>
0

>  <SCORE.SYSTEM.SOLV>
0

>  <SCORE.SYSTEM.norm>
0

>  <SCORE.heavy>
8

>  <SCORE.norm>
-0.838831

>  <RMSD>
3.179

$$$$
ligand
 OpenBabel02271912143D
libRbt.so/2013.1/901 2013/11/27
  8  8  0  0  0  0  0  0  0  0999 V2000
    9.8642   11.0179   -1.2362 C   0  0  0  0  0  0  0  0  0  0  0  0
   10.0272   12.3029   -0.9222 N   0  0  0  0  0  0  0  0  0  0  0  0
   10.3523   12.6418    0.3281 C   0  0  0  0  0  0  0  0  0  0  0  0
   10.5310   11.6852    1.2688 N   0  0  0  0  0  0  0  0  0  0  0  0
   10.3579   10.3936    0.9413 C   0  0  0  0  0  0  0  0  0  0  0  0
   10.0281   10.0543   -0.3145 N   0  0  0  0  0  0  0  0  0  0  0  0
   10.5222   14.0762    0.6417 N   0  0  0  0  0  0  0  0  0  0  0  0
    9.5363   10.7135   -2.5130 O   0  0  0  0  0  0  0  0  0  0  0  0
  1  2  1  0  0  0  0
  1  6  1  0  0  0  0
  1  8  2  0  0  0  0
  2  3  1  0  0  0  0
  3  4  2  0  0  0  0
  3  7  1  0  0  0  0
  4  5  1  0  0  0  0
  5  6  2  0  0  0  0
M  END
>  <CHROM.1>
10.13886760,11.60853245,-0.28105383,2.61304354,1.32242513,2.88513666

>  <Name>
ligand

>  <RI>
0

>  <Rbt.Current_Directory>
/home/itssahil/PROJECTS/Mol_Feturizer/Test_systems_manuscript/rnas/3la5

>  <Rbt.Executable>
rbdock ($Id: //depot/dev/client3/rdock/2013.1/src/exe/rbdock.cxx#4 $)

>  <Rbt.Library>
libRbt.so (2013.1, Build901 2013/11/27)

>  <Rbt.Parameter_File>
/export/apps/rDock/src/rDock_2013.1_src/data/scripts/dock_solv.prm

>  <Rbt.Receptor>
prm/pocket_docking_8.prm

>  <SCORE>
-6.75411

>  <SCORE.INTER>
-6.75411

>  <SCORE.INTER.CONST>
1

>  <SCORE.INTER.POLAR>
0

>  <SCORE.INTER.ROT>
0

>  <SCORE.INTER.SOLV>
8.65875

>  <SCORE.INTER.VDW>
-10.989

>  <SCORE.INTER.norm>
-0.844264

>  <SCORE.INTRA>
0

>  <SCORE.INTRA.DIHEDRAL>
0

>  <SCORE.INTRA.DIHEDRAL.0>
0

>  <SCORE.INTRA.POLAR>
0

>  <SCORE.INTRA.POLAR.0>
0

>  <SCORE.INTRA.REPUL>
0

>  <SCORE.INTRA.REPUL.0>
0

>  <SCORE.INTRA.SOLV>
0

>  <SCORE.INTRA.SOLV.lig_0>
-29.58

>  <SCORE.INTRA.VDW>
0

>  <SCORE.INTRA.VDW.0>
0

>  <SCORE.INTRA.norm>
0

>  <SCORE.RESTR>
0

>  <SCORE.RESTR.CAVITY>
0

>  <SCORE.RESTR.norm>
0

>  <SCORE.SYSTEM>
0

>  <SCORE.SYSTEM.CONST>
0

>  <SCORE.SYSTEM.DIHEDRAL>
0

>  <SCORE.SYSTEM.SOLV>
0

>  <SCORE.SYSTEM.norm>
0

>  <SCORE.heavy>
8

>  <SCORE.norm>
-0.844264

>  <RMSD>
3.179

$$$$
ligand
 OpenBabel02271912143D
libRbt.so/2013.1/901 2013/11/27
  8  8  0  0  0  0  0  0  0  0999 V2000
    9.8939   11.1006   -1.1509 C   0  0  0  0  0  0  0  0  0  0  0  0
   10.1055   12.3941   -0.9089 N   0  0  0  0  0  0  0  0  0  0  0  0
   10.4120   12.7939    0.3281 C   0  0  0  0  0  0  0  0  0  0  0  0
   10.5229   11.8891    1.3286 N   0  0  0  0  0  0  0  0  0  0  0  0
   10.3013   10.5887    1.0733 C   0  0  0  0  0  0  0  0  0  0  0  0
    9.9902   10.1885   -0.1693 N   0  0  0  0  0  0  0  0  0  0  0  0
   10.6371   14.2360    0.5609 N   0  0  0  0  0  0  0  0  0  0  0  0
    9.5868   10.7339   -2.4164 O   0  0  0  0  0  0  0  0  0  0  0  0
  1  2  1  0  0  0  0
  1  6  1  0  0  0  0
  1  8  2  0  0  0  0
  2  3  1  0  0  0  0
  3  4  2  0  0  0  0
  3  7  1  0  0  0  0
  4  5  1  0  0  0  0
  5  6  2  0  0  0  0
M  END
>  <CHROM.1>
10.16906441,11.73568982,-0.22476231,2.82473333,1.33171780,2.61969632

>  <Name>
ligand

>  <RI>
0

>  <Rbt.Current_Directory>
/home/itssahil/PROJECTS/Mol_Feturizer/Test_systems_manuscript/rnas/3la5

>  <Rbt.Executable>
rbdock ($Id: //depot/dev/client3/rdock/2013.1/src/exe/rbdock.cxx#4 $)

>  <Rbt.Library>
libRbt.so (2013.1, Build901 2013/11/27)

>  <Rbt.Parameter_File>
/export/apps/rDock/src/rDock_2013.1_src/data/scripts/dock_solv.prm

>  <Rbt.Receptor>
prm/blind_docking_100.prm

>  <SCORE>
-6.74091

>  <SCORE.INTER>
-6.74091

>  <SCORE.INTER.CONST>
1

>  <SCORE.INTER.POLAR>
0

>  <SCORE.INTER.ROT>
0

>  <SCORE.INTER.SOLV>
8.53864

>  <SCORE.INTER.VDW>
-10.9402

>  <SCORE.INTER.norm>
-0.842614

>  <SCORE.INTRA>
0

>  <SCORE.INTRA.DIHEDRAL>
0

>  <SCORE.INTRA.DIHEDRAL.0>
0

>  <SCORE.INTRA.POLAR>
0

>  <SCORE.INTRA.POLAR.0>
0

>  <SCORE.INTRA.REPUL>
0

>  <SCORE.INTRA.REPUL.0>
0

>  <SCORE.INTRA.SOLV>
0

>  <SCORE.INTRA.SOLV.lig_0>
-29.58

>  <SCORE.INTRA.VDW>
0

>  <SCORE.INTRA.VDW.0>
0

>  <SCORE.INTRA.norm>
0

>  <SCORE.RESTR>
0

>  <SCORE.RESTR.CAVITY>
0

>  <SCORE.RESTR.norm>
0

>  <SCORE.SYSTEM>
0

>  <SCORE.SYSTEM.CONST>
0

>  <SCORE.SYSTEM.DIHEDRAL>
0

>  <SCORE.SYSTEM.SOLV>
0

>  <SCORE.SYSTEM.norm>
0

>  <SCORE.heavy>
8

>  <SCORE.norm>
-0.842614

>  <RMSD>
3.180

$$$$
ligand
 OpenBabel02271912143D
libRbt.so/2013.1/901 2013/11/27
  8  8  0  0  0  0  0  0  0  0999 V2000
    9.8751   11.0345   -1.1802 C   0  0  0  0  0  0  0  0  0  0  0  0
   10.0610   12.3251   -0.9039 N   0  0  0  0  0  0  0  0  0  0  0  0
   10.3956   12.6944    0.3353 C   0  0  0  0  0  0  0  0  0  0  0  0
   10.5606   11.7625    1.3028 N   0  0  0  0  0  0  0  0  0  0  0  0
   10.3645   10.4651    1.0133 C   0  0  0  0  0  0  0  0  0  0  0  0
   10.0252   10.0954   -0.2314 N   0  0  0  0  0  0  0  0  0  0  0  0
   10.5908   14.1342    0.6068 N   0  0  0  0  0  0  0  0  0  0  0  0
    9.5381   10.6991   -2.4468 O   0  0  0  0  0  0  0  0  0  0  0  0
  1  2  1  0  0  0  0
  1  6  1  0  0  0  0
  1  8  2  0  0  0  0
  2  3  1  0  0  0  0
  3  4  2  0  0  0  0
  3  7  1  0  0  0  0
  4  5  1  0  0  0  0
  5  6  2  0  0  0  0
M  END
>  <CHROM.1>
10.16263454,11.64776723,-0.24320016,2.67540129,1.31471792,2.79580758

>  <Name>
ligand

>  <RI>
0

>  <Rbt.Current_Directory>
/home/itssahil/PROJECTS/Mol_Feturizer/Test_systems_manuscript/rnas/3la5

>  <Rbt.Executable>
rbdock ($Id: //depot/dev/client3/rdock/2013.1/src/exe/rbdock.cxx#4 $)

>  <Rbt.Library>
libRbt.so (2013.1, Build901 2013/11/27)

>  <Rbt.Parameter_File>
/export/apps/rDock/src/rDock_2013.1_src/data/scripts/dock_solv.prm

>  <Rbt.Receptor>
prm/blind_docking_60.prm

>  <SCORE>
-6.70972

>  <SCORE.INTER>
-6.70972

>  <SCORE.INTER.CONST>
1

>  <SCORE.INTER.POLAR>
0

>  <SCORE.INTER.ROT>
0

>  <SCORE.INTER.SOLV>
8.63035

>  <SCORE.INTER.VDW>
-10.9499

>  <SCORE.INTER.norm>
-0.838716

>  <SCORE.INTRA>
0

>  <SCORE.INTRA.DIHEDRAL>
0

>  <SCORE.INTRA.DIHEDRAL.0>
0

>  <SCORE.INTRA.POLAR>
0

>  <SCORE.INTRA.POLAR.0>
0

>  <SCORE.INTRA.REPUL>
0

>  <SCORE.INTRA.REPUL.0>
0

>  <SCORE.INTRA.SOLV>
0

>  <SCORE.INTRA.SOLV.lig_0>
-29.58

>  <SCORE.INTRA.VDW>
0

>  <SCORE.INTRA.VDW.0>
0

>  <SCORE.INTRA.norm>
0

>  <SCORE.RESTR>
0

>  <SCORE.RESTR.CAVITY>
0

>  <SCORE.RESTR.norm>
0

>  <SCORE.SYSTEM>
0

>  <SCORE.SYSTEM.CONST>
0

>  <SCORE.SYSTEM.DIHEDRAL>
0

>  <SCORE.SYSTEM.SOLV>
0

>  <SCORE.SYSTEM.norm>
0

>  <SCORE.heavy>
8

>  <SCORE.norm>
-0.838716

>  <RMSD>
3.180

$$$$
ligand
 OpenBabel02271912143D
libRbt.so/2013.1/901 2013/11/27
  8  8  0  0  0  0  0  0  0  0999 V2000
    9.8552   11.0444   -1.1855 C   0  0  0  0  0  0  0  0  0  0  0  0
   10.0255   12.3343   -0.8964 N   0  0  0  0  0  0  0  0  0  0  0  0
   10.3935   12.6926    0.3365 C   0  0  0  0  0  0  0  0  0  0  0  0
   10.6080   11.7505    1.2843 N   0  0  0  0  0  0  0  0  0  0  0  0
   10.4272   10.4538    0.9823 C   0  0  0  0  0  0  0  0  0  0  0  0
   10.0542   10.0951   -0.2560 N   0  0  0  0  0  0  0  0  0  0  0  0
   10.5702   14.1319    0.6226 N   0  0  0  0  0  0  0  0  0  0  0  0
    9.4832   10.7203   -2.4452 O   0  0  0  0  0  0  0  0  0  0  0  0
  1  2  1  0  0  0  0
  1  6  1  0  0  0  0
  1  8  2  0  0  0  0
  2  3  1  0  0  0  0
  3  4  2  0  0  0  0
  3  7  1  0  0  0  0
  4  5  1  0  0  0  0
  5  6  2  0  0  0  0
M  END
>  <CHROM.1>
10.16163986,11.64983111,-0.24944367,2.57089410,1.28875895,2.91096186

>  <Name>
ligand

>  <RI>
0

>  <Rbt.Current_Directory>
/home/itssahil/PROJECTS/Mol_Feturizer/Test_systems_manuscript/rnas/3la5

>  <Rbt.Executable>
rbdock ($Id: //depot/dev/client3/rdock/2013.1/src/exe/rbdock.cxx#4 $)

>  <Rbt.Library>
libRbt.so (2013.1, Build901 2013/11/27)

>  <Rbt.Parameter_File>
/export/apps/rDock/src/rDock_2013.1_src/data/scripts/dock_solv.prm

>  <Rbt.Receptor>
prm/blind_docking_80.prm

>  <SCORE>
-6.72302

>  <SCORE.INTER>
-6.72302

>  <SCORE.INTER.CONST>
1

>  <SCORE.INTER.POLAR>
0

>  <SCORE.INTER.ROT>
0

>  <SCORE.INTER.SOLV>
8.66476

>  <SCORE.INTER.VDW>
-10.9703

>  <SCORE.INTER.norm>
-0.840378

>  <SCORE.INTRA>
0

>  <SCORE.INTRA.DIHEDRAL>
0

>  <SCORE.INTRA.DIHEDRAL.0>
0

>  <SCORE.INTRA.POLAR>
0

>  <SCORE.INTRA.POLAR.0>
0

>  <SCORE.INTRA.REPUL>
0

>  <SCORE.INTRA.REPUL.0>
0

>  <SCORE.INTRA.SOLV>
0

>  <SCORE.INTRA.SOLV.lig_0>
-29.58

>  <SCORE.INTRA.VDW>
0

>  <SCORE.INTRA.VDW.0>
0

>  <SCORE.INTRA.norm>
0

>  <SCORE.RESTR>
0

>  <SCORE.RESTR.CAVITY>
0

>  <SCORE.RESTR.norm>
0

>  <SCORE.SYSTEM>
0

>  <SCORE.SYSTEM.CONST>
0

>  <SCORE.SYSTEM.DIHEDRAL>
0

>  <SCORE.SYSTEM.SOLV>
0

>  <SCORE.SYSTEM.norm>
0

>  <SCORE.heavy>
8

>  <SCORE.norm>
-0.840378

>  <RMSD>
3.180

$$$$
ligand
 OpenBabel02271912143D
libRbt.so/2013.1/901 2013/11/27
  8  8  0  0  0  0  0  0  0  0999 V2000
    9.8668   11.0449   -1.1997 C   0  0  0  0  0  0  0  0  0  0  0  0
   10.0540   12.3329   -0.9127 N   0  0  0  0  0  0  0  0  0  0  0  0
   10.4044   12.6904    0.3255 C   0  0  0  0  0  0  0  0  0  0  0  0
   10.5841   11.7490    1.2813 N   0  0  0  0  0  0  0  0  0  0  0  0
   10.3866   10.4542    0.9812 C   0  0  0  0  0  0  0  0  0  0  0  0
   10.0313   10.0965   -0.2625 N   0  0  0  0  0  0  0  0  0  0  0  0
   10.6007   14.1276    0.6090 N   0  0  0  0  0  0  0  0  0  0  0  0
    9.5136   10.7217   -2.4650 O   0  0  0  0  0  0  0  0  0  0  0  0
  1  2  1  0  0  0  0
  1  6  1  0  0  0  0
  1  8  2  0  0  0  0
  2  3  1  0  0  0  0
  3  4  2  0  0  0  0
  3  7  1  0  0  0  0
  4  5  1  0  0  0  0
  5  6  2  0  0  0  0
M  END
>  <CHROM.1>
10.16571874,11.64914864,-0.26039457,2.65177419,1.30269375,2.82878592

>  <Name>
ligand

>  <RI>
0

>  <Rbt.Current_Directory>
/home/itssahil/PROJECTS/Mol_Feturizer/Test_systems_manuscript/rnas/3la5

>  <Rbt.Executable>
rbdock ($Id: //depot/dev/client3/rdock/2013.1/src/exe/rbdock.cxx#4 $)

>  <Rbt.Library>
libRbt.so (2013.1, Build901 2013/11/27)

>  <Rbt.Parameter_File>
/export/apps/rDock/src/rDock_2013.1_src/data/scripts/dock_solv.prm

>  <Rbt.Receptor>
prm/pocket_docking_5.prm

>  <SCORE>
-6.71198

>  <SCORE.INTER>
-6.71198

>  <SCORE.INTER.CONST>
1

>  <SCORE.INTER.POLAR>
0

>  <SCORE.INTER.ROT>
0

>  <SCORE.INTER.SOLV>
8.69033

>  <SCORE.INTER.VDW>
-10.9714

>  <SCORE.INTER.norm>
-0.838997

>  <SCORE.INTRA>
0

>  <SCORE.INTRA.DIHEDRAL>
0

>  <SCORE.INTRA.DIHEDRAL.0>
0

>  <SCORE.INTRA.POLAR>
0

>  <SCORE.INTRA.POLAR.0>
0

>  <SCORE.INTRA.REPUL>
0

>  <SCORE.INTRA.REPUL.0>
0

>  <SCORE.INTRA.SOLV>
0

>  <SCORE.INTRA.SOLV.lig_0>
-29.58

>  <SCORE.INTRA.VDW>
0

>  <SCORE.INTRA.VDW.0>
0

>  <SCORE.INTRA.norm>
0

>  <SCORE.RESTR>
0

>  <SCORE.RESTR.CAVITY>
0

>  <SCORE.RESTR.norm>
0

>  <SCORE.SYSTEM>
0

>  <SCORE.SYSTEM.CONST>
0

>  <SCORE.SYSTEM.DIHEDRAL>
0

>  <SCORE.SYSTEM.SOLV>
0

>  <SCORE.SYSTEM.norm>
0

>  <SCORE.heavy>
8

>  <SCORE.norm>
-0.838997

>  <RMSD>
3.180

$$$$
ligand
 OpenBabel02271912143D
libRbt.so/2013.1/901 2013/11/27
  8  8  0  0  0  0  0  0  0  0999 V2000
    9.8679   11.0125   -1.2306 C   0  0  0  0  0  0  0  0  0  0  0  0
   10.0074   12.3010   -0.9196 N   0  0  0  0  0  0  0  0  0  0  0  0
   10.3175   12.6493    0.3320 C   0  0  0  0  0  0  0  0  0  0  0  0
   10.5047   11.6988    1.2771 N   0  0  0  0  0  0  0  0  0  0  0  0
   10.3553   10.4035    0.9526 C   0  0  0  0  0  0  0  0  0  0  0  0
   10.0405   10.0548   -0.3045 N   0  0  0  0  0  0  0  0  0  0  0  0
   10.4614   14.0873    0.6420 N   0  0  0  0  0  0  0  0  0  0  0  0
    9.5546   10.6988   -2.5088 O   0  0  0  0  0  0  0  0  0  0  0  0
  1  2  1  0  0  0  0
  1  6  1  0  0  0  0
  1  8  2  0  0  0  0
  2  3  1  0  0  0  0
  3  4  2  0  0  0  0
  3  7  1  0  0  0  0
  4  5  1  0  0  0  0
  5  6  2  0  0  0  0
M  END
>  <CHROM.1>
10.12558737,11.61069235,-0.27538238,2.55370358,1.33346144,2.93946795

>  <Name>
ligand

>  <RI>
0

>  <Rbt.Current_Directory>
/home/itssahil/PROJECTS/Mol_Feturizer/Test_systems_manuscript/rnas/3la5

>  <Rbt.Executable>
rbdock ($Id: //depot/dev/client3/rdock/2013.1/src/exe/rbdock.cxx#4 $)

>  <Rbt.Library>
libRbt.so (2013.1, Build901 2013/11/27)

>  <Rbt.Parameter_File>
/export/apps/rDock/src/rDock_2013.1_src/data/scripts/dock_solv.prm

>  <Rbt.Receptor>
prm/blind_docking_100.prm

>  <SCORE>
-6.70458

>  <SCORE.INTER>
-6.70458

>  <SCORE.INTER.CONST>
1

>  <SCORE.INTER.POLAR>
0

>  <SCORE.INTER.ROT>
0

>  <SCORE.INTER.SOLV>
8.59075

>  <SCORE.INTER.VDW>
-10.9333

>  <SCORE.INTER.norm>
-0.838072

>  <SCORE.INTRA>
0

>  <SCORE.INTRA.DIHEDRAL>
0

>  <SCORE.INTRA.DIHEDRAL.0>
0

>  <SCORE.INTRA.POLAR>
0

>  <SCORE.INTRA.POLAR.0>
0

>  <SCORE.INTRA.REPUL>
0

>  <SCORE.INTRA.REPUL.0>
0

>  <SCORE.INTRA.SOLV>
0

>  <SCORE.INTRA.SOLV.lig_0>
-29.58

>  <SCORE.INTRA.VDW>
0

>  <SCORE.INTRA.VDW.0>
0

>  <SCORE.INTRA.norm>
0

>  <SCORE.RESTR>
0

>  <SCORE.RESTR.CAVITY>
0

>  <SCORE.RESTR.norm>
0

>  <SCORE.SYSTEM>
0

>  <SCORE.SYSTEM.CONST>
0

>  <SCORE.SYSTEM.DIHEDRAL>
0

>  <SCORE.SYSTEM.SOLV>
0

>  <SCORE.SYSTEM.norm>
0

>  <SCORE.heavy>
8

>  <SCORE.norm>
-0.838072

>  <RMSD>
3.181

$$$$
ligand
 OpenBabel02271912143D
libRbt.so/2013.1/901 2013/11/27
  8  8  0  0  0  0  0  0  0  0999 V2000
    9.8477   11.0382   -1.1726 C   0  0  0  0  0  0  0  0  0  0  0  0
   10.0293   12.3286   -0.8927 N   0  0  0  0  0  0  0  0  0  0  0  0
   10.3842   12.6938    0.3421 C   0  0  0  0  0  0  0  0  0  0  0  0
   10.5741   11.7579    1.3013 N   0  0  0  0  0  0  0  0  0  0  0  0
   10.3821   10.4607    1.0083 C   0  0  0  0  0  0  0  0  0  0  0  0
   10.0222   10.0951   -0.2318 N   0  0  0  0  0  0  0  0  0  0  0  0
   10.5740   14.1334    0.6178 N   0  0  0  0  0  0  0  0  0  0  0  0
    9.4896   10.7071   -2.4345 O   0  0  0  0  0  0  0  0  0  0  0  0
  1  2  1  0  0  0  0
  1  6  1  0  0  0  0
  1  8  2  0  0  0  0
  2  3  1  0  0  0  0
  3  4  2  0  0  0  0
  3  7  1  0  0  0  0
  4  5  1  0  0  0  0
  5  6  2  0  0  0  0
M  END
>  <CHROM.1>
10.14817963,11.64850564,-0.23772450,2.62629576,1.29933518,2.84863393

>  <Name>
ligand

>  <RI>
0

>  <Rbt.Current_Directory>
/home/itssahil/PROJECTS/Mol_Feturizer/Test_systems_manuscript/rnas/3la5

>  <Rbt.Executable>
rbdock ($Id: //depot/dev/client3/rdock/2013.1/src/exe/rbdock.cxx#4 $)

>  <Rbt.Library>
libRbt.so (2013.1, Build901 2013/11/27)

>  <Rbt.Parameter_File>
/export/apps/rDock/src/rDock_2013.1_src/data/scripts/dock_solv.prm

>  <Rbt.Receptor>
prm/blind_docking_40.prm

>  <SCORE>
-6.75562

>  <SCORE.INTER>
-6.75562

>  <SCORE.INTER.CONST>
1

>  <SCORE.INTER.POLAR>
0

>  <SCORE.INTER.ROT>
0

>  <SCORE.INTER.SOLV>
8.64387

>  <SCORE.INTER.VDW>
-10.985

>  <SCORE.INTER.norm>
-0.844452

>  <SCORE.INTRA>
0

>  <SCORE.INTRA.DIHEDRAL>
0

>  <SCORE.INTRA.DIHEDRAL.0>
0

>  <SCORE.INTRA.POLAR>
0

>  <SCORE.INTRA.POLAR.0>
0

>  <SCORE.INTRA.REPUL>
0

>  <SCORE.INTRA.REPUL.0>
0

>  <SCORE.INTRA.SOLV>
0

>  <SCORE.INTRA.SOLV.lig_0>
-29.58

>  <SCORE.INTRA.VDW>
0

>  <SCORE.INTRA.VDW.0>
0

>  <SCORE.INTRA.norm>
0

>  <SCORE.RESTR>
0

>  <SCORE.RESTR.CAVITY>
0

>  <SCORE.RESTR.norm>
0

>  <SCORE.SYSTEM>
0

>  <SCORE.SYSTEM.CONST>
0

>  <SCORE.SYSTEM.DIHEDRAL>
0

>  <SCORE.SYSTEM.SOLV>
0

>  <SCORE.SYSTEM.norm>
0

>  <SCORE.heavy>
8

>  <SCORE.norm>
-0.844452

>  <RMSD>
3.181

$$$$
ligand
 OpenBabel02271912143D
libRbt.so/2013.1/901 2013/11/27
  8  8  0  0  0  0  0  0  0  0999 V2000
    9.8508   11.0331   -1.1802 C   0  0  0  0  0  0  0  0  0  0  0  0
   10.0325   12.3223   -0.8952 N   0  0  0  0  0  0  0  0  0  0  0  0
   10.3937   12.6820    0.3394 C   0  0  0  0  0  0  0  0  0  0  0  0
   10.5899   11.7417    1.2930 N   0  0  0  0  0  0  0  0  0  0  0  0
   10.3977   10.4457    0.9948 C   0  0  0  0  0  0  0  0  0  0  0  0
   10.0315   10.0857   -0.2450 N   0  0  0  0  0  0  0  0  0  0  0  0
   10.5835   14.1205    0.6210 N   0  0  0  0  0  0  0  0  0  0  0  0
    9.4862   10.7076   -2.4418 O   0  0  0  0  0  0  0  0  0  0  0  0
  1  2  1  0  0  0  0
  1  6  1  0  0  0  0
  1  8  2  0  0  0  0
  2  3  1  0  0  0  0
  3  4  2  0  0  0  0
  3  7  1  0  0  0  0
  4  5  1  0  0  0  0
  5  6  2  0  0  0  0
M  END
>  <CHROM.1>
10.15568521,11.63924829,-0.24413975,2.61660301,1.29439740,2.86277382

>  <Name>
ligand

>  <RI>
0

>  <Rbt.Current_Directory>
/home/itssahil/PROJECTS/Mol_Feturizer/Test_systems_manuscript/rnas/3la5

>  <Rbt.Executable>
rbdock ($Id: //depot/dev/client3/rdock/2013.1/src/exe/rbdock.cxx#4 $)

>  <Rbt.Library>
libRbt.so (2013.1, Build901 2013/11/27)

>  <Rbt.Parameter_File>
/export/apps/rDock/src/rDock_2013.1_src/data/scripts/dock_solv.prm

>  <Rbt.Receptor>
prm/pocket_docking_3.prm

>  <SCORE>
-6.75455

>  <SCORE.INTER>
-6.75455

>  <SCORE.INTER.CONST>
1

>  <SCORE.INTER.POLAR>
0

>  <SCORE.INTER.ROT>
0

>  <SCORE.INTER.SOLV>
8.67525

>  <SCORE.INTER.VDW>
-10.9948

>  <SCORE.INTER.norm>
-0.844318

>  <SCORE.INTRA>
0

>  <SCORE.INTRA.DIHEDRAL>
0

>  <SCORE.INTRA.DIHEDRAL.0>
0

>  <SCORE.INTRA.POLAR>
0

>  <SCORE.INTRA.POLAR.0>
0

>  <SCORE.INTRA.REPUL>
0

>  <SCORE.INTRA.REPUL.0>
0

>  <SCORE.INTRA.SOLV>
0

>  <SCORE.INTRA.SOLV.lig_0>
-29.58

>  <SCORE.INTRA.VDW>
0

>  <SCORE.INTRA.VDW.0>
0

>  <SCORE.INTRA.norm>
0

>  <SCORE.RESTR>
0

>  <SCORE.RESTR.CAVITY>
0

>  <SCORE.RESTR.norm>
0

>  <SCORE.SYSTEM>
0

>  <SCORE.SYSTEM.CONST>
0

>  <SCORE.SYSTEM.DIHEDRAL>
0

>  <SCORE.SYSTEM.SOLV>
0

>  <SCORE.SYSTEM.norm>
0

>  <SCORE.heavy>
8

>  <SCORE.norm>
-0.844318

>  <RMSD>
3.181

$$$$
ligand
 OpenBabel02271912143D
libRbt.so/2013.1/901 2013/11/27
  8  8  0  0  0  0  0  0  0  0999 V2000
    9.8525   11.0327   -1.1764 C   0  0  0  0  0  0  0  0  0  0  0  0
   10.0322   12.3226   -0.8933 N   0  0  0  0  0  0  0  0  0  0  0  0
   10.3914   12.6848    0.3410 C   0  0  0  0  0  0  0  0  0  0  0  0
   10.5875   11.7464    1.2965 N   0  0  0  0  0  0  0  0  0  0  0  0
   10.3974   10.4497    1.0003 C   0  0  0  0  0  0  0  0  0  0  0  0
   10.0332   10.0871   -0.2394 N   0  0  0  0  0  0  0  0  0  0  0  0
   10.5790   14.1241    0.6204 N   0  0  0  0  0  0  0  0  0  0  0  0
    9.4899   10.7046   -2.4379 O   0  0  0  0  0  0  0  0  0  0  0  0
  1  2  1  0  0  0  0
  1  6  1  0  0  0  0
  1  8  2  0  0  0  0
  2  3  1  0  0  0  0
  3  4  2  0  0  0  0
  3  7  1  0  0  0  0
  4  5  1  0  0  0  0
  5  6  2  0  0  0  0
M  END
>  <CHROM.1>
10.15542822,11.64081040,-0.24099584,2.61340062,1.29596911,2.86415388

>  <Name>
ligand

>  <RI>
0

>  <Rbt.Current_Directory>
/home/itssahil/PROJECTS/Mol_Feturizer/Test_systems_manuscript/rnas/3la5

>  <Rbt.Executable>
rbdock ($Id: //depot/dev/client3/rdock/2013.1/src/exe/rbdock.cxx#4 $)

>  <Rbt.Library>
libRbt.so (2013.1, Build901 2013/11/27)

>  <Rbt.Parameter_File>
/export/apps/rDock/src/rDock_2013.1_src/data/scripts/dock_solv.prm

>  <Rbt.Receptor>
prm/pocket_docking_5.prm

>  <SCORE>
-6.75418

>  <SCORE.INTER>
-6.75418

>  <SCORE.INTER.CONST>
1

>  <SCORE.INTER.POLAR>
0

>  <SCORE.INTER.ROT>
0

>  <SCORE.INTER.SOLV>
8.66138

>  <SCORE.INTER.VDW>
-10.9899

>  <SCORE.INTER.norm>
-0.844273

>  <SCORE.INTRA>
0

>  <SCORE.INTRA.DIHEDRAL>
0

>  <SCORE.INTRA.DIHEDRAL.0>
0

>  <SCORE.INTRA.POLAR>
0

>  <SCORE.INTRA.POLAR.0>
0

>  <SCORE.INTRA.REPUL>
0

>  <SCORE.INTRA.REPUL.0>
0

>  <SCORE.INTRA.SOLV>
0

>  <SCORE.INTRA.SOLV.lig_0>
-29.58

>  <SCORE.INTRA.VDW>
0

>  <SCORE.INTRA.VDW.0>
0

>  <SCORE.INTRA.norm>
0

>  <SCORE.RESTR>
0

>  <SCORE.RESTR.CAVITY>
0

>  <SCORE.RESTR.norm>
0

>  <SCORE.SYSTEM>
0

>  <SCORE.SYSTEM.CONST>
0

>  <SCORE.SYSTEM.DIHEDRAL>
0

>  <SCORE.SYSTEM.SOLV>
0

>  <SCORE.SYSTEM.norm>
0

>  <SCORE.heavy>
8

>  <SCORE.norm>
-0.844273

>  <RMSD>
3.181

$$$$
ligand
 OpenBabel02271912143D
libRbt.so/2013.1/901 2013/11/27
  8  8  0  0  0  0  0  0  0  0999 V2000
    9.8504   11.0241   -1.2326 C   0  0  0  0  0  0  0  0  0  0  0  0
   10.0147   12.3100   -0.9231 N   0  0  0  0  0  0  0  0  0  0  0  0
   10.3388   12.6531    0.3264 C   0  0  0  0  0  0  0  0  0  0  0  0
   10.5151   11.6997    1.2708 N   0  0  0  0  0  0  0  0  0  0  0  0
   10.3408   10.4072    0.9478 C   0  0  0  0  0  0  0  0  0  0  0  0
   10.0119   10.0637   -0.3072 N   0  0  0  0  0  0  0  0  0  0  0  0
   10.5102   14.0884    0.6350 N   0  0  0  0  0  0  0  0  0  0  0  0
    9.5235   10.7155   -2.5087 O   0  0  0  0  0  0  0  0  0  0  0  0
  1  2  1  0  0  0  0
  1  6  1  0  0  0  0
  1  8  2  0  0  0  0
  2  3  1  0  0  0  0
  3  4  2  0  0  0  0
  3  7  1  0  0  0  0
  4  5  1  0  0  0  0
  5  6  2  0  0  0  0
M  END
>  <CHROM.1>
10.12472001,11.61787901,-0.27926332,2.61939082,1.32320242,2.87533642

>  <Name>
ligand

>  <RI>
0

>  <Rbt.Current_Directory>
/home/itssahil/PROJECTS/Mol_Feturizer/Test_systems_manuscript/rnas/3la5

>  <Rbt.Executable>
rbdock ($Id: //depot/dev/client3/rdock/2013.1/src/exe/rbdock.cxx#4 $)

>  <Rbt.Library>
libRbt.so (2013.1, Build901 2013/11/27)

>  <Rbt.Parameter_File>
/export/apps/rDock/src/rDock_2013.1_src/data/scripts/dock_solv.prm

>  <Rbt.Receptor>
prm/blind_docking_20.prm

>  <SCORE>
-6.75249

>  <SCORE.INTER>
-6.75249

>  <SCORE.INTER.CONST>
1

>  <SCORE.INTER.POLAR>
0

>  <SCORE.INTER.ROT>
0

>  <SCORE.INTER.SOLV>
8.64771

>  <SCORE.INTER.VDW>
-10.9842

>  <SCORE.INTER.norm>
-0.844062

>  <SCORE.INTRA>
0

>  <SCORE.INTRA.DIHEDRAL>
0

>  <SCORE.INTRA.DIHEDRAL.0>
0

>  <SCORE.INTRA.POLAR>
0

>  <SCORE.INTRA.POLAR.0>
0

>  <SCORE.INTRA.REPUL>
0

>  <SCORE.INTRA.REPUL.0>
0

>  <SCORE.INTRA.SOLV>
0

>  <SCORE.INTRA.SOLV.lig_0>
-29.58

>  <SCORE.INTRA.VDW>
0

>  <SCORE.INTRA.VDW.0>
0

>  <SCORE.INTRA.norm>
0

>  <SCORE.RESTR>
0

>  <SCORE.RESTR.CAVITY>
0

>  <SCORE.RESTR.norm>
0

>  <SCORE.SYSTEM>
0

>  <SCORE.SYSTEM.CONST>
0

>  <SCORE.SYSTEM.DIHEDRAL>
0

>  <SCORE.SYSTEM.SOLV>
0

>  <SCORE.SYSTEM.norm>
0

>  <SCORE.heavy>
8

>  <SCORE.norm>
-0.844062

>  <RMSD>
3.182

$$$$
ligand
 OpenBabel02271912143D
libRbt.so/2013.1/901 2013/11/27
  8  8  0  0  0  0  0  0  0  0999 V2000
    9.8483   11.0514   -1.1761 C   0  0  0  0  0  0  0  0  0  0  0  0
   10.0484   12.3408   -0.9042 N   0  0  0  0  0  0  0  0  0  0  0  0
   10.3812   12.7113    0.3351 C   0  0  0  0  0  0  0  0  0  0  0  0
   10.5303   11.7814    1.3073 N   0  0  0  0  0  0  0  0  0  0  0  0
   10.3199   10.4854    1.0221 C   0  0  0  0  0  0  0  0  0  0  0  0
    9.9823   10.1145   -0.2227 N   0  0  0  0  0  0  0  0  0  0  0  0
   10.5926   14.1497    0.6016 N   0  0  0  0  0  0  0  0  0  0  0  0
    9.5136   10.7148   -2.4431 O   0  0  0  0  0  0  0  0  0  0  0  0
  1  2  1  0  0  0  0
  1  6  1  0  0  0  0
  1  8  2  0  0  0  0
  2  3  1  0  0  0  0
  3  4  2  0  0  0  0
  3  7  1  0  0  0  0
  4  5  1  0  0  0  0
  5  6  2  0  0  0  0
M  END
>  <CHROM.1>
10.13856366,11.66507296,-0.24026287,2.72694687,1.31494970,2.74179404

>  <Name>
ligand

>  <RI>
0

>  <Rbt.Current_Directory>
/home/itssahil/PROJECTS/Mol_Feturizer/Test_systems_manuscript/rnas/3la5

>  <Rbt.Executable>
rbdock ($Id: //depot/dev/client3/rdock/2013.1/src/exe/rbdock.cxx#4 $)

>  <Rbt.Library>
libRbt.so (2013.1, Build901 2013/11/27)

>  <Rbt.Parameter_File>
/export/apps/rDock/src/rDock_2013.1_src/data/scripts/dock_solv.prm

>  <Rbt.Receptor>
prm/blind_docking_40.prm

>  <SCORE>
-6.70921

>  <SCORE.INTER>
-6.70921

>  <SCORE.INTER.CONST>
1

>  <SCORE.INTER.POLAR>
0

>  <SCORE.INTER.ROT>
0

>  <SCORE.INTER.SOLV>
8.62816

>  <SCORE.INTER.VDW>
-10.9489

>  <SCORE.INTER.norm>
-0.838651

>  <SCORE.INTRA>
0

>  <SCORE.INTRA.DIHEDRAL>
0

>  <SCORE.INTRA.DIHEDRAL.0>
0

>  <SCORE.INTRA.POLAR>
0

>  <SCORE.INTRA.POLAR.0>
0

>  <SCORE.INTRA.REPUL>
0

>  <SCORE.INTRA.REPUL.0>
0

>  <SCORE.INTRA.SOLV>
0

>  <SCORE.INTRA.SOLV.lig_0>
-29.58

>  <SCORE.INTRA.VDW>
0

>  <SCORE.INTRA.VDW.0>
0

>  <SCORE.INTRA.norm>
0

>  <SCORE.RESTR>
0

>  <SCORE.RESTR.CAVITY>
0

>  <SCORE.RESTR.norm>
0

>  <SCORE.SYSTEM>
0

>  <SCORE.SYSTEM.CONST>
0

>  <SCORE.SYSTEM.DIHEDRAL>
0

>  <SCORE.SYSTEM.SOLV>
0

>  <SCORE.SYSTEM.norm>
0

>  <SCORE.heavy>
8

>  <SCORE.norm>
-0.838651

>  <RMSD>
3.182

$$$$
ligand
 OpenBabel02271912143D
libRbt.so/2013.1/901 2013/11/27
  8  8  0  0  0  0  0  0  0  0999 V2000
    9.9002   11.1125   -0.7523 C   0  0  0  0  0  0  0  0  0  0  0  0
   10.0700   12.4304   -0.6489 N   0  0  0  0  0  0  0  0  0  0  0  0
   10.5372   12.9495    0.4896 C   0  0  0  0  0  0  0  0  0  0  0  0
   10.8517   12.1409    1.5285 N   0  0  0  0  0  0  0  0  0  0  0  0
   10.6704   10.8145    1.4140 C   0  0  0  0  0  0  0  0  0  0  0  0
   10.1979   10.2942    0.2707 N   0  0  0  0  0  0  0  0  0  0  0  0
   10.7102   14.4152    0.5703 N   0  0  0  0  0  0  0  0  0  0  0  0
    9.4262   10.6238   -1.9215 O   0  0  0  0  0  0  0  0  0  0  0  0
  1  2  1  0  0  0  0
  1  6  1  0  0  0  0
  1  8  2  0  0  0  0
  2  3  1  0  0  0  0
  3  4  2  0  0  0  0
  3  7  1  0  0  0  0
  4  5  1  0  0  0  0
  5  6  2  0  0  0  0
M  END
>  <CHROM.1>
10.27535788,11.83734654,0.06649333,2.46182928,1.20617935,2.88388972

>  <Name>
ligand

>  <RI>
0

>  <Rbt.Current_Directory>
/home/itssahil/PROJECTS/Mol_Feturizer/Test_systems_manuscript/rnas/3la5

>  <Rbt.Executable>
rbdock ($Id: //depot/dev/client3/rdock/2013.1/src/exe/rbdock.cxx#4 $)

>  <Rbt.Library>
libRbt.so (2013.1, Build901 2013/11/27)

>  <Rbt.Parameter_File>
/export/apps/rDock/src/rDock_2013.1_src/data/scripts/dock_solv.prm

>  <Rbt.Receptor>
prm/pocket_docking_3.prm

>  <SCORE>
-6.54745

>  <SCORE.INTER>
-6.54745

>  <SCORE.INTER.CONST>
1

>  <SCORE.INTER.POLAR>
0

>  <SCORE.INTER.ROT>
0

>  <SCORE.INTER.SOLV>
8.29837

>  <SCORE.INTER.VDW>
-10.7311

>  <SCORE.INTER.norm>
-0.818431

>  <SCORE.INTRA>
0

>  <SCORE.INTRA.DIHEDRAL>
0

>  <SCORE.INTRA.DIHEDRAL.0>
0

>  <SCORE.INTRA.POLAR>
0

>  <SCORE.INTRA.POLAR.0>
0

>  <SCORE.INTRA.REPUL>
0

>  <SCORE.INTRA.REPUL.0>
0

>  <SCORE.INTRA.SOLV>
0

>  <SCORE.INTRA.SOLV.lig_0>
-29.58

>  <SCORE.INTRA.VDW>
0

>  <SCORE.INTRA.VDW.0>
0

>  <SCORE.INTRA.norm>
0

>  <SCORE.RESTR>
0

>  <SCORE.RESTR.CAVITY>
0

>  <SCORE.RESTR.norm>
0

>  <SCORE.SYSTEM>
0

>  <SCORE.SYSTEM.CONST>
0

>  <SCORE.SYSTEM.DIHEDRAL>
0

>  <SCORE.SYSTEM.SOLV>
0

>  <SCORE.SYSTEM.norm>
0

>  <SCORE.heavy>
8

>  <SCORE.norm>
-0.818431

>  <RMSD>
3.182

$$$$
ligand
 OpenBabel02271912143D
libRbt.so/2013.1/901 2013/11/27
  8  8  0  0  0  0  0  0  0  0999 V2000
    9.8966   11.0748   -1.1781 C   0  0  0  0  0  0  0  0  0  0  0  0
   10.1039   12.3662   -0.9214 N   0  0  0  0  0  0  0  0  0  0  0  0
   10.4224   12.7512    0.3173 C   0  0  0  0  0  0  0  0  0  0  0  0
   10.5496   11.8339    1.3044 N   0  0  0  0  0  0  0  0  0  0  0  0
   10.3323   10.5357    1.0343 C   0  0  0  0  0  0  0  0  0  0  0  0
   10.0091   10.1503   -0.2099 N   0  0  0  0  0  0  0  0  0  0  0  0
   10.6422   14.1914    0.5668 N   0  0  0  0  0  0  0  0  0  0  0  0
    9.5770   10.7233   -2.4449 O   0  0  0  0  0  0  0  0  0  0  0  0
  1  2  1  0  0  0  0
  1  6  1  0  0  0  0
  1  8  2  0  0  0  0
  2  3  1  0  0  0  0
  3  4  2  0  0  0  0
  3  7  1  0  0  0  0
  4  5  1  0  0  0  0
  5  6  2  0  0  0  0
M  END
>  <CHROM.1>
10.17891419,11.69908749,-0.24682793,2.78195169,1.32429722,2.67453201

>  <Name>
ligand

>  <RI>
0

>  <Rbt.Current_Directory>
/home/itssahil/PROJECTS/Mol_Feturizer/Test_systems_manuscript/rnas/3la5

>  <Rbt.Executable>
rbdock ($Id: //depot/dev/client3/rdock/2013.1/src/exe/rbdock.cxx#4 $)

>  <Rbt.Library>
libRbt.so (2013.1, Build901 2013/11/27)

>  <Rbt.Parameter_File>
/export/apps/rDock/src/rDock_2013.1_src/data/scripts/dock_solv.prm

>  <Rbt.Receptor>
prm/pocket_docking_3.prm

>  <SCORE>
-6.73021

>  <SCORE.INTER>
-6.73021

>  <SCORE.INTER.CONST>
1

>  <SCORE.INTER.POLAR>
0

>  <SCORE.INTER.ROT>
0

>  <SCORE.INTER.SOLV>
8.63223

>  <SCORE.INTER.VDW>
-10.9642

>  <SCORE.INTER.norm>
-0.841277

>  <SCORE.INTRA>
0

>  <SCORE.INTRA.DIHEDRAL>
0

>  <SCORE.INTRA.DIHEDRAL.0>
0

>  <SCORE.INTRA.POLAR>
0

>  <SCORE.INTRA.POLAR.0>
0

>  <SCORE.INTRA.REPUL>
0

>  <SCORE.INTRA.REPUL.0>
0

>  <SCORE.INTRA.SOLV>
0

>  <SCORE.INTRA.SOLV.lig_0>
-29.58

>  <SCORE.INTRA.VDW>
0

>  <SCORE.INTRA.VDW.0>
0

>  <SCORE.INTRA.norm>
0

>  <SCORE.RESTR>
0

>  <SCORE.RESTR.CAVITY>
0

>  <SCORE.RESTR.norm>
0

>  <SCORE.SYSTEM>
0

>  <SCORE.SYSTEM.CONST>
0

>  <SCORE.SYSTEM.DIHEDRAL>
0

>  <SCORE.SYSTEM.SOLV>
0

>  <SCORE.SYSTEM.norm>
0

>  <SCORE.heavy>
8

>  <SCORE.norm>
-0.841277

>  <RMSD>
3.182

$$$$
ligand
 OpenBabel02271912143D
libRbt.so/2013.1/901 2013/11/27
  8  8  0  0  0  0  0  0  0  0999 V2000
    9.8515   11.0223   -1.2321 C   0  0  0  0  0  0  0  0  0  0  0  0
   10.0253   12.3074   -0.9241 N   0  0  0  0  0  0  0  0  0  0  0  0
   10.3615   12.6488    0.3227 C   0  0  0  0  0  0  0  0  0  0  0  0
   10.5405   11.6945    1.2656 N   0  0  0  0  0  0  0  0  0  0  0  0
   10.3565   10.4029    0.9442 C   0  0  0  0  0  0  0  0  0  0  0  0
   10.0155   10.0612   -0.3080 N   0  0  0  0  0  0  0  0  0  0  0  0
   10.5432   14.0832    0.6296 N   0  0  0  0  0  0  0  0  0  0  0  0
    9.5125   10.7155   -2.5054 O   0  0  0  0  0  0  0  0  0  0  0  0
  1  2  1  0  0  0  0
  1  6  1  0  0  0  0
  1  8  2  0  0  0  0
  2  3  1  0  0  0  0
  3  4  2  0  0  0  0
  3  7  1  0  0  0  0
  4  5  1  0  0  0  0
  5  6  2  0  0  0  0
M  END
>  <CHROM.1>
10.13686453,11.61468140,-0.28113793,2.63134929,1.31381947,2.86368434

>  <Name>
ligand

>  <RI>
0

>  <Rbt.Current_Directory>
/home/itssahil/PROJECTS/Mol_Feturizer/Test_systems_manuscript/rnas/3la5

>  <Rbt.Executable>
rbdock ($Id: //depot/dev/client3/rdock/2013.1/src/exe/rbdock.cxx#4 $)

>  <Rbt.Library>
libRbt.so (2013.1, Build901 2013/11/27)

>  <Rbt.Parameter_File>
/export/apps/rDock/src/rDock_2013.1_src/data/scripts/dock_solv.prm

>  <Rbt.Receptor>
prm/pocket_docking_4.prm

>  <SCORE>
-6.72308

>  <SCORE.INTER>
-6.72308

>  <SCORE.INTER.CONST>
1

>  <SCORE.INTER.POLAR>
0

>  <SCORE.INTER.ROT>
0

>  <SCORE.INTER.SOLV>
8.68351

>  <SCORE.INTER.VDW>
-10.9766

>  <SCORE.INTER.norm>
-0.840384

>  <SCORE.INTRA>
0

>  <SCORE.INTRA.DIHEDRAL>
0

>  <SCORE.INTRA.DIHEDRAL.0>
0

>  <SCORE.INTRA.POLAR>
0

>  <SCORE.INTRA.POLAR.0>
0

>  <SCORE.INTRA.REPUL>
0

>  <SCORE.INTRA.REPUL.0>
0

>  <SCORE.INTRA.SOLV>
0

>  <SCORE.INTRA.SOLV.lig_0>
-29.58

>  <SCORE.INTRA.VDW>
0

>  <SCORE.INTRA.VDW.0>
0

>  <SCORE.INTRA.norm>
0

>  <SCORE.RESTR>
0

>  <SCORE.RESTR.CAVITY>
0

>  <SCORE.RESTR.norm>
0

>  <SCORE.SYSTEM>
0

>  <SCORE.SYSTEM.CONST>
0

>  <SCORE.SYSTEM.DIHEDRAL>
0

>  <SCORE.SYSTEM.SOLV>
0

>  <SCORE.SYSTEM.norm>
0

>  <SCORE.heavy>
8

>  <SCORE.norm>
-0.840384

>  <RMSD>
3.182

$$$$
ligand
 OpenBabel02271912143D
libRbt.so/2013.1/901 2013/11/27
  8  8  0  0  0  0  0  0  0  0999 V2000
    9.8565   11.0298   -1.1765 C   0  0  0  0  0  0  0  0  0  0  0  0
   10.0329   12.3205   -0.8947 N   0  0  0  0  0  0  0  0  0  0  0  0
   10.3920   12.6848    0.3391 C   0  0  0  0  0  0  0  0  0  0  0  0
   10.5914   11.7479    1.2953 N   0  0  0  0  0  0  0  0  0  0  0  0
   10.4045   10.4503    1.0004 C   0  0  0  0  0  0  0  0  0  0  0  0
   10.0405   10.0856   -0.2387 N   0  0  0  0  0  0  0  0  0  0  0  0
   10.5759   14.1248    0.6170 N   0  0  0  0  0  0  0  0  0  0  0  0
    9.4939   10.6996   -2.4374 O   0  0  0  0  0  0  0  0  0  0  0  0
  1  2  1  0  0  0  0
  1  6  1  0  0  0  0
  1  8  2  0  0  0  0
  2  3  1  0  0  0  0
  3  4  2  0  0  0  0
  3  7  1  0  0  0  0
  4  5  1  0  0  0  0
  5  6  2  0  0  0  0
M  END
>  <CHROM.1>
10.15846033,11.63962242,-0.24181273,2.60303668,1.29600901,2.87320051

>  <Name>
ligand

>  <RI>
0

>  <Rbt.Current_Directory>
/home/itssahil/PROJECTS/Mol_Feturizer/Test_systems_manuscript/rnas/3la5

>  <Rbt.Executable>
rbdock ($Id: //depot/dev/client3/rdock/2013.1/src/exe/rbdock.cxx#4 $)

>  <Rbt.Library>
libRbt.so (2013.1, Build901 2013/11/27)

>  <Rbt.Parameter_File>
/export/apps/rDock/src/rDock_2013.1_src/data/scripts/dock_solv.prm

>  <Rbt.Receptor>
prm/pocket_docking_6.prm

>  <SCORE>
-6.75479

>  <SCORE.INTER>
-6.75479

>  <SCORE.INTER.CONST>
1

>  <SCORE.INTER.POLAR>
0

>  <SCORE.INTER.ROT>
0

>  <SCORE.INTER.SOLV>
8.65414

>  <SCORE.INTER.VDW>
-10.9879

>  <SCORE.INTER.norm>
-0.844348

>  <SCORE.INTRA>
0

>  <SCORE.INTRA.DIHEDRAL>
0

>  <SCORE.INTRA.DIHEDRAL.0>
0

>  <SCORE.INTRA.POLAR>
0

>  <SCORE.INTRA.POLAR.0>
0

>  <SCORE.INTRA.REPUL>
0

>  <SCORE.INTRA.REPUL.0>
0

>  <SCORE.INTRA.SOLV>
0

>  <SCORE.INTRA.SOLV.lig_0>
-29.58

>  <SCORE.INTRA.VDW>
0

>  <SCORE.INTRA.VDW.0>
0

>  <SCORE.INTRA.norm>
0

>  <SCORE.RESTR>
0

>  <SCORE.RESTR.CAVITY>
0

>  <SCORE.RESTR.norm>
0

>  <SCORE.SYSTEM>
0

>  <SCORE.SYSTEM.CONST>
0

>  <SCORE.SYSTEM.DIHEDRAL>
0

>  <SCORE.SYSTEM.SOLV>
0

>  <SCORE.SYSTEM.norm>
0

>  <SCORE.heavy>
8

>  <SCORE.norm>
-0.844348

>  <RMSD>
3.182

$$$$
ligand
 OpenBabel02271912143D
libRbt.so/2013.1/901 2013/11/27
  8  8  0  0  0  0  0  0  0  0999 V2000
    9.8488   11.0361   -1.1742 C   0  0  0  0  0  0  0  0  0  0  0  0
   10.0288   12.3266   -0.8939 N   0  0  0  0  0  0  0  0  0  0  0  0
   10.3867   12.6914    0.3401 C   0  0  0  0  0  0  0  0  0  0  0  0
   10.5810   11.7551    1.2980 N   0  0  0  0  0  0  0  0  0  0  0  0
   10.3906   10.4578    1.0045 C   0  0  0  0  0  0  0  0  0  0  0  0
   10.0278   10.0926   -0.2348 N   0  0  0  0  0  0  0  0  0  0  0  0
   10.5746   14.1312    0.6165 N   0  0  0  0  0  0  0  0  0  0  0  0
    9.4876   10.7053   -2.4354 O   0  0  0  0  0  0  0  0  0  0  0  0
  1  2  1  0  0  0  0
  1  6  1  0  0  0  0
  1  8  2  0  0  0  0
  2  3  1  0  0  0  0
  3  4  2  0  0  0  0
  3  7  1  0  0  0  0
  4  5  1  0  0  0  0
  5  6  2  0  0  0  0
M  END
>  <CHROM.1>
10.15085691,11.64618858,-0.23979891,2.61660462,1.29705805,2.85878260

>  <Name>
ligand

>  <RI>
0

>  <Rbt.Current_Directory>
/home/itssahil/PROJECTS/Mol_Feturizer/Test_systems_manuscript/rnas/3la5

>  <Rbt.Executable>
rbdock ($Id: //depot/dev/client3/rdock/2013.1/src/exe/rbdock.cxx#4 $)

>  <Rbt.Library>
libRbt.so (2013.1, Build901 2013/11/27)

>  <Rbt.Parameter_File>
/export/apps/rDock/src/rDock_2013.1_src/data/scripts/dock_solv.prm

>  <Rbt.Receptor>
prm/pocket_docking_8.prm

>  <SCORE>
-6.75559

>  <SCORE.INTER>
-6.75559

>  <SCORE.INTER.CONST>
1

>  <SCORE.INTER.POLAR>
0

>  <SCORE.INTER.ROT>
0

>  <SCORE.INTER.SOLV>
8.64863

>  <SCORE.INTER.VDW>
-10.9866

>  <SCORE.INTER.norm>
-0.844449

>  <SCORE.INTRA>
0

>  <SCORE.INTRA.DIHEDRAL>
0

>  <SCORE.INTRA.DIHEDRAL.0>
0

>  <SCORE.INTRA.POLAR>
0

>  <SCORE.INTRA.POLAR.0>
0

>  <SCORE.INTRA.REPUL>
0

>  <SCORE.INTRA.REPUL.0>
0

>  <SCORE.INTRA.SOLV>
0

>  <SCORE.INTRA.SOLV.lig_0>
-29.58

>  <SCORE.INTRA.VDW>
0

>  <SCORE.INTRA.VDW.0>
0

>  <SCORE.INTRA.norm>
0

>  <SCORE.RESTR>
0

>  <SCORE.RESTR.CAVITY>
0

>  <SCORE.RESTR.norm>
0

>  <SCORE.SYSTEM>
0

>  <SCORE.SYSTEM.CONST>
0

>  <SCORE.SYSTEM.DIHEDRAL>
0

>  <SCORE.SYSTEM.SOLV>
0

>  <SCORE.SYSTEM.norm>
0

>  <SCORE.heavy>
8

>  <SCORE.norm>
-0.844449

>  <RMSD>
3.182

$$$$
ligand
 OpenBabel02271912143D
libRbt.so/2013.1/901 2013/11/27
  8  8  0  0  0  0  0  0  0  0999 V2000
    9.8468   11.0779   -1.2905 C   0  0  0  0  0  0  0  0  0  0  0  0
   10.0645   12.3547   -0.9762 N   0  0  0  0  0  0  0  0  0  0  0  0
   10.3623   12.6840    0.2835 C   0  0  0  0  0  0  0  0  0  0  0  0
   10.4582   11.7250    1.2339 N   0  0  0  0  0  0  0  0  0  0  0  0
   10.2306   10.4421    0.9057 C   0  0  0  0  0  0  0  0  0  0  0  0
    9.9282   10.1127   -0.3596 N   0  0  0  0  0  0  0  0  0  0  0  0
   10.5946   14.1096    0.5971 N   0  0  0  0  0  0  0  0  0  0  0  0
    9.5488   10.7833   -2.5769 O   0  0  0  0  0  0  0  0  0  0  0  0
  1  2  1  0  0  0  0
  1  6  1  0  0  0  0
  1  8  2  0  0  0  0
  2  3  1  0  0  0  0
  3  4  2  0  0  0  0
  3  7  1  0  0  0  0
  4  5  1  0  0  0  0
  5  6  2  0  0  0  0
M  END
>  <CHROM.1>
10.11760665,11.65936807,-0.32862445,2.86840041,1.33617778,2.63208968

>  <Name>
ligand

>  <RI>
0

>  <Rbt.Current_Directory>
/home/itssahil/PROJECTS/Mol_Feturizer/Test_systems_manuscript/rnas/3la5

>  <Rbt.Executable>
rbdock ($Id: //depot/dev/client3/rdock/2013.1/src/exe/rbdock.cxx#4 $)

>  <Rbt.Library>
libRbt.so (2013.1, Build901 2013/11/27)

>  <Rbt.Parameter_File>
/export/apps/rDock/src/rDock_2013.1_src/data/scripts/dock_solv.prm

>  <Rbt.Receptor>
prm/blind_docking_100.prm

>  <SCORE>
-6.71692

>  <SCORE.INTER>
-6.71692

>  <SCORE.INTER.CONST>
1

>  <SCORE.INTER.POLAR>
0

>  <SCORE.INTER.ROT>
0

>  <SCORE.INTER.SOLV>
8.73581

>  <SCORE.INTER.VDW>
-10.9899

>  <SCORE.INTER.norm>
-0.839616

>  <SCORE.INTRA>
0

>  <SCORE.INTRA.DIHEDRAL>
0

>  <SCORE.INTRA.DIHEDRAL.0>
0

>  <SCORE.INTRA.POLAR>
0

>  <SCORE.INTRA.POLAR.0>
0

>  <SCORE.INTRA.REPUL>
0

>  <SCORE.INTRA.REPUL.0>
0

>  <SCORE.INTRA.SOLV>
0

>  <SCORE.INTRA.SOLV.lig_0>
-29.58

>  <SCORE.INTRA.VDW>
0

>  <SCORE.INTRA.VDW.0>
0

>  <SCORE.INTRA.norm>
0

>  <SCORE.RESTR>
0

>  <SCORE.RESTR.CAVITY>
0

>  <SCORE.RESTR.norm>
0

>  <SCORE.SYSTEM>
0

>  <SCORE.SYSTEM.CONST>
0

>  <SCORE.SYSTEM.DIHEDRAL>
0

>  <SCORE.SYSTEM.SOLV>
0

>  <SCORE.SYSTEM.norm>
0

>  <SCORE.heavy>
8

>  <SCORE.norm>
-0.839616

>  <RMSD>
3.183

$$$$
ligand
 OpenBabel02271912143D
libRbt.so/2013.1/901 2013/11/27
  8  8  0  0  0  0  0  0  0  0999 V2000
    9.8907   11.0439   -1.1349 C   0  0  0  0  0  0  0  0  0  0  0  0
   10.0845   12.3396   -0.8902 N   0  0  0  0  0  0  0  0  0  0  0  0
   10.4090   12.7383    0.3426 C   0  0  0  0  0  0  0  0  0  0  0  0
   10.5561   11.8305    1.3356 N   0  0  0  0  0  0  0  0  0  0  0  0
   10.3522   10.5277    1.0777 C   0  0  0  0  0  0  0  0  0  0  0  0
   10.0229   10.1285   -0.1606 N   0  0  0  0  0  0  0  0  0  0  0  0
   10.6135   14.1830    0.5788 N   0  0  0  0  0  0  0  0  0  0  0  0
    9.5643   10.6784   -2.3960 O   0  0  0  0  0  0  0  0  0  0  0  0
  1  2  1  0  0  0  0
  1  6  1  0  0  0  0
  1  8  2  0  0  0  0
  2  3  1  0  0  0  0
  3  4  2  0  0  0  0
  3  7  1  0  0  0  0
  4  5  1  0  0  0  0
  5  6  2  0  0  0  0
M  END
>  <CHROM.1>
10.17346257,11.67887365,-0.21109962,2.72183039,1.32152080,2.72491935

>  <Name>
ligand

>  <RI>
0

>  <Rbt.Current_Directory>
/home/itssahil/PROJECTS/Mol_Feturizer/Test_systems_manuscript/rnas/3la5

>  <Rbt.Executable>
rbdock ($Id: //depot/dev/client3/rdock/2013.1/src/exe/rbdock.cxx#4 $)

>  <Rbt.Library>
libRbt.so (2013.1, Build901 2013/11/27)

>  <Rbt.Parameter_File>
/export/apps/rDock/src/rDock_2013.1_src/data/scripts/dock_solv.prm

>  <Rbt.Receptor>
prm/pocket_docking_3.prm

>  <SCORE>
-6.73133

>  <SCORE.INTER>
-6.73133

>  <SCORE.INTER.CONST>
1

>  <SCORE.INTER.POLAR>
0

>  <SCORE.INTER.ROT>
0

>  <SCORE.INTER.SOLV>
8.56606

>  <SCORE.INTER.VDW>
-10.9429

>  <SCORE.INTER.norm>
-0.841417

>  <SCORE.INTRA>
0

>  <SCORE.INTRA.DIHEDRAL>
0

>  <SCORE.INTRA.DIHEDRAL.0>
0

>  <SCORE.INTRA.POLAR>
0

>  <SCORE.INTRA.POLAR.0>
0

>  <SCORE.INTRA.REPUL>
0

>  <SCORE.INTRA.REPUL.0>
0

>  <SCORE.INTRA.SOLV>
0

>  <SCORE.INTRA.SOLV.lig_0>
-29.58

>  <SCORE.INTRA.VDW>
0

>  <SCORE.INTRA.VDW.0>
0

>  <SCORE.INTRA.norm>
0

>  <SCORE.RESTR>
0

>  <SCORE.RESTR.CAVITY>
0

>  <SCORE.RESTR.norm>
0

>  <SCORE.SYSTEM>
0

>  <SCORE.SYSTEM.CONST>
0

>  <SCORE.SYSTEM.DIHEDRAL>
0

>  <SCORE.SYSTEM.SOLV>
0

>  <SCORE.SYSTEM.norm>
0

>  <SCORE.heavy>
8

>  <SCORE.norm>
-0.841417

>  <RMSD>
3.183

$$$$
ligand
 OpenBabel02271912143D
libRbt.so/2013.1/901 2013/11/27
  8  8  0  0  0  0  0  0  0  0999 V2000
    9.9048   11.0556   -1.1482 C   0  0  0  0  0  0  0  0  0  0  0  0
   10.0978   12.3502   -0.8968 N   0  0  0  0  0  0  0  0  0  0  0  0
   10.4662   12.7384    0.3269 C   0  0  0  0  0  0  0  0  0  0  0  0
   10.6582   11.8213    1.3036 N   0  0  0  0  0  0  0  0  0  0  0  0
   10.4547   10.5197    1.0394 C   0  0  0  0  0  0  0  0  0  0  0  0
   10.0813   10.1310   -0.1897 N   0  0  0  0  0  0  0  0  0  0  0  0
   10.6684   14.1821    0.5709 N   0  0  0  0  0  0  0  0  0  0  0  0
    9.5332   10.7009   -2.3998 O   0  0  0  0  0  0  0  0  0  0  0  0
  1  2  1  0  0  0  0
  1  6  1  0  0  0  0
  1  8  2  0  0  0  0
  2  3  1  0  0  0  0
  3  4  2  0  0  0  0
  3  7  1  0  0  0  0
  4  5  1  0  0  0  0
  5  6  2  0  0  0  0
M  END
>  <CHROM.1>
10.21783734,11.68301911,-0.22893475,2.64066171,1.28874969,2.81405826

>  <Name>
ligand

>  <RI>
0

>  <Rbt.Current_Directory>
/home/itssahil/PROJECTS/Mol_Feturizer/Test_systems_manuscript/rnas/3la5

>  <Rbt.Executable>
rbdock ($Id: //depot/dev/client3/rdock/2013.1/src/exe/rbdock.cxx#4 $)

>  <Rbt.Library>
libRbt.so (2013.1, Build901 2013/11/27)

>  <Rbt.Parameter_File>
/export/apps/rDock/src/rDock_2013.1_src/data/scripts/dock_solv.prm

>  <Rbt.Receptor>
prm/pocket_docking_4.prm

>  <SCORE>
-6.72845

>  <SCORE.INTER>
-6.72845

>  <SCORE.INTER.CONST>
1

>  <SCORE.INTER.POLAR>
0

>  <SCORE.INTER.ROT>
0

>  <SCORE.INTER.SOLV>
8.70345

>  <SCORE.INTER.VDW>
-10.9868

>  <SCORE.INTER.norm>
-0.841056

>  <SCORE.INTRA>
0

>  <SCORE.INTRA.DIHEDRAL>
0

>  <SCORE.INTRA.DIHEDRAL.0>
0

>  <SCORE.INTRA.POLAR>
0

>  <SCORE.INTRA.POLAR.0>
0

>  <SCORE.INTRA.REPUL>
0

>  <SCORE.INTRA.REPUL.0>
0

>  <SCORE.INTRA.SOLV>
0

>  <SCORE.INTRA.SOLV.lig_0>
-29.58

>  <SCORE.INTRA.VDW>
0

>  <SCORE.INTRA.VDW.0>
0

>  <SCORE.INTRA.norm>
0

>  <SCORE.RESTR>
0

>  <SCORE.RESTR.CAVITY>
0

>  <SCORE.RESTR.norm>
0

>  <SCORE.SYSTEM>
0

>  <SCORE.SYSTEM.CONST>
0

>  <SCORE.SYSTEM.DIHEDRAL>
0

>  <SCORE.SYSTEM.SOLV>
0

>  <SCORE.SYSTEM.norm>
0

>  <SCORE.heavy>
8

>  <SCORE.norm>
-0.841056

>  <RMSD>
3.183

$$$$
ligand
 OpenBabel02271912143D
libRbt.so/2013.1/901 2013/11/27
  8  8  0  0  0  0  0  0  0  0999 V2000
    9.8367   11.0446   -1.1704 C   0  0  0  0  0  0  0  0  0  0  0  0
   10.0249   12.3349   -0.8946 N   0  0  0  0  0  0  0  0  0  0  0  0
   10.3831   12.7020    0.3386 C   0  0  0  0  0  0  0  0  0  0  0  0
   10.5697   11.7681    1.3003 N   0  0  0  0  0  0  0  0  0  0  0  0
   10.3710   10.4710    1.0114 C   0  0  0  0  0  0  0  0  0  0  0  0
   10.0079   10.1035   -0.2272 N   0  0  0  0  0  0  0  0  0  0  0  0
   10.5803   14.1416    0.6098 N   0  0  0  0  0  0  0  0  0  0  0  0
    9.4754   10.7115   -2.4310 O   0  0  0  0  0  0  0  0  0  0  0  0
  1  2  1  0  0  0  0
  1  6  1  0  0  0  0
  1  8  2  0  0  0  0
  2  3  1  0  0  0  0
  3  4  2  0  0  0  0
  3  7  1  0  0  0  0
  4  5  1  0  0  0  0
  5  6  2  0  0  0  0
M  END
>  <CHROM.1>
10.14129643,11.65622039,-0.23778970,2.64205758,1.29669270,2.83050080

>  <Name>
ligand

>  <RI>
0

>  <Rbt.Current_Directory>
/home/itssahil/PROJECTS/Mol_Feturizer/Test_systems_manuscript/rnas/3la5

>  <Rbt.Executable>
rbdock ($Id: //depot/dev/client3/rdock/2013.1/src/exe/rbdock.cxx#4 $)

>  <Rbt.Library>
libRbt.so (2013.1, Build901 2013/11/27)

>  <Rbt.Parameter_File>
/export/apps/rDock/src/rDock_2013.1_src/data/scripts/dock_solv.prm

>  <Rbt.Receptor>
prm/pocket_docking_7.prm

>  <SCORE>
-6.7538

>  <SCORE.INTER>
-6.7538

>  <SCORE.INTER.CONST>
1

>  <SCORE.INTER.POLAR>
0

>  <SCORE.INTER.ROT>
0

>  <SCORE.INTER.SOLV>
8.64843

>  <SCORE.INTER.VDW>
-10.9853

>  <SCORE.INTER.norm>
-0.844225

>  <SCORE.INTRA>
0

>  <SCORE.INTRA.DIHEDRAL>
0

>  <SCORE.INTRA.DIHEDRAL.0>
0

>  <SCORE.INTRA.POLAR>
0

>  <SCORE.INTRA.POLAR.0>
0

>  <SCORE.INTRA.REPUL>
0

>  <SCORE.INTRA.REPUL.0>
0

>  <SCORE.INTRA.SOLV>
0

>  <SCORE.INTRA.SOLV.lig_0>
-29.58

>  <SCORE.INTRA.VDW>
0

>  <SCORE.INTRA.VDW.0>
0

>  <SCORE.INTRA.norm>
0

>  <SCORE.RESTR>
0

>  <SCORE.RESTR.CAVITY>
0

>  <SCORE.RESTR.norm>
0

>  <SCORE.SYSTEM>
0

>  <SCORE.SYSTEM.CONST>
0

>  <SCORE.SYSTEM.DIHEDRAL>
0

>  <SCORE.SYSTEM.SOLV>
0

>  <SCORE.SYSTEM.norm>
0

>  <SCORE.heavy>
8

>  <SCORE.norm>
-0.844225

>  <RMSD>
3.183

$$$$
ligand
 OpenBabel02271912143D
libRbt.so/2013.1/901 2013/11/27
  8  8  0  0  0  0  0  0  0  0999 V2000
    9.8595   11.0379   -1.1851 C   0  0  0  0  0  0  0  0  0  0  0  0
   10.0540   12.3270   -0.9082 N   0  0  0  0  0  0  0  0  0  0  0  0
   10.4002   12.6927    0.3288 C   0  0  0  0  0  0  0  0  0  0  0  0
   10.5682   11.7584    1.2936 N   0  0  0  0  0  0  0  0  0  0  0  0
   10.3633   10.4625    1.0035 C   0  0  0  0  0  0  0  0  0  0  0  0
   10.0123   10.0965   -0.2390 N   0  0  0  0  0  0  0  0  0  0  0  0
   10.6049   14.1310    0.6010 N   0  0  0  0  0  0  0  0  0  0  0  0
    9.5108   10.7062   -2.4496 O   0  0  0  0  0  0  0  0  0  0  0  0
  1  2  1  0  0  0  0
  1  6  1  0  0  0  0
  1  8  2  0  0  0  0
  2  3  1  0  0  0  0
  3  4  2  0  0  0  0
  3  7  1  0  0  0  0
  4  5  1  0  0  0  0
  5  6  2  0  0  0  0
M  END
>  <CHROM.1>
10.15748448,11.64813693,-0.24944627,2.68327827,1.30556967,2.78979089

>  <Name>
ligand

>  <RI>
0

>  <Rbt.Current_Directory>
/home/itssahil/PROJECTS/Mol_Feturizer/Test_systems_manuscript/rnas/3la5

>  <Rbt.Executable>
rbdock ($Id: //depot/dev/client3/rdock/2013.1/src/exe/rbdock.cxx#4 $)

>  <Rbt.Library>
libRbt.so (2013.1, Build901 2013/11/27)

>  <Rbt.Parameter_File>
/export/apps/rDock/src/rDock_2013.1_src/data/scripts/dock_solv.prm

>  <Rbt.Receptor>
prm/pocket_docking_8.prm

>  <SCORE>
-6.73423

>  <SCORE.INTER>
-6.73423

>  <SCORE.INTER.CONST>
1

>  <SCORE.INTER.POLAR>
0

>  <SCORE.INTER.ROT>
0

>  <SCORE.INTER.SOLV>
8.68124

>  <SCORE.INTER.VDW>
-10.9832

>  <SCORE.INTER.norm>
-0.841778

>  <SCORE.INTRA>
0

>  <SCORE.INTRA.DIHEDRAL>
0

>  <SCORE.INTRA.DIHEDRAL.0>
0

>  <SCORE.INTRA.POLAR>
0

>  <SCORE.INTRA.POLAR.0>
0

>  <SCORE.INTRA.REPUL>
0

>  <SCORE.INTRA.REPUL.0>
0

>  <SCORE.INTRA.SOLV>
0

>  <SCORE.INTRA.SOLV.lig_0>
-29.58

>  <SCORE.INTRA.VDW>
0

>  <SCORE.INTRA.VDW.0>
0

>  <SCORE.INTRA.norm>
0

>  <SCORE.RESTR>
0

>  <SCORE.RESTR.CAVITY>
0

>  <SCORE.RESTR.norm>
0

>  <SCORE.SYSTEM>
0

>  <SCORE.SYSTEM.CONST>
0

>  <SCORE.SYSTEM.DIHEDRAL>
0

>  <SCORE.SYSTEM.SOLV>
0

>  <SCORE.SYSTEM.norm>
0

>  <SCORE.heavy>
8

>  <SCORE.norm>
-0.841778

>  <RMSD>
3.183

$$$$
ligand
 OpenBabel02271912143D
libRbt.so/2013.1/901 2013/11/27
  8  8  0  0  0  0  0  0  0  0999 V2000
    9.8696   11.0339   -1.1854 C   0  0  0  0  0  0  0  0  0  0  0  0
   10.0639   12.3237   -0.9115 N   0  0  0  0  0  0  0  0  0  0  0  0
   10.4049   12.6927    0.3260 C   0  0  0  0  0  0  0  0  0  0  0  0
   10.5680   11.7611    1.2942 N   0  0  0  0  0  0  0  0  0  0  0  0
   10.3634   10.4646    1.0071 C   0  0  0  0  0  0  0  0  0  0  0  0
   10.0175   10.0952   -0.2359 N   0  0  0  0  0  0  0  0  0  0  0  0
   10.6094   14.1317    0.5949 N   0  0  0  0  0  0  0  0  0  0  0  0
    9.5263   10.6987   -2.4504 O   0  0  0  0  0  0  0  0  0  0  0  0
  1  2  1  0  0  0  0
  1  6  1  0  0  0  0
  1  8  2  0  0  0  0
  2  3  1  0  0  0  0
  3  4  2  0  0  0  0
  3  7  1  0  0  0  0
  4  5  1  0  0  0  0
  5  6  2  0  0  0  0
M  END
>  <CHROM.1>
10.16392734,11.64668115,-0.25027242,2.69181822,1.30944442,2.77860586

>  <Name>
ligand

>  <RI>
0

>  <Rbt.Current_Directory>
/home/itssahil/PROJECTS/Mol_Feturizer/Test_systems_manuscript/rnas/3la5

>  <Rbt.Executable>
rbdock ($Id: //depot/dev/client3/rdock/2013.1/src/exe/rbdock.cxx#4 $)

>  <Rbt.Library>
libRbt.so (2013.1, Build901 2013/11/27)

>  <Rbt.Parameter_File>
/export/apps/rDock/src/rDock_2013.1_src/data/scripts/dock_solv.prm

>  <Rbt.Receptor>
prm/blind_docking_100.prm

>  <SCORE>
-6.73443

>  <SCORE.INTER>
-6.73443

>  <SCORE.INTER.CONST>
1

>  <SCORE.INTER.POLAR>
0

>  <SCORE.INTER.ROT>
0

>  <SCORE.INTER.SOLV>
8.67818

>  <SCORE.INTER.VDW>
-10.9823

>  <SCORE.INTER.norm>
-0.841803

>  <SCORE.INTRA>
0

>  <SCORE.INTRA.DIHEDRAL>
0

>  <SCORE.INTRA.DIHEDRAL.0>
0

>  <SCORE.INTRA.POLAR>
0

>  <SCORE.INTRA.POLAR.0>
0

>  <SCORE.INTRA.REPUL>
0

>  <SCORE.INTRA.REPUL.0>
0

>  <SCORE.INTRA.SOLV>
0

>  <SCORE.INTRA.SOLV.lig_0>
-29.58

>  <SCORE.INTRA.VDW>
0

>  <SCORE.INTRA.VDW.0>
0

>  <SCORE.INTRA.norm>
0

>  <SCORE.RESTR>
0

>  <SCORE.RESTR.CAVITY>
0

>  <SCORE.RESTR.norm>
0

>  <SCORE.SYSTEM>
0

>  <SCORE.SYSTEM.CONST>
0

>  <SCORE.SYSTEM.DIHEDRAL>
0

>  <SCORE.SYSTEM.SOLV>
0

>  <SCORE.SYSTEM.norm>
0

>  <SCORE.heavy>
8

>  <SCORE.norm>
-0.841803

>  <RMSD>
3.184

$$$$
ligand
 OpenBabel02271912143D
libRbt.so/2013.1/901 2013/11/27
  8  8  0  0  0  0  0  0  0  0999 V2000
    9.8450   11.0387   -1.1719 C   0  0  0  0  0  0  0  0  0  0  0  0
   10.0284   12.3295   -0.8953 N   0  0  0  0  0  0  0  0  0  0  0  0
   10.3858   12.6973    0.3379 C   0  0  0  0  0  0  0  0  0  0  0  0
   10.5765   11.7635    1.2990 N   0  0  0  0  0  0  0  0  0  0  0  0
   10.3828   10.4658    1.0094 C   0  0  0  0  0  0  0  0  0  0  0  0
   10.0204   10.0977   -0.2293 N   0  0  0  0  0  0  0  0  0  0  0  0
   10.5775   14.1374    0.6099 N   0  0  0  0  0  0  0  0  0  0  0  0
    9.4844   10.7049   -2.4324 O   0  0  0  0  0  0  0  0  0  0  0  0
  1  2  1  0  0  0  0
  1  6  1  0  0  0  0
  1  8  2  0  0  0  0
  2  3  1  0  0  0  0
  3  4  2  0  0  0  0
  3  7  1  0  0  0  0
  4  5  1  0  0  0  0
  5  6  2  0  0  0  0
M  END
>  <CHROM.1>
10.14778299,11.65090481,-0.23900386,2.62770549,1.29735353,2.84492932

>  <Name>
ligand

>  <RI>
0

>  <Rbt.Current_Directory>
/home/itssahil/PROJECTS/Mol_Feturizer/Test_systems_manuscript/rnas/3la5

>  <Rbt.Executable>
rbdock ($Id: //depot/dev/client3/rdock/2013.1/src/exe/rbdock.cxx#4 $)

>  <Rbt.Library>
libRbt.so (2013.1, Build901 2013/11/27)

>  <Rbt.Parameter_File>
/export/apps/rDock/src/rDock_2013.1_src/data/scripts/dock_solv.prm

>  <Rbt.Receptor>
prm/blind_docking_20.prm

>  <SCORE>
-6.75668

>  <SCORE.INTER>
-6.75668

>  <SCORE.INTER.CONST>
1

>  <SCORE.INTER.POLAR>
0

>  <SCORE.INTER.ROT>
0

>  <SCORE.INTER.SOLV>
8.6441

>  <SCORE.INTER.VDW>
-10.9858

>  <SCORE.INTER.norm>
-0.844585

>  <SCORE.INTRA>
0

>  <SCORE.INTRA.DIHEDRAL>
0

>  <SCORE.INTRA.DIHEDRAL.0>
0

>  <SCORE.INTRA.POLAR>
0

>  <SCORE.INTRA.POLAR.0>
0

>  <SCORE.INTRA.REPUL>
0

>  <SCORE.INTRA.REPUL.0>
0

>  <SCORE.INTRA.SOLV>
0

>  <SCORE.INTRA.SOLV.lig_0>
-29.58

>  <SCORE.INTRA.VDW>
0

>  <SCORE.INTRA.VDW.0>
0

>  <SCORE.INTRA.norm>
0

>  <SCORE.RESTR>
0

>  <SCORE.RESTR.CAVITY>
0

>  <SCORE.RESTR.norm>
0

>  <SCORE.SYSTEM>
0

>  <SCORE.SYSTEM.CONST>
0

>  <SCORE.SYSTEM.DIHEDRAL>
0

>  <SCORE.SYSTEM.SOLV>
0

>  <SCORE.SYSTEM.norm>
0

>  <SCORE.heavy>
8

>  <SCORE.norm>
-0.844585

>  <RMSD>
3.184

$$$$
ligand
 OpenBabel02271912143D
libRbt.so/2013.1/901 2013/11/27
  8  8  0  0  0  0  0  0  0  0999 V2000
    9.8585   11.0297   -1.1693 C   0  0  0  0  0  0  0  0  0  0  0  0
   10.0332   12.3218   -0.8933 N   0  0  0  0  0  0  0  0  0  0  0  0
   10.3926   12.6921    0.3386 C   0  0  0  0  0  0  0  0  0  0  0  0
   10.5939   11.7596    1.2988 N   0  0  0  0  0  0  0  0  0  0  0  0
   10.4088   10.4606    1.0098 C   0  0  0  0  0  0  0  0  0  0  0  0
   10.0444   10.0899   -0.2275 N   0  0  0  0  0  0  0  0  0  0  0  0
   10.5746   14.1336    0.6101 N   0  0  0  0  0  0  0  0  0  0  0  0
    9.4955   10.6934   -2.4285 O   0  0  0  0  0  0  0  0  0  0  0  0
  1  2  1  0  0  0  0
  1  6  1  0  0  0  0
  1  8  2  0  0  0  0
  2  3  1  0  0  0  0
  3  4  2  0  0  0  0
  3  7  1  0  0  0  0
  4  5  1  0  0  0  0
  5  6  2  0  0  0  0
M  END
>  <CHROM.1>
10.16018220,11.64402284,-0.23751398,2.59732084,1.29575391,2.87431068

>  <Name>
ligand

>  <RI>
0

>  <Rbt.Current_Directory>
/home/itssahil/PROJECTS/Mol_Feturizer/Test_systems_manuscript/rnas/3la5

>  <Rbt.Executable>
rbdock ($Id: //depot/dev/client3/rdock/2013.1/src/exe/rbdock.cxx#4 $)

>  <Rbt.Library>
libRbt.so (2013.1, Build901 2013/11/27)

>  <Rbt.Parameter_File>
/export/apps/rDock/src/rDock_2013.1_src/data/scripts/dock_solv.prm

>  <Rbt.Receptor>
prm/pocket_docking_3.prm

>  <SCORE>
-6.75451

>  <SCORE.INTER>
-6.75451

>  <SCORE.INTER.CONST>
1

>  <SCORE.INTER.POLAR>
0

>  <SCORE.INTER.ROT>
0

>  <SCORE.INTER.SOLV>
8.63671

>  <SCORE.INTER.VDW>
-10.9819

>  <SCORE.INTER.norm>
-0.844314

>  <SCORE.INTRA>
0

>  <SCORE.INTRA.DIHEDRAL>
0

>  <SCORE.INTRA.DIHEDRAL.0>
0

>  <SCORE.INTRA.POLAR>
0

>  <SCORE.INTRA.POLAR.0>
0

>  <SCORE.INTRA.REPUL>
0

>  <SCORE.INTRA.REPUL.0>
0

>  <SCORE.INTRA.SOLV>
0

>  <SCORE.INTRA.SOLV.lig_0>
-29.58

>  <SCORE.INTRA.VDW>
0

>  <SCORE.INTRA.VDW.0>
0

>  <SCORE.INTRA.norm>
0

>  <SCORE.RESTR>
0

>  <SCORE.RESTR.CAVITY>
0

>  <SCORE.RESTR.norm>
0

>  <SCORE.SYSTEM>
0

>  <SCORE.SYSTEM.CONST>
0

>  <SCORE.SYSTEM.DIHEDRAL>
0

>  <SCORE.SYSTEM.SOLV>
0

>  <SCORE.SYSTEM.norm>
0

>  <SCORE.heavy>
8

>  <SCORE.norm>
-0.844314

>  <RMSD>
3.184

$$$$
ligand
 OpenBabel02271912143D
libRbt.so/2013.1/901 2013/11/27
  8  8  0  0  0  0  0  0  0  0999 V2000
    9.8718   11.0304   -1.1831 C   0  0  0  0  0  0  0  0  0  0  0  0
   10.0584   12.3212   -0.9084 N   0  0  0  0  0  0  0  0  0  0  0  0
   10.4023   12.6911    0.3280 C   0  0  0  0  0  0  0  0  0  0  0  0
   10.5760   11.7595    1.2944 N   0  0  0  0  0  0  0  0  0  0  0  0
   10.3790   10.4619    1.0066 C   0  0  0  0  0  0  0  0  0  0  0  0
   10.0303   10.0916   -0.2353 N   0  0  0  0  0  0  0  0  0  0  0  0
   10.5981   14.1311    0.5978 N   0  0  0  0  0  0  0  0  0  0  0  0
    9.5253   10.6945   -2.4470 O   0  0  0  0  0  0  0  0  0  0  0  0
  1  2  1  0  0  0  0
  1  6  1  0  0  0  0
  1  8  2  0  0  0  0
  2  3  1  0  0  0  0
  3  4  2  0  0  0  0
  3  7  1  0  0  0  0
  4  5  1  0  0  0  0
  5  6  2  0  0  0  0
M  END
>  <CHROM.1>
10.16599883,11.64412172,-0.24845415,2.66118559,1.30769187,2.80941027

>  <Name>
ligand

>  <RI>
0

>  <Rbt.Current_Directory>
/home/itssahil/PROJECTS/Mol_Feturizer/Test_systems_manuscript/rnas/3la5

>  <Rbt.Executable>
rbdock ($Id: //depot/dev/client3/rdock/2013.1/src/exe/rbdock.cxx#4 $)

>  <Rbt.Library>
libRbt.so (2013.1, Build901 2013/11/27)

>  <Rbt.Parameter_File>
/export/apps/rDock/src/rDock_2013.1_src/data/scripts/dock_solv.prm

>  <Rbt.Receptor>
prm/pocket_docking_6.prm

>  <SCORE>
-6.73456

>  <SCORE.INTER>
-6.73456

>  <SCORE.INTER.CONST>
1

>  <SCORE.INTER.POLAR>
0

>  <SCORE.INTER.ROT>
0

>  <SCORE.INTER.SOLV>
8.65819

>  <SCORE.INTER.VDW>
-10.9758

>  <SCORE.INTER.norm>
-0.841819

>  <SCORE.INTRA>
0

>  <SCORE.INTRA.DIHEDRAL>
0

>  <SCORE.INTRA.DIHEDRAL.0>
0

>  <SCORE.INTRA.POLAR>
0

>  <SCORE.INTRA.POLAR.0>
0

>  <SCORE.INTRA.REPUL>
0

>  <SCORE.INTRA.REPUL.0>
0

>  <SCORE.INTRA.SOLV>
0

>  <SCORE.INTRA.SOLV.lig_0>
-29.58

>  <SCORE.INTRA.VDW>
0

>  <SCORE.INTRA.VDW.0>
0

>  <SCORE.INTRA.norm>
0

>  <SCORE.RESTR>
0

>  <SCORE.RESTR.CAVITY>
0

>  <SCORE.RESTR.norm>
0

>  <SCORE.SYSTEM>
0

>  <SCORE.SYSTEM.CONST>
0

>  <SCORE.SYSTEM.DIHEDRAL>
0

>  <SCORE.SYSTEM.SOLV>
0

>  <SCORE.SYSTEM.norm>
0

>  <SCORE.heavy>
8

>  <SCORE.norm>
-0.841819

>  <RMSD>
3.184

$$$$
ligand
 OpenBabel02271912143D
libRbt.so/2013.1/901 2013/11/27
  8  8  0  0  0  0  0  0  0  0999 V2000
    9.8549   11.0283   -1.1749 C   0  0  0  0  0  0  0  0  0  0  0  0
   10.0310   12.3195   -0.8954 N   0  0  0  0  0  0  0  0  0  0  0  0
   10.3963   12.6856    0.3360 C   0  0  0  0  0  0  0  0  0  0  0  0
   10.6024   11.7499    1.2920 N   0  0  0  0  0  0  0  0  0  0  0  0
   10.4159   10.4518    0.9995 C   0  0  0  0  0  0  0  0  0  0  0  0
   10.0456   10.0853   -0.2373 N   0  0  0  0  0  0  0  0  0  0  0  0
   10.5795   14.1262    0.6115 N   0  0  0  0  0  0  0  0  0  0  0  0
    9.4859   10.6963   -2.4335 O   0  0  0  0  0  0  0  0  0  0  0  0
  1  2  1  0  0  0  0
  1  6  1  0  0  0  0
  1  8  2  0  0  0  0
  2  3  1  0  0  0  0
  3  4  2  0  0  0  0
  3  7  1  0  0  0  0
  4  5  1  0  0  0  0
  5  6  2  0  0  0  0
M  END
>  <CHROM.1>
10.16115087,11.63951712,-0.24255422,2.59244704,1.29109065,2.88239698

>  <Name>
ligand

>  <RI>
0

>  <Rbt.Current_Directory>
/home/itssahil/PROJECTS/Mol_Feturizer/Test_systems_manuscript/rnas/3la5

>  <Rbt.Executable>
rbdock ($Id: //depot/dev/client3/rdock/2013.1/src/exe/rbdock.cxx#4 $)

>  <Rbt.Library>
libRbt.so (2013.1, Build901 2013/11/27)

>  <Rbt.Parameter_File>
/export/apps/rDock/src/rDock_2013.1_src/data/scripts/dock_solv.prm

>  <Rbt.Receptor>
prm/pocket_docking_6.prm

>  <SCORE>
-6.75231

>  <SCORE.INTER>
-6.75231

>  <SCORE.INTER.CONST>
1

>  <SCORE.INTER.POLAR>
0

>  <SCORE.INTER.ROT>
0

>  <SCORE.INTER.SOLV>
8.65981

>  <SCORE.INTER.VDW>
-10.9881

>  <SCORE.INTER.norm>
-0.844039

>  <SCORE.INTRA>
0

>  <SCORE.INTRA.DIHEDRAL>
0

>  <SCORE.INTRA.DIHEDRAL.0>
0

>  <SCORE.INTRA.POLAR>
0

>  <SCORE.INTRA.POLAR.0>
0

>  <SCORE.INTRA.REPUL>
0

>  <SCORE.INTRA.REPUL.0>
0

>  <SCORE.INTRA.SOLV>
0

>  <SCORE.INTRA.SOLV.lig_0>
-29.58

>  <SCORE.INTRA.VDW>
0

>  <SCORE.INTRA.VDW.0>
0

>  <SCORE.INTRA.norm>
0

>  <SCORE.RESTR>
0

>  <SCORE.RESTR.CAVITY>
0

>  <SCORE.RESTR.norm>
0

>  <SCORE.SYSTEM>
0

>  <SCORE.SYSTEM.CONST>
0

>  <SCORE.SYSTEM.DIHEDRAL>
0

>  <SCORE.SYSTEM.SOLV>
0

>  <SCORE.SYSTEM.norm>
0

>  <SCORE.heavy>
8

>  <SCORE.norm>
-0.844039

>  <RMSD>
3.184

$$$$
ligand
 OpenBabel02271912143D
libRbt.so/2013.1/901 2013/11/27
  8  8  0  0  0  0  0  0  0  0999 V2000
    9.8460   11.0339   -1.1690 C   0  0  0  0  0  0  0  0  0  0  0  0
   10.0307   12.3252   -0.8954 N   0  0  0  0  0  0  0  0  0  0  0  0
   10.3857   12.6956    0.3377 C   0  0  0  0  0  0  0  0  0  0  0  0
   10.5727   11.7640    1.3017 N   0  0  0  0  0  0  0  0  0  0  0  0
   10.3776   10.4658    1.0150 C   0  0  0  0  0  0  0  0  0  0  0  0
   10.0177   10.0950   -0.2235 N   0  0  0  0  0  0  0  0  0  0  0  0
   10.5790   14.1361    0.6064 N   0  0  0  0  0  0  0  0  0  0  0  0
    9.4879   10.6974   -2.4295 O   0  0  0  0  0  0  0  0  0  0  0  0
  1  2  1  0  0  0  0
  1  6  1  0  0  0  0
  1  8  2  0  0  0  0
  2  3  1  0  0  0  0
  3  4  2  0  0  0  0
  3  7  1  0  0  0  0
  4  5  1  0  0  0  0
  5  6  2  0  0  0  0
M  END
>  <CHROM.1>
10.14745509,11.64804314,-0.23701696,2.63583658,1.29919002,2.83449529

>  <Name>
ligand

>  <RI>
0

>  <Rbt.Current_Directory>
/home/itssahil/PROJECTS/Mol_Feturizer/Test_systems_manuscript/rnas/3la5

>  <Rbt.Executable>
rbdock ($Id: //depot/dev/client3/rdock/2013.1/src/exe/rbdock.cxx#4 $)

>  <Rbt.Library>
libRbt.so (2013.1, Build901 2013/11/27)

>  <Rbt.Parameter_File>
/export/apps/rDock/src/rDock_2013.1_src/data/scripts/dock_solv.prm

>  <Rbt.Receptor>
prm/blind_docking_100.prm

>  <SCORE>
-6.75321

>  <SCORE.INTER>
-6.75321

>  <SCORE.INTER.CONST>
1

>  <SCORE.INTER.POLAR>
0

>  <SCORE.INTER.ROT>
0

>  <SCORE.INTER.SOLV>
8.64035

>  <SCORE.INTER.VDW>
-10.9823

>  <SCORE.INTER.norm>
-0.844152

>  <SCORE.INTRA>
0

>  <SCORE.INTRA.DIHEDRAL>
0

>  <SCORE.INTRA.DIHEDRAL.0>
0

>  <SCORE.INTRA.POLAR>
0

>  <SCORE.INTRA.POLAR.0>
0

>  <SCORE.INTRA.REPUL>
0

>  <SCORE.INTRA.REPUL.0>
0

>  <SCORE.INTRA.SOLV>
0

>  <SCORE.INTRA.SOLV.lig_0>
-29.58

>  <SCORE.INTRA.VDW>
0

>  <SCORE.INTRA.VDW.0>
0

>  <SCORE.INTRA.norm>
0

>  <SCORE.RESTR>
0

>  <SCORE.RESTR.CAVITY>
0

>  <SCORE.RESTR.norm>
0

>  <SCORE.SYSTEM>
0

>  <SCORE.SYSTEM.CONST>
0

>  <SCORE.SYSTEM.DIHEDRAL>
0

>  <SCORE.SYSTEM.SOLV>
0

>  <SCORE.SYSTEM.norm>
0

>  <SCORE.heavy>
8

>  <SCORE.norm>
-0.844152

>  <RMSD>
3.185

$$$$
ligand
 OpenBabel02271912143D
libRbt.so/2013.1/901 2013/11/27
  8  8  0  0  0  0  0  0  0  0999 V2000
    9.8932   11.0811   -1.1993 C   0  0  0  0  0  0  0  0  0  0  0  0
   10.0984   12.3714   -0.9359 N   0  0  0  0  0  0  0  0  0  0  0  0
   10.4283   12.7493    0.3019 C   0  0  0  0  0  0  0  0  0  0  0  0
   10.5692   11.8258    1.2814 N   0  0  0  0  0  0  0  0  0  0  0  0
   10.3538   10.5287    1.0048 C   0  0  0  0  0  0  0  0  0  0  0  0
   10.0192   10.1505   -0.2386 N   0  0  0  0  0  0  0  0  0  0  0  0
   10.6454   14.1885    0.5589 N   0  0  0  0  0  0  0  0  0  0  0  0
    9.5618   10.7369   -2.4650 O   0  0  0  0  0  0  0  0  0  0  0  0
  1  2  1  0  0  0  0
  1  6  1  0  0  0  0
  1  8  2  0  0  0  0
  2  3  1  0  0  0  0
  3  4  2  0  0  0  0
  3  7  1  0  0  0  0
  4  5  1  0  0  0  0
  5  6  2  0  0  0  0
M  END
>  <CHROM.1>
10.18284700,11.70009202,-0.26673981,2.75023728,1.31655664,2.71202593

>  <Name>
ligand

>  <RI>
0

>  <Rbt.Current_Directory>
/home/itssahil/PROJECTS/Mol_Feturizer/Test_systems_manuscript/rnas/3la5

>  <Rbt.Executable>
rbdock ($Id: //depot/dev/client3/rdock/2013.1/src/exe/rbdock.cxx#4 $)

>  <Rbt.Library>
libRbt.so (2013.1, Build901 2013/11/27)

>  <Rbt.Parameter_File>
/export/apps/rDock/src/rDock_2013.1_src/data/scripts/dock_solv.prm

>  <Rbt.Receptor>
prm/blind_docking_20.prm

>  <SCORE>
-6.7141

>  <SCORE.INTER>
-6.7141

>  <SCORE.INTER.CONST>
1

>  <SCORE.INTER.POLAR>
0

>  <SCORE.INTER.ROT>
0

>  <SCORE.INTER.SOLV>
8.67168

>  <SCORE.INTER.VDW>
-10.9666

>  <SCORE.INTER.norm>
-0.839262

>  <SCORE.INTRA>
0

>  <SCORE.INTRA.DIHEDRAL>
0

>  <SCORE.INTRA.DIHEDRAL.0>
0

>  <SCORE.INTRA.POLAR>
0

>  <SCORE.INTRA.POLAR.0>
0

>  <SCORE.INTRA.REPUL>
0

>  <SCORE.INTRA.REPUL.0>
0

>  <SCORE.INTRA.SOLV>
0

>  <SCORE.INTRA.SOLV.lig_0>
-29.58

>  <SCORE.INTRA.VDW>
0

>  <SCORE.INTRA.VDW.0>
0

>  <SCORE.INTRA.norm>
0

>  <SCORE.RESTR>
0

>  <SCORE.RESTR.CAVITY>
0

>  <SCORE.RESTR.norm>
0

>  <SCORE.SYSTEM>
0

>  <SCORE.SYSTEM.CONST>
0

>  <SCORE.SYSTEM.DIHEDRAL>
0

>  <SCORE.SYSTEM.SOLV>
0

>  <SCORE.SYSTEM.norm>
0

>  <SCORE.heavy>
8

>  <SCORE.norm>
-0.839262

>  <RMSD>
3.185

$$$$
ligand
 OpenBabel02271912143D
libRbt.so/2013.1/901 2013/11/27
  8  8  0  0  0  0  0  0  0  0999 V2000
    9.8796   11.0257   -1.1800 C   0  0  0  0  0  0  0  0  0  0  0  0
   10.0612   12.3177   -0.9078 N   0  0  0  0  0  0  0  0  0  0  0  0
   10.4029   12.6914    0.3281 C   0  0  0  0  0  0  0  0  0  0  0  0
   10.5795   11.7623    1.2964 N   0  0  0  0  0  0  0  0  0  0  0  0
   10.3877   10.4634    1.0111 C   0  0  0  0  0  0  0  0  0  0  0  0
   10.0411   10.0893   -0.2303 N   0  0  0  0  0  0  0  0  0  0  0  0
   10.5931   14.1326    0.5951 N   0  0  0  0  0  0  0  0  0  0  0  0
    9.5351   10.6858   -2.4434 O   0  0  0  0  0  0  0  0  0  0  0  0
  1  2  1  0  0  0  0
  1  6  1  0  0  0  0
  1  8  2  0  0  0  0
  2  3  1  0  0  0  0
  3  4  2  0  0  0  0
  3  7  1  0  0  0  0
  4  5  1  0  0  0  0
  5  6  2  0  0  0  0
M  END
>  <CHROM.1>
10.17092210,11.64231302,-0.24642920,2.64809530,1.30946269,2.82005162

>  <Name>
ligand

>  <RI>
0

>  <Rbt.Current_Directory>
/home/itssahil/PROJECTS/Mol_Feturizer/Test_systems_manuscript/rnas/3la5

>  <Rbt.Executable>
rbdock ($Id: //depot/dev/client3/rdock/2013.1/src/exe/rbdock.cxx#4 $)

>  <Rbt.Library>
libRbt.so (2013.1, Build901 2013/11/27)

>  <Rbt.Parameter_File>
/export/apps/rDock/src/rDock_2013.1_src/data/scripts/dock_solv.prm

>  <Rbt.Receptor>
prm/blind_docking_20.prm

>  <SCORE>
-6.73182

>  <SCORE.INTER>
-6.73182

>  <SCORE.INTER.CONST>
1

>  <SCORE.INTER.POLAR>
0

>  <SCORE.INTER.ROT>
0

>  <SCORE.INTER.SOLV>
8.64055

>  <SCORE.INTER.VDW>
-10.9681

>  <SCORE.INTER.norm>
-0.841478

>  <SCORE.INTRA>
0

>  <SCORE.INTRA.DIHEDRAL>
0

>  <SCORE.INTRA.DIHEDRAL.0>
0

>  <SCORE.INTRA.POLAR>
0

>  <SCORE.INTRA.POLAR.0>
0

>  <SCORE.INTRA.REPUL>
0

>  <SCORE.INTRA.REPUL.0>
0

>  <SCORE.INTRA.SOLV>
0

>  <SCORE.INTRA.SOLV.lig_0>
-29.58

>  <SCORE.INTRA.VDW>
0

>  <SCORE.INTRA.VDW.0>
0

>  <SCORE.INTRA.norm>
0

>  <SCORE.RESTR>
0

>  <SCORE.RESTR.CAVITY>
0

>  <SCORE.RESTR.norm>
0

>  <SCORE.SYSTEM>
0

>  <SCORE.SYSTEM.CONST>
0

>  <SCORE.SYSTEM.DIHEDRAL>
0

>  <SCORE.SYSTEM.SOLV>
0

>  <SCORE.SYSTEM.norm>
0

>  <SCORE.heavy>
8

>  <SCORE.norm>
-0.841478

>  <RMSD>
3.185

$$$$
ligand
 OpenBabel02271912143D
libRbt.so/2013.1/901 2013/11/27
  8  8  0  0  0  0  0  0  0  0999 V2000
    9.8894   11.0262   -1.2532 C   0  0  0  0  0  0  0  0  0  0  0  0
   10.0905   12.3101   -0.9575 N   0  0  0  0  0  0  0  0  0  0  0  0
   10.3742   12.6626    0.2991 C   0  0  0  0  0  0  0  0  0  0  0  0
   10.4727   11.7200    1.2654 N   0  0  0  0  0  0  0  0  0  0  0  0
   10.2619   10.4296    0.9559 C   0  0  0  0  0  0  0  0  0  0  0  0
    9.9737   10.0769   -0.3064 N   0  0  0  0  0  0  0  0  0  0  0  0
   10.5882   14.0956    0.5917 N   0  0  0  0  0  0  0  0  0  0  0  0
    9.6054   10.7079   -2.5371 O   0  0  0  0  0  0  0  0  0  0  0  0
  1  2  1  0  0  0  0
  1  6  1  0  0  0  0
  1  8  2  0  0  0  0
  2  3  1  0  0  0  0
  3  4  2  0  0  0  0
  3  7  1  0  0  0  0
  4  5  1  0  0  0  0
  5  6  2  0  0  0  0
M  END
>  <CHROM.1>
10.14583605,11.62582031,-0.29854835,2.84336123,1.34870282,2.64055578

>  <Name>
ligand

>  <RI>
0

>  <Rbt.Current_Directory>
/home/itssahil/PROJECTS/Mol_Feturizer/Test_systems_manuscript/rnas/3la5

>  <Rbt.Executable>
rbdock ($Id: //depot/dev/client3/rdock/2013.1/src/exe/rbdock.cxx#4 $)

>  <Rbt.Library>
libRbt.so (2013.1, Build901 2013/11/27)

>  <Rbt.Parameter_File>
/export/apps/rDock/src/rDock_2013.1_src/data/scripts/dock_solv.prm

>  <Rbt.Receptor>
prm/blind_docking_60.prm

>  <SCORE>
-6.74294

>  <SCORE.INTER>
-6.74294

>  <SCORE.INTER.CONST>
1

>  <SCORE.INTER.POLAR>
0

>  <SCORE.INTER.ROT>
0

>  <SCORE.INTER.SOLV>
8.67734

>  <SCORE.INTER.VDW>
-10.9877

>  <SCORE.INTER.norm>
-0.842868

>  <SCORE.INTRA>
0

>  <SCORE.INTRA.DIHEDRAL>
0

>  <SCORE.INTRA.DIHEDRAL.0>
0

>  <SCORE.INTRA.POLAR>
0

>  <SCORE.INTRA.POLAR.0>
0

>  <SCORE.INTRA.REPUL>
0

>  <SCORE.INTRA.REPUL.0>
0

>  <SCORE.INTRA.SOLV>
0

>  <SCORE.INTRA.SOLV.lig_0>
-29.58

>  <SCORE.INTRA.VDW>
0

>  <SCORE.INTRA.VDW.0>
0

>  <SCORE.INTRA.norm>
0

>  <SCORE.RESTR>
0

>  <SCORE.RESTR.CAVITY>
0

>  <SCORE.RESTR.norm>
0

>  <SCORE.SYSTEM>
0

>  <SCORE.SYSTEM.CONST>
0

>  <SCORE.SYSTEM.DIHEDRAL>
0

>  <SCORE.SYSTEM.SOLV>
0

>  <SCORE.SYSTEM.norm>
0

>  <SCORE.heavy>
8

>  <SCORE.norm>
-0.842868

>  <RMSD>
3.185

$$$$
ligand
 OpenBabel02271912143D
libRbt.so/2013.1/901 2013/11/27
  8  8  0  0  0  0  0  0  0  0999 V2000
    9.8393   11.0372   -1.1709 C   0  0  0  0  0  0  0  0  0  0  0  0
   10.0287   12.3277   -0.8967 N   0  0  0  0  0  0  0  0  0  0  0  0
   10.3892   12.6959    0.3355 C   0  0  0  0  0  0  0  0  0  0  0  0
   10.5767   11.7629    1.2979 N   0  0  0  0  0  0  0  0  0  0  0  0
   10.3768   10.4656    1.0107 C   0  0  0  0  0  0  0  0  0  0  0  0
   10.0114   10.0970   -0.2269 N   0  0  0  0  0  0  0  0  0  0  0  0
   10.5877   14.1356    0.6049 N   0  0  0  0  0  0  0  0  0  0  0  0
    9.4758   10.7030   -2.4305 O   0  0  0  0  0  0  0  0  0  0  0  0
  1  2  1  0  0  0  0
  1  6  1  0  0  0  0
  1  8  2  0  0  0  0
  2  3  1  0  0  0  0
  3  4  2  0  0  0  0
  3  7  1  0  0  0  0
  4  5  1  0  0  0  0
  5  6  2  0  0  0  0
M  END
>  <CHROM.1>
10.14579852,11.64963799,-0.23938760,2.64235826,1.29494671,2.82915060

>  <Name>
ligand

>  <RI>
0

>  <Rbt.Current_Directory>
/home/itssahil/PROJECTS/Mol_Feturizer/Test_systems_manuscript/rnas/3la5

>  <Rbt.Executable>
rbdock ($Id: //depot/dev/client3/rdock/2013.1/src/exe/rbdock.cxx#4 $)

>  <Rbt.Library>
libRbt.so (2013.1, Build901 2013/11/27)

>  <Rbt.Parameter_File>
/export/apps/rDock/src/rDock_2013.1_src/data/scripts/dock_solv.prm

>  <Rbt.Receptor>
prm/pocket_docking_4.prm

>  <SCORE>
-6.75246

>  <SCORE.INTER>
-6.75246

>  <SCORE.INTER.CONST>
1

>  <SCORE.INTER.POLAR>
0

>  <SCORE.INTER.ROT>
0

>  <SCORE.INTER.SOLV>
8.65866

>  <SCORE.INTER.VDW>
-10.9879

>  <SCORE.INTER.norm>
-0.844058

>  <SCORE.INTRA>
0

>  <SCORE.INTRA.DIHEDRAL>
0

>  <SCORE.INTRA.DIHEDRAL.0>
0

>  <SCORE.INTRA.POLAR>
0

>  <SCORE.INTRA.POLAR.0>
0

>  <SCORE.INTRA.REPUL>
0

>  <SCORE.INTRA.REPUL.0>
0

>  <SCORE.INTRA.SOLV>
0

>  <SCORE.INTRA.SOLV.lig_0>
-29.58

>  <SCORE.INTRA.VDW>
0

>  <SCORE.INTRA.VDW.0>
0

>  <SCORE.INTRA.norm>
0

>  <SCORE.RESTR>
0

>  <SCORE.RESTR.CAVITY>
0

>  <SCORE.RESTR.norm>
0

>  <SCORE.SYSTEM>
0

>  <SCORE.SYSTEM.CONST>
0

>  <SCORE.SYSTEM.DIHEDRAL>
0

>  <SCORE.SYSTEM.SOLV>
0

>  <SCORE.SYSTEM.norm>
0

>  <SCORE.heavy>
8

>  <SCORE.norm>
-0.844058

>  <RMSD>
3.185

$$$$
ligand
 OpenBabel02271912143D
libRbt.so/2013.1/901 2013/11/27
  8  8  0  0  0  0  0  0  0  0999 V2000
    9.8937   11.0649   -1.1864 C   0  0  0  0  0  0  0  0  0  0  0  0
   10.1052   12.3551   -0.9273 N   0  0  0  0  0  0  0  0  0  0  0  0
   10.4318   12.7360    0.3105 C   0  0  0  0  0  0  0  0  0  0  0  0
   10.5629   11.8157    1.2943 N   0  0  0  0  0  0  0  0  0  0  0  0
   10.3413   10.5188    1.0219 C   0  0  0  0  0  0  0  0  0  0  0  0
   10.0100   10.1375   -0.2214 N   0  0  0  0  0  0  0  0  0  0  0  0
   10.6561   14.1750    0.5627 N   0  0  0  0  0  0  0  0  0  0  0  0
    9.5659   10.7175   -2.4522 O   0  0  0  0  0  0  0  0  0  0  0  0
  1  2  1  0  0  0  0
  1  6  1  0  0  0  0
  1  8  2  0  0  0  0
  2  3  1  0  0  0  0
  3  4  2  0  0  0  0
  3  7  1  0  0  0  0
  4  5  1  0  0  0  0
  5  6  2  0  0  0  0
M  END
>  <CHROM.1>
10.18276674,11.68597040,-0.25503170,2.77876011,1.31809835,2.68039237

>  <Name>
ligand

>  <RI>
0

>  <Rbt.Current_Directory>
/home/itssahil/PROJECTS/Mol_Feturizer/Test_systems_manuscript/rnas/3la5

>  <Rbt.Executable>
rbdock ($Id: //depot/dev/client3/rdock/2013.1/src/exe/rbdock.cxx#4 $)

>  <Rbt.Library>
libRbt.so (2013.1, Build901 2013/11/27)

>  <Rbt.Parameter_File>
/export/apps/rDock/src/rDock_2013.1_src/data/scripts/dock_solv.prm

>  <Rbt.Receptor>
prm/pocket_docking_6.prm

>  <SCORE>
-6.72626

>  <SCORE.INTER>
-6.72626

>  <SCORE.INTER.CONST>
1

>  <SCORE.INTER.POLAR>
0

>  <SCORE.INTER.ROT>
0

>  <SCORE.INTER.SOLV>
8.68812

>  <SCORE.INTER.VDW>
-10.9802

>  <SCORE.INTER.norm>
-0.840783

>  <SCORE.INTRA>
0

>  <SCORE.INTRA.DIHEDRAL>
0

>  <SCORE.INTRA.DIHEDRAL.0>
0

>  <SCORE.INTRA.POLAR>
0

>  <SCORE.INTRA.POLAR.0>
0

>  <SCORE.INTRA.REPUL>
0

>  <SCORE.INTRA.REPUL.0>
0

>  <SCORE.INTRA.SOLV>
0

>  <SCORE.INTRA.SOLV.lig_0>
-29.58

>  <SCORE.INTRA.VDW>
0

>  <SCORE.INTRA.VDW.0>
0

>  <SCORE.INTRA.norm>
0

>  <SCORE.RESTR>
0

>  <SCORE.RESTR.CAVITY>
0

>  <SCORE.RESTR.norm>
0

>  <SCORE.SYSTEM>
0

>  <SCORE.SYSTEM.CONST>
0

>  <SCORE.SYSTEM.DIHEDRAL>
0

>  <SCORE.SYSTEM.SOLV>
0

>  <SCORE.SYSTEM.norm>
0

>  <SCORE.heavy>
8

>  <SCORE.norm>
-0.840783

>  <RMSD>
3.185

$$$$
ligand
 OpenBabel02271912143D
libRbt.so/2013.1/901 2013/11/27
  8  8  0  0  0  0  0  0  0  0999 V2000
    9.9125   11.0503   -1.1482 C   0  0  0  0  0  0  0  0  0  0  0  0
   10.1216   12.3447   -0.9091 N   0  0  0  0  0  0  0  0  0  0  0  0
   10.4474   12.7454    0.3226 C   0  0  0  0  0  0  0  0  0  0  0  0
   10.5801   11.8406    1.3206 N   0  0  0  0  0  0  0  0  0  0  0  0
   10.3608   10.5392    1.0683 C   0  0  0  0  0  0  0  0  0  0  0  0
   10.0303   10.1381   -0.1690 N   0  0  0  0  0  0  0  0  0  0  0  0
   10.6691   14.1885    0.5525 N   0  0  0  0  0  0  0  0  0  0  0  0
    9.5854   10.6828   -2.4085 O   0  0  0  0  0  0  0  0  0  0  0  0
  1  2  1  0  0  0  0
  1  6  1  0  0  0  0
  1  8  2  0  0  0  0
  2  3  1  0  0  0  0
  3  4  2  0  0  0  0
  3  7  1  0  0  0  0
  4  5  1  0  0  0  0
  5  6  2  0  0  0  0
M  END
>  <CHROM.1>
10.20032810,11.68625115,-0.22661042,2.77238331,1.31896244,2.67108500

>  <Name>
ligand

>  <RI>
0

>  <Rbt.Current_Directory>
/home/itssahil/PROJECTS/Mol_Feturizer/Test_systems_manuscript/rnas/3la5

>  <Rbt.Executable>
rbdock ($Id: //depot/dev/client3/rdock/2013.1/src/exe/rbdock.cxx#4 $)

>  <Rbt.Library>
libRbt.so (2013.1, Build901 2013/11/27)

>  <Rbt.Parameter_File>
/export/apps/rDock/src/rDock_2013.1_src/data/scripts/dock_solv.prm

>  <Rbt.Receptor>
prm/blind_docking_40.prm

>  <SCORE>
-6.73251

>  <SCORE.INTER>
-6.73251

>  <SCORE.INTER.CONST>
1

>  <SCORE.INTER.POLAR>
0

>  <SCORE.INTER.ROT>
0

>  <SCORE.INTER.SOLV>
8.64629

>  <SCORE.INTER.VDW>
-10.9704

>  <SCORE.INTER.norm>
-0.841564

>  <SCORE.INTRA>
0

>  <SCORE.INTRA.DIHEDRAL>
0

>  <SCORE.INTRA.DIHEDRAL.0>
0

>  <SCORE.INTRA.POLAR>
0

>  <SCORE.INTRA.POLAR.0>
0

>  <SCORE.INTRA.REPUL>
0

>  <SCORE.INTRA.REPUL.0>
0

>  <SCORE.INTRA.SOLV>
0

>  <SCORE.INTRA.SOLV.lig_0>
-29.58

>  <SCORE.INTRA.VDW>
0

>  <SCORE.INTRA.VDW.0>
0

>  <SCORE.INTRA.norm>
0

>  <SCORE.RESTR>
0

>  <SCORE.RESTR.CAVITY>
0

>  <SCORE.RESTR.norm>
0

>  <SCORE.SYSTEM>
0

>  <SCORE.SYSTEM.CONST>
0

>  <SCORE.SYSTEM.DIHEDRAL>
0

>  <SCORE.SYSTEM.SOLV>
0

>  <SCORE.SYSTEM.norm>
0

>  <SCORE.heavy>
8

>  <SCORE.norm>
-0.841564

>  <RMSD>
3.186

$$$$
ligand
 OpenBabel02271912143D
libRbt.so/2013.1/901 2013/11/27
  8  8  0  0  0  0  0  0  0  0999 V2000
    9.8944   11.0769   -1.2140 C   0  0  0  0  0  0  0  0  0  0  0  0
   10.0987   12.3661   -0.9442 N   0  0  0  0  0  0  0  0  0  0  0  0
   10.4253   12.7383    0.2962 C   0  0  0  0  0  0  0  0  0  0  0  0
   10.5637   11.8104    1.2718 N   0  0  0  0  0  0  0  0  0  0  0  0
   10.3493   10.5145    0.9887 C   0  0  0  0  0  0  0  0  0  0  0  0
   10.0179   10.1420   -0.2573 N   0  0  0  0  0  0  0  0  0  0  0  0
   10.6416   14.1764    0.5603 N   0  0  0  0  0  0  0  0  0  0  0  0
    9.5663   10.7385   -2.4822 O   0  0  0  0  0  0  0  0  0  0  0  0
  1  2  1  0  0  0  0
  1  6  1  0  0  0  0
  1  8  2  0  0  0  0
  2  3  1  0  0  0  0
  3  4  2  0  0  0  0
  3  7  1  0  0  0  0
  4  5  1  0  0  0  0
  5  6  2  0  0  0  0
M  END
>  <CHROM.1>
10.18148646,11.69171014,-0.27790357,2.75417345,1.31898346,2.71279053

>  <Name>
ligand

>  <RI>
0

>  <Rbt.Current_Directory>
/home/itssahil/PROJECTS/Mol_Feturizer/Test_systems_manuscript/rnas/3la5

>  <Rbt.Executable>
rbdock ($Id: //depot/dev/client3/rdock/2013.1/src/exe/rbdock.cxx#4 $)

>  <Rbt.Library>
libRbt.so (2013.1, Build901 2013/11/27)

>  <Rbt.Parameter_File>
/export/apps/rDock/src/rDock_2013.1_src/data/scripts/dock_solv.prm

>  <Rbt.Receptor>
prm/blind_docking_40.prm

>  <SCORE>
-6.71651

>  <SCORE.INTER>
-6.71651

>  <SCORE.INTER.CONST>
1

>  <SCORE.INTER.POLAR>
0

>  <SCORE.INTER.ROT>
0

>  <SCORE.INTER.SOLV>
8.68804

>  <SCORE.INTER.VDW>
-10.9737

>  <SCORE.INTER.norm>
-0.839564

>  <SCORE.INTRA>
0

>  <SCORE.INTRA.DIHEDRAL>
0

>  <SCORE.INTRA.DIHEDRAL.0>
0

>  <SCORE.INTRA.POLAR>
0

>  <SCORE.INTRA.POLAR.0>
0

>  <SCORE.INTRA.REPUL>
0

>  <SCORE.INTRA.REPUL.0>
0

>  <SCORE.INTRA.SOLV>
0

>  <SCORE.INTRA.SOLV.lig_0>
-29.58

>  <SCORE.INTRA.VDW>
0

>  <SCORE.INTRA.VDW.0>
0

>  <SCORE.INTRA.norm>
0

>  <SCORE.RESTR>
0

>  <SCORE.RESTR.CAVITY>
0

>  <SCORE.RESTR.norm>
0

>  <SCORE.SYSTEM>
0

>  <SCORE.SYSTEM.CONST>
0

>  <SCORE.SYSTEM.DIHEDRAL>
0

>  <SCORE.SYSTEM.SOLV>
0

>  <SCORE.SYSTEM.norm>
0

>  <SCORE.heavy>
8

>  <SCORE.norm>
-0.839564

>  <RMSD>
3.186

$$$$
ligand
 OpenBabel02271912143D
libRbt.so/2013.1/901 2013/11/27
  8  8  0  0  0  0  0  0  0  0999 V2000
    9.8573   11.0138   -1.2411 C   0  0  0  0  0  0  0  0  0  0  0  0
   10.0183   12.3000   -0.9310 N   0  0  0  0  0  0  0  0  0  0  0  0
   10.3471   12.6430    0.3173 C   0  0  0  0  0  0  0  0  0  0  0  0
   10.5315   11.6893    1.2598 N   0  0  0  0  0  0  0  0  0  0  0  0
   10.3605   10.3965    0.9362 C   0  0  0  0  0  0  0  0  0  0  0  0
   10.0269   10.0531   -0.3175 N   0  0  0  0  0  0  0  0  0  0  0  0
   10.5145   14.0787    0.6265 N   0  0  0  0  0  0  0  0  0  0  0  0
    9.5255   10.7054   -2.5159 O   0  0  0  0  0  0  0  0  0  0  0  0
  1  2  1  0  0  0  0
  1  6  1  0  0  0  0
  1  8  2  0  0  0  0
  2  3  1  0  0  0  0
  3  4  2  0  0  0  0
  3  7  1  0  0  0  0
  4  5  1  0  0  0  0
  5  6  2  0  0  0  0
M  END
>  <CHROM.1>
10.13397817,11.60764000,-0.28847463,2.59976398,1.31952013,2.89540857

>  <Name>
ligand

>  <RI>
0

>  <Rbt.Current_Directory>
/home/itssahil/PROJECTS/Mol_Feturizer/Test_systems_manuscript/rnas/3la5

>  <Rbt.Executable>
rbdock ($Id: //depot/dev/client3/rdock/2013.1/src/exe/rbdock.cxx#4 $)

>  <Rbt.Library>
libRbt.so (2013.1, Build901 2013/11/27)

>  <Rbt.Parameter_File>
/export/apps/rDock/src/rDock_2013.1_src/data/scripts/dock_solv.prm

>  <Rbt.Receptor>
prm/blind_docking_60.prm

>  <SCORE>
-6.75097

>  <SCORE.INTER>
-6.75097

>  <SCORE.INTER.CONST>
1

>  <SCORE.INTER.POLAR>
0

>  <SCORE.INTER.ROT>
0

>  <SCORE.INTER.SOLV>
8.66724

>  <SCORE.INTER.VDW>
-10.9897

>  <SCORE.INTER.norm>
-0.843871

>  <SCORE.INTRA>
0

>  <SCORE.INTRA.DIHEDRAL>
0

>  <SCORE.INTRA.DIHEDRAL.0>
0

>  <SCORE.INTRA.POLAR>
0

>  <SCORE.INTRA.POLAR.0>
0

>  <SCORE.INTRA.REPUL>
0

>  <SCORE.INTRA.REPUL.0>
0

>  <SCORE.INTRA.SOLV>
0

>  <SCORE.INTRA.SOLV.lig_0>
-29.58

>  <SCORE.INTRA.VDW>
0

>  <SCORE.INTRA.VDW.0>
0

>  <SCORE.INTRA.norm>
0

>  <SCORE.RESTR>
0

>  <SCORE.RESTR.CAVITY>
0

>  <SCORE.RESTR.norm>
0

>  <SCORE.SYSTEM>
0

>  <SCORE.SYSTEM.CONST>
0

>  <SCORE.SYSTEM.DIHEDRAL>
0

>  <SCORE.SYSTEM.SOLV>
0

>  <SCORE.SYSTEM.norm>
0

>  <SCORE.heavy>
8

>  <SCORE.norm>
-0.843871

>  <RMSD>
3.186

$$$$
ligand
 OpenBabel02271912143D
libRbt.so/2013.1/901 2013/11/27
  8  8  0  0  0  0  0  0  0  0999 V2000
    9.8782   11.0297   -1.1916 C   0  0  0  0  0  0  0  0  0  0  0  0
   10.0769   12.3193   -0.9196 N   0  0  0  0  0  0  0  0  0  0  0  0
   10.4171   12.6892    0.3178 C   0  0  0  0  0  0  0  0  0  0  0  0
   10.5750   11.7587    1.2880 N   0  0  0  0  0  0  0  0  0  0  0  0
   10.3661   10.4624    1.0027 C   0  0  0  0  0  0  0  0  0  0  0  0
   10.0210   10.0921   -0.2402 N   0  0  0  0  0  0  0  0  0  0  0  0
   10.6266   14.1279    0.5846 N   0  0  0  0  0  0  0  0  0  0  0  0
    9.5359   10.6937   -2.4567 O   0  0  0  0  0  0  0  0  0  0  0  0
  1  2  1  0  0  0  0
  1  6  1  0  0  0  0
  1  8  2  0  0  0  0
  2  3  1  0  0  0  0
  3  4  2  0  0  0  0
  3  7  1  0  0  0  0
  4  5  1  0  0  0  0
  5  6  2  0  0  0  0
M  END
>  <CHROM.1>
10.17323698,11.64306896,-0.25703644,2.70780650,1.30970903,2.76141950

>  <Name>
ligand

>  <RI>
0

>  <Rbt.Current_Directory>
/home/itssahil/PROJECTS/Mol_Feturizer/Test_systems_manuscript/rnas/3la5

>  <Rbt.Executable>
rbdock ($Id: //depot/dev/client3/rdock/2013.1/src/exe/rbdock.cxx#4 $)

>  <Rbt.Library>
libRbt.so (2013.1, Build901 2013/11/27)

>  <Rbt.Parameter_File>
/export/apps/rDock/src/rDock_2013.1_src/data/scripts/dock_solv.prm

>  <Rbt.Receptor>
prm/pocket_docking_3.prm

>  <SCORE>
-6.73162

>  <SCORE.INTER>
-6.73162

>  <SCORE.INTER.CONST>
1

>  <SCORE.INTER.POLAR>
0

>  <SCORE.INTER.ROT>
0

>  <SCORE.INTER.SOLV>
8.71079

>  <SCORE.INTER.VDW>
-10.9913

>  <SCORE.INTER.norm>
-0.841453

>  <SCORE.INTRA>
0

>  <SCORE.INTRA.DIHEDRAL>
0

>  <SCORE.INTRA.DIHEDRAL.0>
0

>  <SCORE.INTRA.POLAR>
0

>  <SCORE.INTRA.POLAR.0>
0

>  <SCORE.INTRA.REPUL>
0

>  <SCORE.INTRA.REPUL.0>
0

>  <SCORE.INTRA.SOLV>
0

>  <SCORE.INTRA.SOLV.lig_0>
-29.58

>  <SCORE.INTRA.VDW>
0

>  <SCORE.INTRA.VDW.0>
0

>  <SCORE.INTRA.norm>
0

>  <SCORE.RESTR>
0

>  <SCORE.RESTR.CAVITY>
0

>  <SCORE.RESTR.norm>
0

>  <SCORE.SYSTEM>
0

>  <SCORE.SYSTEM.CONST>
0

>  <SCORE.SYSTEM.DIHEDRAL>
0

>  <SCORE.SYSTEM.SOLV>
0

>  <SCORE.SYSTEM.norm>
0

>  <SCORE.heavy>
8

>  <SCORE.norm>
-0.841453

>  <RMSD>
3.186

$$$$
ligand
 OpenBabel02271912143D
libRbt.so/2013.1/901 2013/11/27
  8  8  0  0  0  0  0  0  0  0999 V2000
    9.8483   11.0320   -1.1692 C   0  0  0  0  0  0  0  0  0  0  0  0
   10.0313   12.3237   -0.8962 N   0  0  0  0  0  0  0  0  0  0  0  0
   10.3953   12.6944    0.3342 C   0  0  0  0  0  0  0  0  0  0  0  0
   10.5929   11.7628    1.2960 N   0  0  0  0  0  0  0  0  0  0  0  0
   10.3995   10.4642    1.0100 C   0  0  0  0  0  0  0  0  0  0  0  0
   10.0306   10.0931   -0.2257 N   0  0  0  0  0  0  0  0  0  0  0  0
   10.5863   14.1353    0.6023 N   0  0  0  0  0  0  0  0  0  0  0  0
    9.4810   10.6952   -2.4269 O   0  0  0  0  0  0  0  0  0  0  0  0
  1  2  1  0  0  0  0
  1  6  1  0  0  0  0
  1  8  2  0  0  0  0
  2  3  1  0  0  0  0
  3  4  2  0  0  0  0
  3  7  1  0  0  0  0
  4  5  1  0  0  0  0
  5  6  2  0  0  0  0
M  END
>  <CHROM.1>
10.15550678,11.64649595,-0.23926111,2.61619349,1.29226378,2.85404362

>  <Name>
ligand

>  <RI>
0

>  <Rbt.Current_Directory>
/home/itssahil/PROJECTS/Mol_Feturizer/Test_systems_manuscript/rnas/3la5

>  <Rbt.Executable>
rbdock ($Id: //depot/dev/client3/rdock/2013.1/src/exe/rbdock.cxx#4 $)

>  <Rbt.Library>
libRbt.so (2013.1, Build901 2013/11/27)

>  <Rbt.Parameter_File>
/export/apps/rDock/src/rDock_2013.1_src/data/scripts/dock_solv.prm

>  <Rbt.Receptor>
prm/pocket_docking_7.prm

>  <SCORE>
-6.75404

>  <SCORE.INTER>
-6.75404

>  <SCORE.INTER.CONST>
1

>  <SCORE.INTER.POLAR>
0

>  <SCORE.INTER.ROT>
0

>  <SCORE.INTER.SOLV>
8.65301

>  <SCORE.INTER.VDW>
-10.987

>  <SCORE.INTER.norm>
-0.844255

>  <SCORE.INTRA>
0

>  <SCORE.INTRA.DIHEDRAL>
0

>  <SCORE.INTRA.DIHEDRAL.0>
0

>  <SCORE.INTRA.POLAR>
0

>  <SCORE.INTRA.POLAR.0>
0

>  <SCORE.INTRA.REPUL>
0

>  <SCORE.INTRA.REPUL.0>
0

>  <SCORE.INTRA.SOLV>
0

>  <SCORE.INTRA.SOLV.lig_0>
-29.58

>  <SCORE.INTRA.VDW>
0

>  <SCORE.INTRA.VDW.0>
0

>  <SCORE.INTRA.norm>
0

>  <SCORE.RESTR>
0

>  <SCORE.RESTR.CAVITY>
0

>  <SCORE.RESTR.norm>
0

>  <SCORE.SYSTEM>
0

>  <SCORE.SYSTEM.CONST>
0

>  <SCORE.SYSTEM.DIHEDRAL>
0

>  <SCORE.SYSTEM.SOLV>
0

>  <SCORE.SYSTEM.norm>
0

>  <SCORE.heavy>
8

>  <SCORE.norm>
-0.844255

>  <RMSD>
3.186

$$$$
ligand
 OpenBabel02271912143D
libRbt.so/2013.1/901 2013/11/27
  8  8  0  0  0  0  0  0  0  0999 V2000
    9.8889   11.0613   -1.2382 C   0  0  0  0  0  0  0  0  0  0  0  0
   10.0946   12.3464   -0.9507 N   0  0  0  0  0  0  0  0  0  0  0  0
   10.4536   12.6978    0.2869 C   0  0  0  0  0  0  0  0  0  0  0  0
   10.6233   11.7532    1.2412 N   0  0  0  0  0  0  0  0  0  0  0  0
   10.4071   10.4616    0.9406 C   0  0  0  0  0  0  0  0  0  0  0  0
   10.0431   10.1099   -0.3024 N   0  0  0  0  0  0  0  0  0  0  0  0
   10.6704   14.1320    0.5710 N   0  0  0  0  0  0  0  0  0  0  0  0
    9.5274   10.7441   -2.5027 O   0  0  0  0  0  0  0  0  0  0  0  0
  1  2  1  0  0  0  0
  1  6  1  0  0  0  0
  1  8  2  0  0  0  0
  2  3  1  0  0  0  0
  3  4  2  0  0  0  0
  3  7  1  0  0  0  0
  4  5  1  0  0  0  0
  5  6  2  0  0  0  0
M  END
>  <CHROM.1>
10.19888415,11.66054812,-0.29926553,2.69634318,1.29533684,2.78676378

>  <Name>
ligand

>  <RI>
0

>  <Rbt.Current_Directory>
/home/itssahil/PROJECTS/Mol_Feturizer/Test_systems_manuscript/rnas/3la5

>  <Rbt.Executable>
rbdock ($Id: //depot/dev/client3/rdock/2013.1/src/exe/rbdock.cxx#4 $)

>  <Rbt.Library>
libRbt.so (2013.1, Build901 2013/11/27)

>  <Rbt.Parameter_File>
/export/apps/rDock/src/rDock_2013.1_src/data/scripts/dock_solv.prm

>  <Rbt.Receptor>
prm/pocket_docking_3.prm

>  <SCORE>
-6.75893

>  <SCORE.INTER>
-6.75893

>  <SCORE.INTER.CONST>
1

>  <SCORE.INTER.POLAR>
0

>  <SCORE.INTER.ROT>
0

>  <SCORE.INTER.SOLV>
8.8436

>  <SCORE.INTER.VDW>
-11.0538

>  <SCORE.INTER.norm>
-0.844866

>  <SCORE.INTRA>
0

>  <SCORE.INTRA.DIHEDRAL>
0

>  <SCORE.INTRA.DIHEDRAL.0>
0

>  <SCORE.INTRA.POLAR>
0

>  <SCORE.INTRA.POLAR.0>
0

>  <SCORE.INTRA.REPUL>
0

>  <SCORE.INTRA.REPUL.0>
0

>  <SCORE.INTRA.SOLV>
0

>  <SCORE.INTRA.SOLV.lig_0>
-29.58

>  <SCORE.INTRA.VDW>
0

>  <SCORE.INTRA.VDW.0>
0

>  <SCORE.INTRA.norm>
0

>  <SCORE.RESTR>
0

>  <SCORE.RESTR.CAVITY>
0

>  <SCORE.RESTR.norm>
0

>  <SCORE.SYSTEM>
0

>  <SCORE.SYSTEM.CONST>
0

>  <SCORE.SYSTEM.DIHEDRAL>
0

>  <SCORE.SYSTEM.SOLV>
0

>  <SCORE.SYSTEM.norm>
0

>  <SCORE.heavy>
8

>  <SCORE.norm>
-0.844866

>  <RMSD>
3.187

$$$$
ligand
 OpenBabel02271912143D
libRbt.so/2013.1/901 2013/11/27
  8  8  0  0  0  0  0  0  0  0999 V2000
    9.8566   11.1025   -1.2841 C   0  0  0  0  0  0  0  0  0  0  0  0
   10.0853   12.3807   -0.9837 N   0  0  0  0  0  0  0  0  0  0  0  0
   10.4089   12.7183    0.2674 C   0  0  0  0  0  0  0  0  0  0  0  0
   10.5197   11.7662    1.2230 N   0  0  0  0  0  0  0  0  0  0  0  0
   10.2809   10.4817    0.9091 C   0  0  0  0  0  0  0  0  0  0  0  0
    9.9526   10.1440   -0.3476 N   0  0  0  0  0  0  0  0  0  0  0  0
   10.6526   14.1453    0.5655 N   0  0  0  0  0  0  0  0  0  0  0  0
    9.5325   10.7993   -2.5621 O   0  0  0  0  0  0  0  0  0  0  0  0
  1  2  1  0  0  0  0
  1  6  1  0  0  0  0
  1  8  2  0  0  0  0
  2  3  1  0  0  0  0
  3  4  2  0  0  0  0
  3  7  1  0  0  0  0
  4  5  1  0  0  0  0
  5  6  2  0  0  0  0
M  END
>  <CHROM.1>
10.14837732,11.69008781,-0.33207316,2.84344863,1.31720159,2.64872935

>  <Name>
ligand

>  <RI>
0

>  <Rbt.Current_Directory>
/home/itssahil/PROJECTS/Mol_Feturizer/Test_systems_manuscript/rnas/3la5

>  <Rbt.Executable>
rbdock ($Id: //depot/dev/client3/rdock/2013.1/src/exe/rbdock.cxx#4 $)

>  <Rbt.Library>
libRbt.so (2013.1, Build901 2013/11/27)

>  <Rbt.Parameter_File>
/export/apps/rDock/src/rDock_2013.1_src/data/scripts/dock_solv.prm

>  <Rbt.Receptor>
prm/pocket_docking_4.prm

>  <SCORE>
-6.69517

>  <SCORE.INTER>
-6.69517

>  <SCORE.INTER.CONST>
1

>  <SCORE.INTER.POLAR>
0

>  <SCORE.INTER.ROT>
0

>  <SCORE.INTER.SOLV>
8.81363

>  <SCORE.INTER.VDW>
-11.0013

>  <SCORE.INTER.norm>
-0.836896

>  <SCORE.INTRA>
0

>  <SCORE.INTRA.DIHEDRAL>
0

>  <SCORE.INTRA.DIHEDRAL.0>
0

>  <SCORE.INTRA.POLAR>
0

>  <SCORE.INTRA.POLAR.0>
0

>  <SCORE.INTRA.REPUL>
0

>  <SCORE.INTRA.REPUL.0>
0

>  <SCORE.INTRA.SOLV>
0

>  <SCORE.INTRA.SOLV.lig_0>
-29.58

>  <SCORE.INTRA.VDW>
0

>  <SCORE.INTRA.VDW.0>
0

>  <SCORE.INTRA.norm>
0

>  <SCORE.RESTR>
0

>  <SCORE.RESTR.CAVITY>
0

>  <SCORE.RESTR.norm>
0

>  <SCORE.SYSTEM>
0

>  <SCORE.SYSTEM.CONST>
0

>  <SCORE.SYSTEM.DIHEDRAL>
0

>  <SCORE.SYSTEM.SOLV>
0

>  <SCORE.SYSTEM.norm>
0

>  <SCORE.heavy>
8

>  <SCORE.norm>
-0.836896

>  <RMSD>
3.187

$$$$
ligand
 OpenBabel02271912143D
libRbt.so/2013.1/901 2013/11/27
  8  8  0  0  0  0  0  0  0  0999 V2000
    9.8912   11.0305   -1.1985 C   0  0  0  0  0  0  0  0  0  0  0  0
   10.1110   12.3175   -0.9309 N   0  0  0  0  0  0  0  0  0  0  0  0
   10.4513   12.6867    0.3068 C   0  0  0  0  0  0  0  0  0  0  0  0
   10.5880   11.7578    1.2816 N   0  0  0  0  0  0  0  0  0  0  0  0
   10.3580   10.4641    1.0006 C   0  0  0  0  0  0  0  0  0  0  0  0
   10.0128   10.0946   -0.2425 N   0  0  0  0  0  0  0  0  0  0  0  0
   10.6845   14.1226    0.5686 N   0  0  0  0  0  0  0  0  0  0  0  0
    9.5495   10.6951   -2.4639 O   0  0  0  0  0  0  0  0  0  0  0  0
  1  2  1  0  0  0  0
  1  6  1  0  0  0  0
  1  8  2  0  0  0  0
  2  3  1  0  0  0  0
  3  4  2  0  0  0  0
  3  7  1  0  0  0  0
  4  5  1  0  0  0  0
  5  6  2  0  0  0  0
M  END
>  <CHROM.1>
10.19215029,11.64255610,-0.26499052,2.77731518,1.30733443,2.69007100

>  <Name>
ligand

>  <RI>
0

>  <Rbt.Current_Directory>
/home/itssahil/PROJECTS/Mol_Feturizer/Test_systems_manuscript/rnas/3la5

>  <Rbt.Executable>
rbdock ($Id: //depot/dev/client3/rdock/2013.1/src/exe/rbdock.cxx#4 $)

>  <Rbt.Library>
libRbt.so (2013.1, Build901 2013/11/27)

>  <Rbt.Parameter_File>
/export/apps/rDock/src/rDock_2013.1_src/data/scripts/dock_solv.prm

>  <Rbt.Receptor>
prm/pocket_docking_4.prm

>  <SCORE>
-6.74618

>  <SCORE.INTER>
-6.74618

>  <SCORE.INTER.CONST>
1

>  <SCORE.INTER.POLAR>
0

>  <SCORE.INTER.ROT>
0

>  <SCORE.INTER.SOLV>
8.83418

>  <SCORE.INTER.VDW>
-11.0422

>  <SCORE.INTER.norm>
-0.843272

>  <SCORE.INTRA>
0

>  <SCORE.INTRA.DIHEDRAL>
0

>  <SCORE.INTRA.DIHEDRAL.0>
0

>  <SCORE.INTRA.POLAR>
0

>  <SCORE.INTRA.POLAR.0>
0

>  <SCORE.INTRA.REPUL>
0

>  <SCORE.INTRA.REPUL.0>
0

>  <SCORE.INTRA.SOLV>
0

>  <SCORE.INTRA.SOLV.lig_0>
-29.58

>  <SCORE.INTRA.VDW>
0

>  <SCORE.INTRA.VDW.0>
0

>  <SCORE.INTRA.norm>
0

>  <SCORE.RESTR>
0

>  <SCORE.RESTR.CAVITY>
0

>  <SCORE.RESTR.norm>
0

>  <SCORE.SYSTEM>
0

>  <SCORE.SYSTEM.CONST>
0

>  <SCORE.SYSTEM.DIHEDRAL>
0

>  <SCORE.SYSTEM.SOLV>
0

>  <SCORE.SYSTEM.norm>
0

>  <SCORE.heavy>
8

>  <SCORE.norm>
-0.843272

>  <RMSD>
3.187

$$$$
ligand
 OpenBabel02271912143D
libRbt.so/2013.1/901 2013/11/27
  8  8  0  0  0  0  0  0  0  0999 V2000
    9.8667   11.0208   -1.1843 C   0  0  0  0  0  0  0  0  0  0  0  0
   10.0311   12.3136   -0.9049 N   0  0  0  0  0  0  0  0  0  0  0  0
   10.3745   12.6844    0.3314 C   0  0  0  0  0  0  0  0  0  0  0  0
   10.5701   11.7520    1.2928 N   0  0  0  0  0  0  0  0  0  0  0  0
   10.3954   10.4523    1.0003 C   0  0  0  0  0  0  0  0  0  0  0  0
   10.0472   10.0810   -0.2414 N   0  0  0  0  0  0  0  0  0  0  0  0
   10.5453   14.1266    0.6065 N   0  0  0  0  0  0  0  0  0  0  0  0
    9.5200   10.6840   -2.4479 O   0  0  0  0  0  0  0  0  0  0  0  0
  1  2  1  0  0  0  0
  1  6  1  0  0  0  0
  1  8  2  0  0  0  0
  2  3  1  0  0  0  0
  3  4  2  0  0  0  0
  3  7  1  0  0  0  0
  4  5  1  0  0  0  0
  5  6  2  0  0  0  0
M  END
>  <CHROM.1>
10.15441694,11.63577465,-0.24844132,2.58821628,1.30815888,2.88421091

>  <Name>
ligand

>  <RI>
0

>  <Rbt.Current_Directory>
/home/itssahil/PROJECTS/Mol_Feturizer/Test_systems_manuscript/rnas/3la5

>  <Rbt.Executable>
rbdock ($Id: //depot/dev/client3/rdock/2013.1/src/exe/rbdock.cxx#4 $)

>  <Rbt.Library>
libRbt.so (2013.1, Build901 2013/11/27)

>  <Rbt.Parameter_File>
/export/apps/rDock/src/rDock_2013.1_src/data/scripts/dock_solv.prm

>  <Rbt.Receptor>
prm/pocket_docking_4.prm

>  <SCORE>
-6.71051

>  <SCORE.INTER>
-6.71051

>  <SCORE.INTER.CONST>
1

>  <SCORE.INTER.POLAR>
0

>  <SCORE.INTER.ROT>
0

>  <SCORE.INTER.SOLV>
8.62103

>  <SCORE.INTER.VDW>
-10.9474

>  <SCORE.INTER.norm>
-0.838814

>  <SCORE.INTRA>
0

>  <SCORE.INTRA.DIHEDRAL>
0

>  <SCORE.INTRA.DIHEDRAL.0>
0

>  <SCORE.INTRA.POLAR>
0

>  <SCORE.INTRA.POLAR.0>
0

>  <SCORE.INTRA.REPUL>
0

>  <SCORE.INTRA.REPUL.0>
0

>  <SCORE.INTRA.SOLV>
0

>  <SCORE.INTRA.SOLV.lig_0>
-29.58

>  <SCORE.INTRA.VDW>
0

>  <SCORE.INTRA.VDW.0>
0

>  <SCORE.INTRA.norm>
0

>  <SCORE.RESTR>
0

>  <SCORE.RESTR.CAVITY>
0

>  <SCORE.RESTR.norm>
0

>  <SCORE.SYSTEM>
0

>  <SCORE.SYSTEM.CONST>
0

>  <SCORE.SYSTEM.DIHEDRAL>
0

>  <SCORE.SYSTEM.SOLV>
0

>  <SCORE.SYSTEM.norm>
0

>  <SCORE.heavy>
8

>  <SCORE.norm>
-0.838814

>  <RMSD>
3.187

$$$$
ligand
 OpenBabel02271912143D
libRbt.so/2013.1/901 2013/11/27
  8  8  0  0  0  0  0  0  0  0999 V2000
    9.8892   11.0318   -1.2021 C   0  0  0  0  0  0  0  0  0  0  0  0
   10.1066   12.3195   -0.9355 N   0  0  0  0  0  0  0  0  0  0  0  0
   10.4353   12.6916    0.3044 C   0  0  0  0  0  0  0  0  0  0  0  0
   10.5626   11.7650    1.2827 N   0  0  0  0  0  0  0  0  0  0  0  0
   10.3350   10.4707    1.0027 C   0  0  0  0  0  0  0  0  0  0  0  0
   10.0016   10.0982   -0.2427 N   0  0  0  0  0  0  0  0  0  0  0  0
   10.6663   14.1281    0.5650 N   0  0  0  0  0  0  0  0  0  0  0  0
    9.5594   10.6934   -2.4698 O   0  0  0  0  0  0  0  0  0  0  0  0
  1  2  1  0  0  0  0
  1  6  1  0  0  0  0
  1  8  2  0  0  0  0
  2  3  1  0  0  0  0
  3  4  2  0  0  0  0
  3  7  1  0  0  0  0
  4  5  1  0  0  0  0
  5  6  2  0  0  0  0
M  END
>  <CHROM.1>
10.18138037,11.64610850,-0.26724107,2.79428684,1.31573293,2.67125903

>  <Name>
ligand

>  <RI>
0

>  <Rbt.Current_Directory>
/home/itssahil/PROJECTS/Mol_Feturizer/Test_systems_manuscript/rnas/3la5

>  <Rbt.Executable>
rbdock ($Id: //depot/dev/client3/rdock/2013.1/src/exe/rbdock.cxx#4 $)

>  <Rbt.Library>
libRbt.so (2013.1, Build901 2013/11/27)

>  <Rbt.Parameter_File>
/export/apps/rDock/src/rDock_2013.1_src/data/scripts/dock_solv.prm

>  <Rbt.Receptor>
prm/blind_docking_20.prm

>  <SCORE>
-6.76141

>  <SCORE.INTER>
-6.76141

>  <SCORE.INTER.CONST>
1

>  <SCORE.INTER.POLAR>
0

>  <SCORE.INTER.ROT>
0

>  <SCORE.INTER.SOLV>
8.77075

>  <SCORE.INTER.VDW>
-11.0312

>  <SCORE.INTER.norm>
-0.845177

>  <SCORE.INTRA>
0

>  <SCORE.INTRA.DIHEDRAL>
0

>  <SCORE.INTRA.DIHEDRAL.0>
0

>  <SCORE.INTRA.POLAR>
0

>  <SCORE.INTRA.POLAR.0>
0

>  <SCORE.INTRA.REPUL>
0

>  <SCORE.INTRA.REPUL.0>
0

>  <SCORE.INTRA.SOLV>
0

>  <SCORE.INTRA.SOLV.lig_0>
-29.58

>  <SCORE.INTRA.VDW>
0

>  <SCORE.INTRA.VDW.0>
0

>  <SCORE.INTRA.norm>
0

>  <SCORE.RESTR>
0

>  <SCORE.RESTR.CAVITY>
0

>  <SCORE.RESTR.norm>
0

>  <SCORE.SYSTEM>
0

>  <SCORE.SYSTEM.CONST>
0

>  <SCORE.SYSTEM.DIHEDRAL>
0

>  <SCORE.SYSTEM.SOLV>
0

>  <SCORE.SYSTEM.norm>
0

>  <SCORE.heavy>
8

>  <SCORE.norm>
-0.845177

>  <RMSD>
3.188

$$$$
ligand
 OpenBabel02271912143D
libRbt.so/2013.1/901 2013/11/27
  8  8  0  0  0  0  0  0  0  0999 V2000
    9.8905   11.0442   -1.1311 C   0  0  0  0  0  0  0  0  0  0  0  0
   10.1002   12.3393   -0.8964 N   0  0  0  0  0  0  0  0  0  0  0  0
   10.4385   12.7425    0.3312 C   0  0  0  0  0  0  0  0  0  0  0  0
   10.5832   11.8397    1.3292 N   0  0  0  0  0  0  0  0  0  0  0  0
   10.3632   10.5376    1.0814 C   0  0  0  0  0  0  0  0  0  0  0  0
   10.0201   10.1339   -0.1516 N   0  0  0  0  0  0  0  0  0  0  0  0
   10.6604   14.1864    0.5563 N   0  0  0  0  0  0  0  0  0  0  0  0
    9.5506   10.6740   -2.3872 O   0  0  0  0  0  0  0  0  0  0  0  0
  1  2  1  0  0  0  0
  1  6  1  0  0  0  0
  1  8  2  0  0  0  0
  2  3  1  0  0  0  0
  3  4  2  0  0  0  0
  3  7  1  0  0  0  0
  4  5  1  0  0  0  0
  5  6  2  0  0  0  0
M  END
>  <CHROM.1>
10.18719800,11.68213100,-0.21360721,2.74853043,1.31010744,2.69246698

>  <Name>
ligand

>  <RI>
0

>  <Rbt.Current_Directory>
/home/itssahil/PROJECTS/Mol_Feturizer/Test_systems_manuscript/rnas/3la5

>  <Rbt.Executable>
rbdock ($Id: //depot/dev/client3/rdock/2013.1/src/exe/rbdock.cxx#4 $)

>  <Rbt.Library>
libRbt.so (2013.1, Build901 2013/11/27)

>  <Rbt.Parameter_File>
/export/apps/rDock/src/rDock_2013.1_src/data/scripts/dock_solv.prm

>  <Rbt.Receptor>
prm/pocket_docking_3.prm

>  <SCORE>
-6.72063

>  <SCORE.INTER>
-6.72063

>  <SCORE.INTER.CONST>
1

>  <SCORE.INTER.POLAR>
0

>  <SCORE.INTER.ROT>
0

>  <SCORE.INTER.SOLV>
8.64879

>  <SCORE.INTER.VDW>
-10.9633

>  <SCORE.INTER.norm>
-0.840079

>  <SCORE.INTRA>
0

>  <SCORE.INTRA.DIHEDRAL>
0

>  <SCORE.INTRA.DIHEDRAL.0>
0

>  <SCORE.INTRA.POLAR>
0

>  <SCORE.INTRA.POLAR.0>
0

>  <SCORE.INTRA.REPUL>
0

>  <SCORE.INTRA.REPUL.0>
0

>  <SCORE.INTRA.SOLV>
0

>  <SCORE.INTRA.SOLV.lig_0>
-29.58

>  <SCORE.INTRA.VDW>
0

>  <SCORE.INTRA.VDW.0>
0

>  <SCORE.INTRA.norm>
0

>  <SCORE.RESTR>
0

>  <SCORE.RESTR.CAVITY>
0

>  <SCORE.RESTR.norm>
0

>  <SCORE.SYSTEM>
0

>  <SCORE.SYSTEM.CONST>
0

>  <SCORE.SYSTEM.DIHEDRAL>
0

>  <SCORE.SYSTEM.SOLV>
0

>  <SCORE.SYSTEM.norm>
0

>  <SCORE.heavy>
8

>  <SCORE.norm>
-0.840079

>  <RMSD>
3.188

$$$$
ligand
 OpenBabel02271912143D
libRbt.so/2013.1/901 2013/11/27
  8  8  0  0  0  0  0  0  0  0999 V2000
    9.8523   11.0861   -1.2770 C   0  0  0  0  0  0  0  0  0  0  0  0
   10.0874   12.3639   -0.9799 N   0  0  0  0  0  0  0  0  0  0  0  0
   10.3996   12.7047    0.2732 C   0  0  0  0  0  0  0  0  0  0  0  0
   10.4925   11.7562    1.2343 N   0  0  0  0  0  0  0  0  0  0  0  0
   10.2473   10.4721    0.9235 C   0  0  0  0  0  0  0  0  0  0  0  0
    9.9305   10.1312   -0.3352 N   0  0  0  0  0  0  0  0  0  0  0  0
   10.6509   14.1312    0.5676 N   0  0  0  0  0  0  0  0  0  0  0  0
    9.5401   10.7795   -2.5572 O   0  0  0  0  0  0  0  0  0  0  0  0
  1  2  1  0  0  0  0
  1  6  1  0  0  0  0
  1  8  2  0  0  0  0
  2  3  1  0  0  0  0
  3  4  2  0  0  0  0
  3  7  1  0  0  0  0
  4  5  1  0  0  0  0
  5  6  2  0  0  0  0
M  END
>  <CHROM.1>
10.13792212,11.67578558,-0.32445037,2.89254978,1.32310841,2.59663064

>  <Name>
ligand

>  <RI>
0

>  <Rbt.Current_Directory>
/home/itssahil/PROJECTS/Mol_Feturizer/Test_systems_manuscript/rnas/3la5

>  <Rbt.Executable>
rbdock ($Id: //depot/dev/client3/rdock/2013.1/src/exe/rbdock.cxx#4 $)

>  <Rbt.Library>
libRbt.so (2013.1, Build901 2013/11/27)

>  <Rbt.Parameter_File>
/export/apps/rDock/src/rDock_2013.1_src/data/scripts/dock_solv.prm

>  <Rbt.Receptor>
prm/pocket_docking_3.prm

>  <SCORE>
-6.72687

>  <SCORE.INTER>
-6.72687

>  <SCORE.INTER.CONST>
1

>  <SCORE.INTER.POLAR>
0

>  <SCORE.INTER.ROT>
0

>  <SCORE.INTER.SOLV>
8.8069

>  <SCORE.INTER.VDW>
-11.0202

>  <SCORE.INTER.norm>
-0.840858

>  <SCORE.INTRA>
0

>  <SCORE.INTRA.DIHEDRAL>
0

>  <SCORE.INTRA.DIHEDRAL.0>
0

>  <SCORE.INTRA.POLAR>
0

>  <SCORE.INTRA.POLAR.0>
0

>  <SCORE.INTRA.REPUL>
0

>  <SCORE.INTRA.REPUL.0>
0

>  <SCORE.INTRA.SOLV>
0

>  <SCORE.INTRA.SOLV.lig_0>
-29.58

>  <SCORE.INTRA.VDW>
0

>  <SCORE.INTRA.VDW.0>
0

>  <SCORE.INTRA.norm>
0

>  <SCORE.RESTR>
0

>  <SCORE.RESTR.CAVITY>
0

>  <SCORE.RESTR.norm>
0

>  <SCORE.SYSTEM>
0

>  <SCORE.SYSTEM.CONST>
0

>  <SCORE.SYSTEM.DIHEDRAL>
0

>  <SCORE.SYSTEM.SOLV>
0

>  <SCORE.SYSTEM.norm>
0

>  <SCORE.heavy>
8

>  <SCORE.norm>
-0.840858

>  <RMSD>
3.188

$$$$
ligand
 OpenBabel02271912143D
libRbt.so/2013.1/901 2013/11/27
  8  8  0  0  0  0  0  0  0  0999 V2000
    9.8957   11.0103   -1.2533 C   0  0  0  0  0  0  0  0  0  0  0  0
   10.1000   12.2936   -0.9566 N   0  0  0  0  0  0  0  0  0  0  0  0
   10.4230   12.6402    0.2921 C   0  0  0  0  0  0  0  0  0  0  0  0
   10.5578   11.6925    1.2490 N   0  0  0  0  0  0  0  0  0  0  0  0
   10.3434   10.4028    0.9389 C   0  0  0  0  0  0  0  0  0  0  0  0
   10.0156   10.0560   -0.3155 N   0  0  0  0  0  0  0  0  0  0  0  0
   10.6394   14.0724    0.5862 N   0  0  0  0  0  0  0  0  0  0  0  0
    9.5713   10.6981   -2.5291 O   0  0  0  0  0  0  0  0  0  0  0  0
  1  2  1  0  0  0  0
  1  6  1  0  0  0  0
  1  8  2  0  0  0  0
  2  3  1  0  0  0  0
  3  4  2  0  0  0  0
  3  7  1  0  0  0  0
  4  5  1  0  0  0  0
  5  6  2  0  0  0  0
M  END
>  <CHROM.1>
10.18028915,11.60569268,-0.30395463,2.76185511,1.32151090,2.72574236

>  <Name>
ligand

>  <RI>
0

>  <Rbt.Current_Directory>
/home/itssahil/PROJECTS/Mol_Feturizer/Test_systems_manuscript/rnas/3la5

>  <Rbt.Executable>
rbdock ($Id: //depot/dev/client3/rdock/2013.1/src/exe/rbdock.cxx#4 $)

>  <Rbt.Library>
libRbt.so (2013.1, Build901 2013/11/27)

>  <Rbt.Parameter_File>
/export/apps/rDock/src/rDock_2013.1_src/data/scripts/dock_solv.prm

>  <Rbt.Receptor>
prm/pocket_docking_6.prm

>  <SCORE>
-6.73563

>  <SCORE.INTER>
-6.73563

>  <SCORE.INTER.CONST>
1

>  <SCORE.INTER.POLAR>
0

>  <SCORE.INTER.ROT>
0

>  <SCORE.INTER.SOLV>
8.81128

>  <SCORE.INTER.VDW>
-11.0275

>  <SCORE.INTER.norm>
-0.841954

>  <SCORE.INTRA>
0

>  <SCORE.INTRA.DIHEDRAL>
0

>  <SCORE.INTRA.DIHEDRAL.0>
0

>  <SCORE.INTRA.POLAR>
0

>  <SCORE.INTRA.POLAR.0>
0

>  <SCORE.INTRA.REPUL>
0

>  <SCORE.INTRA.REPUL.0>
0

>  <SCORE.INTRA.SOLV>
0

>  <SCORE.INTRA.SOLV.lig_0>
-29.58

>  <SCORE.INTRA.VDW>
0

>  <SCORE.INTRA.VDW.0>
0

>  <SCORE.INTRA.norm>
0

>  <SCORE.RESTR>
0

>  <SCORE.RESTR.CAVITY>
0

>  <SCORE.RESTR.norm>
0

>  <SCORE.SYSTEM>
0

>  <SCORE.SYSTEM.CONST>
0

>  <SCORE.SYSTEM.DIHEDRAL>
0

>  <SCORE.SYSTEM.SOLV>
0

>  <SCORE.SYSTEM.norm>
0

>  <SCORE.heavy>
8

>  <SCORE.norm>
-0.841954

>  <RMSD>
3.188

$$$$
ligand
 OpenBabel02271912143D
libRbt.so/2013.1/901 2013/11/27
  8  8  0  0  0  0  0  0  0  0999 V2000
    9.8487   11.0956   -1.2726 C   0  0  0  0  0  0  0  0  0  0  0  0
   10.0882   12.3738   -0.9808 N   0  0  0  0  0  0  0  0  0  0  0  0
   10.3987   12.7191    0.2715 C   0  0  0  0  0  0  0  0  0  0  0  0
   10.4854   11.7746    1.2371 N   0  0  0  0  0  0  0  0  0  0  0  0
   10.2359   10.4902    0.9316 C   0  0  0  0  0  0  0  0  0  0  0  0
    9.9208   10.1447   -0.3264 N   0  0  0  0  0  0  0  0  0  0  0  0
   10.6550   14.1459    0.5600 N   0  0  0  0  0  0  0  0  0  0  0  0
    9.5384   10.7844   -2.5522 O   0  0  0  0  0  0  0  0  0  0  0  0
  1  2  1  0  0  0  0
  1  6  1  0  0  0  0
  1  8  2  0  0  0  0
  2  3  1  0  0  0  0
  3  4  2  0  0  0  0
  3  7  1  0  0  0  0
  4  5  1  0  0  0  0
  5  6  2  0  0  0  0
M  END
>  <CHROM.1>
10.13434778,11.68851681,-0.32210871,2.91162860,1.32306501,2.57357318

>  <Name>
ligand

>  <RI>
0

>  <Rbt.Current_Directory>
/home/itssahil/PROJECTS/Mol_Feturizer/Test_systems_manuscript/rnas/3la5

>  <Rbt.Executable>
rbdock ($Id: //depot/dev/client3/rdock/2013.1/src/exe/rbdock.cxx#4 $)

>  <Rbt.Library>
libRbt.so (2013.1, Build901 2013/11/27)

>  <Rbt.Parameter_File>
/export/apps/rDock/src/rDock_2013.1_src/data/scripts/dock_solv.prm

>  <Rbt.Receptor>
prm/blind_docking_100.prm

>  <SCORE>
-6.73063

>  <SCORE.INTER>
-6.73063

>  <SCORE.INTER.CONST>
1

>  <SCORE.INTER.POLAR>
0

>  <SCORE.INTER.ROT>
0

>  <SCORE.INTER.SOLV>
8.79525

>  <SCORE.INTER.VDW>
-11.0188

>  <SCORE.INTER.norm>
-0.841329

>  <SCORE.INTRA>
0

>  <SCORE.INTRA.DIHEDRAL>
0

>  <SCORE.INTRA.DIHEDRAL.0>
0

>  <SCORE.INTRA.POLAR>
0

>  <SCORE.INTRA.POLAR.0>
0

>  <SCORE.INTRA.REPUL>
0

>  <SCORE.INTRA.REPUL.0>
0

>  <SCORE.INTRA.SOLV>
0

>  <SCORE.INTRA.SOLV.lig_0>
-29.58

>  <SCORE.INTRA.VDW>
0

>  <SCORE.INTRA.VDW.0>
0

>  <SCORE.INTRA.norm>
0

>  <SCORE.RESTR>
0

>  <SCORE.RESTR.CAVITY>
0

>  <SCORE.RESTR.norm>
0

>  <SCORE.SYSTEM>
0

>  <SCORE.SYSTEM.CONST>
0

>  <SCORE.SYSTEM.DIHEDRAL>
0

>  <SCORE.SYSTEM.SOLV>
0

>  <SCORE.SYSTEM.norm>
0

>  <SCORE.heavy>
8

>  <SCORE.norm>
-0.841329

>  <RMSD>
3.189

$$$$
ligand
 OpenBabel02271912143D
libRbt.so/2013.1/901 2013/11/27
  8  8  0  0  0  0  0  0  0  0999 V2000
    9.8698   11.0304   -1.1729 C   0  0  0  0  0  0  0  0  0  0  0  0
   10.0618   12.3225   -0.9083 N   0  0  0  0  0  0  0  0  0  0  0  0
   10.4170   12.6997    0.3227 C   0  0  0  0  0  0  0  0  0  0  0  0
   10.5967   11.7740    1.2937 N   0  0  0  0  0  0  0  0  0  0  0  0
   10.3943   10.4751    1.0161 C   0  0  0  0  0  0  0  0  0  0  0  0
   10.0342   10.0974   -0.2203 N   0  0  0  0  0  0  0  0  0  0  0  0
   10.6185   14.1410    0.5813 N   0  0  0  0  0  0  0  0  0  0  0  0
    9.5118   10.6869   -2.4315 O   0  0  0  0  0  0  0  0  0  0  0  0
  1  2  1  0  0  0  0
  1  6  1  0  0  0  0
  1  8  2  0  0  0  0
  2  3  1  0  0  0  0
  3  4  2  0  0  0  0
  3  7  1  0  0  0  0
  4  5  1  0  0  0  0
  5  6  2  0  0  0  0
M  END
>  <CHROM.1>
10.17338624,11.64948145,-0.24483373,2.65918917,1.29889656,2.80472755

>  <Name>
ligand

>  <RI>
0

>  <Rbt.Current_Directory>
/home/itssahil/PROJECTS/Mol_Feturizer/Test_systems_manuscript/rnas/3la5

>  <Rbt.Executable>
rbdock ($Id: //depot/dev/client3/rdock/2013.1/src/exe/rbdock.cxx#4 $)

>  <Rbt.Library>
libRbt.so (2013.1, Build901 2013/11/27)

>  <Rbt.Parameter_File>
/export/apps/rDock/src/rDock_2013.1_src/data/scripts/dock_solv.prm

>  <Rbt.Receptor>
prm/blind_docking_60.prm

>  <SCORE>
-6.72664

>  <SCORE.INTER>
-6.72664

>  <SCORE.INTER.CONST>
1

>  <SCORE.INTER.POLAR>
0

>  <SCORE.INTER.ROT>
0

>  <SCORE.INTER.SOLV>
8.68504

>  <SCORE.INTER.VDW>
-10.9794

>  <SCORE.INTER.norm>
-0.84083

>  <SCORE.INTRA>
0

>  <SCORE.INTRA.DIHEDRAL>
0

>  <SCORE.INTRA.DIHEDRAL.0>
0

>  <SCORE.INTRA.POLAR>
0

>  <SCORE.INTRA.POLAR.0>
0

>  <SCORE.INTRA.REPUL>
0

>  <SCORE.INTRA.REPUL.0>
0

>  <SCORE.INTRA.SOLV>
0

>  <SCORE.INTRA.SOLV.lig_0>
-29.58

>  <SCORE.INTRA.VDW>
0

>  <SCORE.INTRA.VDW.0>
0

>  <SCORE.INTRA.norm>
0

>  <SCORE.RESTR>
0

>  <SCORE.RESTR.CAVITY>
0

>  <SCORE.RESTR.norm>
0

>  <SCORE.SYSTEM>
0

>  <SCORE.SYSTEM.CONST>
0

>  <SCORE.SYSTEM.DIHEDRAL>
0

>  <SCORE.SYSTEM.SOLV>
0

>  <SCORE.SYSTEM.norm>
0

>  <SCORE.heavy>
8

>  <SCORE.norm>
-0.84083

>  <RMSD>
3.189

$$$$
ligand
 OpenBabel02271912143D
libRbt.so/2013.1/901 2013/11/27
  8  8  0  0  0  0  0  0  0  0999 V2000
    9.8826   11.0358   -1.1945 C   0  0  0  0  0  0  0  0  0  0  0  0
   10.1075   12.3231   -0.9322 N   0  0  0  0  0  0  0  0  0  0  0  0
   10.4466   12.6965    0.3045 C   0  0  0  0  0  0  0  0  0  0  0  0
   10.5769   11.7714    1.2838 N   0  0  0  0  0  0  0  0  0  0  0  0
   10.3417   10.4775    1.0083 C   0  0  0  0  0  0  0  0  0  0  0  0
    9.9978   10.1038   -0.2339 N   0  0  0  0  0  0  0  0  0  0  0  0
   10.6856   14.1325    0.5603 N   0  0  0  0  0  0  0  0  0  0  0  0
    9.5423   10.6961   -2.4591 O   0  0  0  0  0  0  0  0  0  0  0  0
  1  2  1  0  0  0  0
  1  6  1  0  0  0  0
  1  8  2  0  0  0  0
  2  3  1  0  0  0  0
  3  4  2  0  0  0  0
  3  7  1  0  0  0  0
  4  5  1  0  0  0  0
  5  6  2  0  0  0  0
M  END
>  <CHROM.1>
10.18408998,11.65082462,-0.26307111,2.79656202,1.30741118,2.66690745

>  <Name>
ligand

>  <RI>
0

>  <Rbt.Current_Directory>
/home/itssahil/PROJECTS/Mol_Feturizer/Test_systems_manuscript/rnas/3la5

>  <Rbt.Executable>
rbdock ($Id: //depot/dev/client3/rdock/2013.1/src/exe/rbdock.cxx#4 $)

>  <Rbt.Library>
libRbt.so (2013.1, Build901 2013/11/27)

>  <Rbt.Parameter_File>
/export/apps/rDock/src/rDock_2013.1_src/data/scripts/dock_solv.prm

>  <Rbt.Receptor>
prm/pocket_docking_3.prm

>  <SCORE>
-6.74881

>  <SCORE.INTER>
-6.74881

>  <SCORE.INTER.CONST>
1

>  <SCORE.INTER.POLAR>
0

>  <SCORE.INTER.ROT>
0

>  <SCORE.INTER.SOLV>
8.82821

>  <SCORE.INTER.VDW>
-11.0419

>  <SCORE.INTER.norm>
-0.843601

>  <SCORE.INTRA>
0

>  <SCORE.INTRA.DIHEDRAL>
0

>  <SCORE.INTRA.DIHEDRAL.0>
0

>  <SCORE.INTRA.POLAR>
0

>  <SCORE.INTRA.POLAR.0>
0

>  <SCORE.INTRA.REPUL>
0

>  <SCORE.INTRA.REPUL.0>
0

>  <SCORE.INTRA.SOLV>
0

>  <SCORE.INTRA.SOLV.lig_0>
-29.58

>  <SCORE.INTRA.VDW>
0

>  <SCORE.INTRA.VDW.0>
0

>  <SCORE.INTRA.norm>
0

>  <SCORE.RESTR>
0

>  <SCORE.RESTR.CAVITY>
0

>  <SCORE.RESTR.norm>
0

>  <SCORE.SYSTEM>
0

>  <SCORE.SYSTEM.CONST>
0

>  <SCORE.SYSTEM.DIHEDRAL>
0

>  <SCORE.SYSTEM.SOLV>
0

>  <SCORE.SYSTEM.norm>
0

>  <SCORE.heavy>
8

>  <SCORE.norm>
-0.843601

>  <RMSD>
3.189

$$$$
ligand
 OpenBabel02271912143D
libRbt.so/2013.1/901 2013/11/27
  8  8  0  0  0  0  0  0  0  0999 V2000
    9.8297   11.0316   -1.2409 C   0  0  0  0  0  0  0  0  0  0  0  0
   10.0095   12.3176   -0.9405 N   0  0  0  0  0  0  0  0  0  0  0  0
   10.2989   12.6690    0.3152 C   0  0  0  0  0  0  0  0  0  0  0  0
   10.4246   11.7236    1.2755 N   0  0  0  0  0  0  0  0  0  0  0  0
   10.2351   10.4310    0.9613 C   0  0  0  0  0  0  0  0  0  0  0  0
    9.9411   10.0793   -0.3000 N   0  0  0  0  0  0  0  0  0  0  0  0
   10.4888   14.1043    0.6132 N   0  0  0  0  0  0  0  0  0  0  0  0
    9.5391   10.7145   -2.5237 O   0  0  0  0  0  0  0  0  0  0  0  0
  1  2  1  0  0  0  0
  1  6  1  0  0  0  0
  1  8  2  0  0  0  0
  2  3  1  0  0  0  0
  3  4  2  0  0  0  0
  3  7  1  0  0  0  0
  4  5  1  0  0  0  0
  5  6  2  0  0  0  0
M  END
>  <CHROM.1>
10.08418307,11.63113513,-0.28568335,2.74709142,1.34810604,2.73962372

>  <Name>
ligand

>  <RI>
0

>  <Rbt.Current_Directory>
/home/itssahil/PROJECTS/Mol_Feturizer/Test_systems_manuscript/rnas/3la5

>  <Rbt.Executable>
rbdock ($Id: //depot/dev/client3/rdock/2013.1/src/exe/rbdock.cxx#4 $)

>  <Rbt.Library>
libRbt.so (2013.1, Build901 2013/11/27)

>  <Rbt.Parameter_File>
/export/apps/rDock/src/rDock_2013.1_src/data/scripts/dock_solv.prm

>  <Rbt.Receptor>
prm/pocket_docking_3.prm

>  <SCORE>
-6.71287

>  <SCORE.INTER>
-6.71287

>  <SCORE.INTER.CONST>
1

>  <SCORE.INTER.POLAR>
0

>  <SCORE.INTER.ROT>
0

>  <SCORE.INTER.SOLV>
8.61496

>  <SCORE.INTER.VDW>
-10.9469

>  <SCORE.INTER.norm>
-0.839108

>  <SCORE.INTRA>
0

>  <SCORE.INTRA.DIHEDRAL>
0

>  <SCORE.INTRA.DIHEDRAL.0>
0

>  <SCORE.INTRA.POLAR>
0

>  <SCORE.INTRA.POLAR.0>
0

>  <SCORE.INTRA.REPUL>
0

>  <SCORE.INTRA.REPUL.0>
0

>  <SCORE.INTRA.SOLV>
0

>  <SCORE.INTRA.SOLV.lig_0>
-29.58

>  <SCORE.INTRA.VDW>
0

>  <SCORE.INTRA.VDW.0>
0

>  <SCORE.INTRA.norm>
0

>  <SCORE.RESTR>
0

>  <SCORE.RESTR.CAVITY>
0

>  <SCORE.RESTR.norm>
0

>  <SCORE.SYSTEM>
0

>  <SCORE.SYSTEM.CONST>
0

>  <SCORE.SYSTEM.DIHEDRAL>
0

>  <SCORE.SYSTEM.SOLV>
0

>  <SCORE.SYSTEM.norm>
0

>  <SCORE.heavy>
8

>  <SCORE.norm>
-0.839108

>  <RMSD>
3.189

$$$$
ligand
 OpenBabel02271912143D
libRbt.so/2013.1/901 2013/11/27
  8  8  0  0  0  0  0  0  0  0999 V2000
    9.8644   11.0832   -1.2349 C   0  0  0  0  0  0  0  0  0  0  0  0
   10.0792   12.3679   -0.9523 N   0  0  0  0  0  0  0  0  0  0  0  0
   10.4439   12.7211    0.2831 C   0  0  0  0  0  0  0  0  0  0  0  0
   10.6102   11.7785    1.2401 N   0  0  0  0  0  0  0  0  0  0  0  0
   10.3848   10.4874    0.9443 C   0  0  0  0  0  0  0  0  0  0  0  0
   10.0151   10.1339   -0.2964 N   0  0  0  0  0  0  0  0  0  0  0  0
   10.6707   14.1548    0.5619 N   0  0  0  0  0  0  0  0  0  0  0  0
    9.4973   10.7642   -2.4974 O   0  0  0  0  0  0  0  0  0  0  0  0
  1  2  1  0  0  0  0
  1  6  1  0  0  0  0
  1  8  2  0  0  0  0
  2  3  1  0  0  0  0
  3  4  2  0  0  0  0
  3  7  1  0  0  0  0
  4  5  1  0  0  0  0
  5  6  2  0  0  0  0
M  END
>  <CHROM.1>
10.18086549,11.68355520,-0.29890899,2.71461412,1.29042487,2.76588661

>  <Name>
ligand

>  <RI>
0

>  <Rbt.Current_Directory>
/home/itssahil/PROJECTS/Mol_Feturizer/Test_systems_manuscript/rnas/3la5

>  <Rbt.Executable>
rbdock ($Id: //depot/dev/client3/rdock/2013.1/src/exe/rbdock.cxx#4 $)

>  <Rbt.Library>
libRbt.so (2013.1, Build901 2013/11/27)

>  <Rbt.Parameter_File>
/export/apps/rDock/src/rDock_2013.1_src/data/scripts/dock_solv.prm

>  <Rbt.Receptor>
prm/pocket_docking_4.prm

>  <SCORE>
-6.73775

>  <SCORE.INTER>
-6.73775

>  <SCORE.INTER.CONST>
1

>  <SCORE.INTER.POLAR>
0

>  <SCORE.INTER.ROT>
0

>  <SCORE.INTER.SOLV>
8.82883

>  <SCORE.INTER.VDW>
-11.0348

>  <SCORE.INTER.norm>
-0.842219

>  <SCORE.INTRA>
0

>  <SCORE.INTRA.DIHEDRAL>
0

>  <SCORE.INTRA.DIHEDRAL.0>
0

>  <SCORE.INTRA.POLAR>
0

>  <SCORE.INTRA.POLAR.0>
0

>  <SCORE.INTRA.REPUL>
0

>  <SCORE.INTRA.REPUL.0>
0

>  <SCORE.INTRA.SOLV>
0

>  <SCORE.INTRA.SOLV.lig_0>
-29.58

>  <SCORE.INTRA.VDW>
0

>  <SCORE.INTRA.VDW.0>
0

>  <SCORE.INTRA.norm>
0

>  <SCORE.RESTR>
0

>  <SCORE.RESTR.CAVITY>
0

>  <SCORE.RESTR.norm>
0

>  <SCORE.SYSTEM>
0

>  <SCORE.SYSTEM.CONST>
0

>  <SCORE.SYSTEM.DIHEDRAL>
0

>  <SCORE.SYSTEM.SOLV>
0

>  <SCORE.SYSTEM.norm>
0

>  <SCORE.heavy>
8

>  <SCORE.norm>
-0.842219

>  <RMSD>
3.189

$$$$
ligand
 OpenBabel02271912143D
libRbt.so/2013.1/901 2013/11/27
  8  8  0  0  0  0  0  0  0  0999 V2000
    9.8735   11.0483   -1.1908 C   0  0  0  0  0  0  0  0  0  0  0  0
   10.1037   12.3356   -0.9332 N   0  0  0  0  0  0  0  0  0  0  0  0
   10.4206   12.7152    0.3075 C   0  0  0  0  0  0  0  0  0  0  0  0
   10.5230   11.7963    1.2960 N   0  0  0  0  0  0  0  0  0  0  0  0
   10.2827   10.5024    1.0250 C   0  0  0  0  0  0  0  0  0  0  0  0
    9.9611   10.1225   -0.2213 N   0  0  0  0  0  0  0  0  0  0  0  0
   10.6664   14.1511    0.5578 N   0  0  0  0  0  0  0  0  0  0  0  0
    9.5563   10.7021   -2.4596 O   0  0  0  0  0  0  0  0  0  0  0  0
  1  2  1  0  0  0  0
  1  6  1  0  0  0  0
  1  8  2  0  0  0  0
  2  3  1  0  0  0  0
  3  4  2  0  0  0  0
  3  7  1  0  0  0  0
  4  5  1  0  0  0  0
  5  6  2  0  0  0  0
M  END
>  <CHROM.1>
10.16098515,11.66764000,-0.25777772,2.86487352,1.32124147,2.59353094

>  <Name>
ligand

>  <RI>
0

>  <Rbt.Current_Directory>
/home/itssahil/PROJECTS/Mol_Feturizer/Test_systems_manuscript/rnas/3la5

>  <Rbt.Executable>
rbdock ($Id: //depot/dev/client3/rdock/2013.1/src/exe/rbdock.cxx#4 $)

>  <Rbt.Library>
libRbt.so (2013.1, Build901 2013/11/27)

>  <Rbt.Parameter_File>
/export/apps/rDock/src/rDock_2013.1_src/data/scripts/dock_solv.prm

>  <Rbt.Receptor>
prm/pocket_docking_4.prm

>  <SCORE>
-6.73701

>  <SCORE.INTER>
-6.73701

>  <SCORE.INTER.CONST>
1

>  <SCORE.INTER.POLAR>
0

>  <SCORE.INTER.ROT>
0

>  <SCORE.INTER.SOLV>
8.73279

>  <SCORE.INTER.VDW>
-11.0023

>  <SCORE.INTER.norm>
-0.842126

>  <SCORE.INTRA>
0

>  <SCORE.INTRA.DIHEDRAL>
0

>  <SCORE.INTRA.DIHEDRAL.0>
0

>  <SCORE.INTRA.POLAR>
0

>  <SCORE.INTRA.POLAR.0>
0

>  <SCORE.INTRA.REPUL>
0

>  <SCORE.INTRA.REPUL.0>
0

>  <SCORE.INTRA.SOLV>
0

>  <SCORE.INTRA.SOLV.lig_0>
-29.58

>  <SCORE.INTRA.VDW>
0

>  <SCORE.INTRA.VDW.0>
0

>  <SCORE.INTRA.norm>
0

>  <SCORE.RESTR>
0

>  <SCORE.RESTR.CAVITY>
0

>  <SCORE.RESTR.norm>
0

>  <SCORE.SYSTEM>
0

>  <SCORE.SYSTEM.CONST>
0

>  <SCORE.SYSTEM.DIHEDRAL>
0

>  <SCORE.SYSTEM.SOLV>
0

>  <SCORE.SYSTEM.norm>
0

>  <SCORE.heavy>
8

>  <SCORE.norm>
-0.842126

>  <RMSD>
3.189

$$$$
ligand
 OpenBabel02271912143D
libRbt.so/2013.1/901 2013/11/27
  8  8  0  0  0  0  0  0  0  0999 V2000
    9.8561   11.0403   -1.1754 C   0  0  0  0  0  0  0  0  0  0  0  0
   10.0543   12.3316   -0.9111 N   0  0  0  0  0  0  0  0  0  0  0  0
   10.4000   12.7085    0.3227 C   0  0  0  0  0  0  0  0  0  0  0  0
   10.5638   11.7834    1.2969 N   0  0  0  0  0  0  0  0  0  0  0  0
   10.3553   10.4853    1.0196 C   0  0  0  0  0  0  0  0  0  0  0  0
   10.0047   10.1080   -0.2196 N   0  0  0  0  0  0  0  0  0  0  0  0
   10.6087   14.1489    0.5807 N   0  0  0  0  0  0  0  0  0  0  0  0
    9.5081   10.6971   -2.4369 O   0  0  0  0  0  0  0  0  0  0  0  0
  1  2  1  0  0  0  0
  1  6  1  0  0  0  0
  1  8  2  0  0  0  0
  2  3  1  0  0  0  0
  3  4  2  0  0  0  0
  3  7  1  0  0  0  0
  4  5  1  0  0  0  0
  5  6  2  0  0  0  0
M  END
>  <CHROM.1>
10.15474560,11.65900163,-0.24545225,2.69604898,1.30571035,2.76746049

>  <Name>
ligand

>  <RI>
0

>  <Rbt.Current_Directory>
/home/itssahil/PROJECTS/Mol_Feturizer/Test_systems_manuscript/rnas/3la5

>  <Rbt.Executable>
rbdock ($Id: //depot/dev/client3/rdock/2013.1/src/exe/rbdock.cxx#4 $)

>  <Rbt.Library>
libRbt.so (2013.1, Build901 2013/11/27)

>  <Rbt.Parameter_File>
/export/apps/rDock/src/rDock_2013.1_src/data/scripts/dock_solv.prm

>  <Rbt.Receptor>
prm/pocket_docking_6.prm

>  <SCORE>
-6.73181

>  <SCORE.INTER>
-6.73181

>  <SCORE.INTER.CONST>
1

>  <SCORE.INTER.POLAR>
0

>  <SCORE.INTER.ROT>
0

>  <SCORE.INTER.SOLV>
8.66532

>  <SCORE.INTER.VDW>
-10.9763

>  <SCORE.INTER.norm>
-0.841476

>  <SCORE.INTRA>
0

>  <SCORE.INTRA.DIHEDRAL>
0

>  <SCORE.INTRA.DIHEDRAL.0>
0

>  <SCORE.INTRA.POLAR>
0

>  <SCORE.INTRA.POLAR.0>
0

>  <SCORE.INTRA.REPUL>
0

>  <SCORE.INTRA.REPUL.0>
0

>  <SCORE.INTRA.SOLV>
0

>  <SCORE.INTRA.SOLV.lig_0>
-29.58

>  <SCORE.INTRA.VDW>
0

>  <SCORE.INTRA.VDW.0>
0

>  <SCORE.INTRA.norm>
0

>  <SCORE.RESTR>
0

>  <SCORE.RESTR.CAVITY>
0

>  <SCORE.RESTR.norm>
0

>  <SCORE.SYSTEM>
0

>  <SCORE.SYSTEM.CONST>
0

>  <SCORE.SYSTEM.DIHEDRAL>
0

>  <SCORE.SYSTEM.SOLV>
0

>  <SCORE.SYSTEM.norm>
0

>  <SCORE.heavy>
8

>  <SCORE.norm>
-0.841476

>  <RMSD>
3.189

$$$$
ligand
 OpenBabel02271912143D
libRbt.so/2013.1/901 2013/11/27
  8  8  0  0  0  0  0  0  0  0999 V2000
    9.8465   11.0893   -1.2826 C   0  0  0  0  0  0  0  0  0  0  0  0
   10.0705   12.3684   -0.9825 N   0  0  0  0  0  0  0  0  0  0  0  0
   10.3940   12.7072    0.2683 C   0  0  0  0  0  0  0  0  0  0  0  0
   10.5093   11.7555    1.2238 N   0  0  0  0  0  0  0  0  0  0  0  0
   10.2751   10.4702    0.9101 C   0  0  0  0  0  0  0  0  0  0  0  0
    9.9469   10.1313   -0.3463 N   0  0  0  0  0  0  0  0  0  0  0  0
   10.6325   14.1352    0.5662 N   0  0  0  0  0  0  0  0  0  0  0  0
    9.5223   10.7849   -2.5604 O   0  0  0  0  0  0  0  0  0  0  0  0
  1  2  1  0  0  0  0
  1  6  1  0  0  0  0
  1  8  2  0  0  0  0
  2  3  1  0  0  0  0
  3  4  2  0  0  0  0
  3  7  1  0  0  0  0
  4  5  1  0  0  0  0
  5  6  2  0  0  0  0
M  END
>  <CHROM.1>
10.13684596,11.67805062,-0.33089039,2.82835306,1.31817442,2.66336108

>  <Name>
ligand

>  <RI>
0

>  <Rbt.Current_Directory>
/home/itssahil/PROJECTS/Mol_Feturizer/Test_systems_manuscript/rnas/3la5

>  <Rbt.Executable>
rbdock ($Id: //depot/dev/client3/rdock/2013.1/src/exe/rbdock.cxx#4 $)

>  <Rbt.Library>
libRbt.so (2013.1, Build901 2013/11/27)

>  <Rbt.Parameter_File>
/export/apps/rDock/src/rDock_2013.1_src/data/scripts/dock_solv.prm

>  <Rbt.Receptor>
prm/blind_docking_20.prm

>  <SCORE>
-6.73228

>  <SCORE.INTER>
-6.73228

>  <SCORE.INTER.CONST>
1

>  <SCORE.INTER.POLAR>
0

>  <SCORE.INTER.ROT>
0

>  <SCORE.INTER.SOLV>
8.79245

>  <SCORE.INTER.VDW>
-11.019

>  <SCORE.INTER.norm>
-0.841535

>  <SCORE.INTRA>
0

>  <SCORE.INTRA.DIHEDRAL>
0

>  <SCORE.INTRA.DIHEDRAL.0>
0

>  <SCORE.INTRA.POLAR>
0

>  <SCORE.INTRA.POLAR.0>
0

>  <SCORE.INTRA.REPUL>
0

>  <SCORE.INTRA.REPUL.0>
0

>  <SCORE.INTRA.SOLV>
0

>  <SCORE.INTRA.SOLV.lig_0>
-29.58

>  <SCORE.INTRA.VDW>
0

>  <SCORE.INTRA.VDW.0>
0

>  <SCORE.INTRA.norm>
0

>  <SCORE.RESTR>
0

>  <SCORE.RESTR.CAVITY>
0

>  <SCORE.RESTR.norm>
0

>  <SCORE.SYSTEM>
0

>  <SCORE.SYSTEM.CONST>
0

>  <SCORE.SYSTEM.DIHEDRAL>
0

>  <SCORE.SYSTEM.SOLV>
0

>  <SCORE.SYSTEM.norm>
0

>  <SCORE.heavy>
8

>  <SCORE.norm>
-0.841535

>  <RMSD>
3.190

$$$$
ligand
 OpenBabel02271912143D
libRbt.so/2013.1/901 2013/11/27
  8  8  0  0  0  0  0  0  0  0999 V2000
    9.8648   11.0315   -1.2675 C   0  0  0  0  0  0  0  0  0  0  0  0
   10.0807   12.3125   -0.9695 N   0  0  0  0  0  0  0  0  0  0  0  0
   10.3755   12.6586    0.2864 C   0  0  0  0  0  0  0  0  0  0  0  0
   10.4702   11.7123    1.2495 N   0  0  0  0  0  0  0  0  0  0  0  0
   10.2445   10.4250    0.9377 C   0  0  0  0  0  0  0  0  0  0  0  0
    9.9451   10.0787   -0.3238 N   0  0  0  0  0  0  0  0  0  0  0  0
   10.6059   14.0884    0.5816 N   0  0  0  0  0  0  0  0  0  0  0  0
    9.5699   10.7196   -2.5505 O   0  0  0  0  0  0  0  0  0  0  0  0
  1  2  1  0  0  0  0
  1  6  1  0  0  0  0
  1  8  2  0  0  0  0
  2  3  1  0  0  0  0
  3  4  2  0  0  0  0
  3  7  1  0  0  0  0
  4  5  1  0  0  0  0
  5  6  2  0  0  0  0
M  END
>  <CHROM.1>
10.13302921,11.62577741,-0.31276483,2.86959897,1.33847821,2.61775452

>  <Name>
ligand

>  <RI>
0

>  <Rbt.Current_Directory>
/home/itssahil/PROJECTS/Mol_Feturizer/Test_systems_manuscript/rnas/3la5

>  <Rbt.Executable>
rbdock ($Id: //depot/dev/client3/rdock/2013.1/src/exe/rbdock.cxx#4 $)

>  <Rbt.Library>
libRbt.so (2013.1, Build901 2013/11/27)

>  <Rbt.Parameter_File>
/export/apps/rDock/src/rDock_2013.1_src/data/scripts/dock_solv.prm

>  <Rbt.Receptor>
prm/blind_docking_80.prm

>  <SCORE>
-6.74755

>  <SCORE.INTER>
-6.74755

>  <SCORE.INTER.CONST>
1

>  <SCORE.INTER.POLAR>
0

>  <SCORE.INTER.ROT>
0

>  <SCORE.INTER.SOLV>
8.74127

>  <SCORE.INTER.VDW>
-11.0121

>  <SCORE.INTER.norm>
-0.843443

>  <SCORE.INTRA>
0

>  <SCORE.INTRA.DIHEDRAL>
0

>  <SCORE.INTRA.DIHEDRAL.0>
0

>  <SCORE.INTRA.POLAR>
0

>  <SCORE.INTRA.POLAR.0>
0

>  <SCORE.INTRA.REPUL>
0

>  <SCORE.INTRA.REPUL.0>
0

>  <SCORE.INTRA.SOLV>
0

>  <SCORE.INTRA.SOLV.lig_0>
-29.58

>  <SCORE.INTRA.VDW>
0

>  <SCORE.INTRA.VDW.0>
0

>  <SCORE.INTRA.norm>
0

>  <SCORE.RESTR>
0

>  <SCORE.RESTR.CAVITY>
0

>  <SCORE.RESTR.norm>
0

>  <SCORE.SYSTEM>
0

>  <SCORE.SYSTEM.CONST>
0

>  <SCORE.SYSTEM.DIHEDRAL>
0

>  <SCORE.SYSTEM.SOLV>
0

>  <SCORE.SYSTEM.norm>
0

>  <SCORE.heavy>
8

>  <SCORE.norm>
-0.843443

>  <RMSD>
3.190

$$$$
ligand
 OpenBabel02271912143D
libRbt.so/2013.1/901 2013/11/27
  8  8  0  0  0  0  0  0  0  0999 V2000
    9.8429   11.0996   -1.2806 C   0  0  0  0  0  0  0  0  0  0  0  0
   10.0724   12.3784   -0.9835 N   0  0  0  0  0  0  0  0  0  0  0  0
   10.3888   12.7199    0.2684 C   0  0  0  0  0  0  0  0  0  0  0  0
   10.4916   11.7711    1.2281 N   0  0  0  0  0  0  0  0  0  0  0  0
   10.2521   10.4860    0.9174 C   0  0  0  0  0  0  0  0  0  0  0  0
    9.9309   10.1444   -0.3400 N   0  0  0  0  0  0  0  0  0  0  0  0
   10.6337   14.1475    0.5628 N   0  0  0  0  0  0  0  0  0  0  0  0
    9.5262   10.7924   -2.5595 O   0  0  0  0  0  0  0  0  0  0  0  0
  1  2  1  0  0  0  0
  1  6  1  0  0  0  0
  1  8  2  0  0  0  0
  2  3  1  0  0  0  0
  3  4  2  0  0  0  0
  3  7  1  0  0  0  0
  4  5  1  0  0  0  0
  5  6  2  0  0  0  0
M  END
>  <CHROM.1>
10.12990143,11.69005767,-0.32891956,2.86314402,1.32169574,2.62598751

>  <Name>
ligand

>  <RI>
0

>  <Rbt.Current_Directory>
/home/itssahil/PROJECTS/Mol_Feturizer/Test_systems_manuscript/rnas/3la5

>  <Rbt.Executable>
rbdock ($Id: //depot/dev/client3/rdock/2013.1/src/exe/rbdock.cxx#4 $)

>  <Rbt.Library>
libRbt.so (2013.1, Build901 2013/11/27)

>  <Rbt.Parameter_File>
/export/apps/rDock/src/rDock_2013.1_src/data/scripts/dock_solv.prm

>  <Rbt.Receptor>
prm/pocket_docking_3.prm

>  <SCORE>
-6.73334

>  <SCORE.INTER>
-6.73334

>  <SCORE.INTER.CONST>
1

>  <SCORE.INTER.POLAR>
0

>  <SCORE.INTER.ROT>
0

>  <SCORE.INTER.SOLV>
8.77708

>  <SCORE.INTER.VDW>
-11.0146

>  <SCORE.INTER.norm>
-0.841668

>  <SCORE.INTRA>
0

>  <SCORE.INTRA.DIHEDRAL>
0

>  <SCORE.INTRA.DIHEDRAL.0>
0

>  <SCORE.INTRA.POLAR>
0

>  <SCORE.INTRA.POLAR.0>
0

>  <SCORE.INTRA.REPUL>
0

>  <SCORE.INTRA.REPUL.0>
0

>  <SCORE.INTRA.SOLV>
0

>  <SCORE.INTRA.SOLV.lig_0>
-29.58

>  <SCORE.INTRA.VDW>
0

>  <SCORE.INTRA.VDW.0>
0

>  <SCORE.INTRA.norm>
0

>  <SCORE.RESTR>
0

>  <SCORE.RESTR.CAVITY>
0

>  <SCORE.RESTR.norm>
0

>  <SCORE.SYSTEM>
0

>  <SCORE.SYSTEM.CONST>
0

>  <SCORE.SYSTEM.DIHEDRAL>
0

>  <SCORE.SYSTEM.SOLV>
0

>  <SCORE.SYSTEM.norm>
0

>  <SCORE.heavy>
8

>  <SCORE.norm>
-0.841668

>  <RMSD>
3.190

$$$$
ligand
 OpenBabel02271912143D
libRbt.so/2013.1/901 2013/11/27
  8  8  0  0  0  0  0  0  0  0999 V2000
    9.8715   11.0295   -1.2663 C   0  0  0  0  0  0  0  0  0  0  0  0
   10.0925   12.3102   -0.9706 N   0  0  0  0  0  0  0  0  0  0  0  0
   10.3911   12.6570    0.2842 C   0  0  0  0  0  0  0  0  0  0  0  0
   10.4846   11.7118    1.2484 N   0  0  0  0  0  0  0  0  0  0  0  0
   10.2538   10.4248    0.9390 C   0  0  0  0  0  0  0  0  0  0  0  0
    9.9505   10.0778   -0.3214 N   0  0  0  0  0  0  0  0  0  0  0  0
   10.6270   14.0865    0.5769 N   0  0  0  0  0  0  0  0  0  0  0  0
    9.5728   10.7169   -2.5483 O   0  0  0  0  0  0  0  0  0  0  0  0
  1  2  1  0  0  0  0
  1  6  1  0  0  0  0
  1  8  2  0  0  0  0
  2  3  1  0  0  0  0
  3  4  2  0  0  0  0
  3  7  1  0  0  0  0
  4  5  1  0  0  0  0
  5  6  2  0  0  0  0
M  END
>  <CHROM.1>
10.14380661,11.62421909,-0.31296963,2.87780955,1.33492655,2.60837514

>  <Name>
ligand

>  <RI>
0

>  <Rbt.Current_Directory>
/home/itssahil/PROJECTS/Mol_Feturizer/Test_systems_manuscript/rnas/3la5

>  <Rbt.Executable>
rbdock ($Id: //depot/dev/client3/rdock/2013.1/src/exe/rbdock.cxx#4 $)

>  <Rbt.Library>
libRbt.so (2013.1, Build901 2013/11/27)

>  <Rbt.Parameter_File>
/export/apps/rDock/src/rDock_2013.1_src/data/scripts/dock_solv.prm

>  <Rbt.Receptor>
prm/pocket_docking_3.prm

>  <SCORE>
-6.74529

>  <SCORE.INTER>
-6.74529

>  <SCORE.INTER.CONST>
1

>  <SCORE.INTER.POLAR>
0

>  <SCORE.INTER.ROT>
0

>  <SCORE.INTER.SOLV>
8.77412

>  <SCORE.INTER.VDW>
-11.0216

>  <SCORE.INTER.norm>
-0.843162

>  <SCORE.INTRA>
0

>  <SCORE.INTRA.DIHEDRAL>
0

>  <SCORE.INTRA.DIHEDRAL.0>
0

>  <SCORE.INTRA.POLAR>
0

>  <SCORE.INTRA.POLAR.0>
0

>  <SCORE.INTRA.REPUL>
0

>  <SCORE.INTRA.REPUL.0>
0

>  <SCORE.INTRA.SOLV>
0

>  <SCORE.INTRA.SOLV.lig_0>
-29.58

>  <SCORE.INTRA.VDW>
0

>  <SCORE.INTRA.VDW.0>
0

>  <SCORE.INTRA.norm>
0

>  <SCORE.RESTR>
0

>  <SCORE.RESTR.CAVITY>
0

>  <SCORE.RESTR.norm>
0

>  <SCORE.SYSTEM>
0

>  <SCORE.SYSTEM.CONST>
0

>  <SCORE.SYSTEM.DIHEDRAL>
0

>  <SCORE.SYSTEM.SOLV>
0

>  <SCORE.SYSTEM.norm>
0

>  <SCORE.heavy>
8

>  <SCORE.norm>
-0.843162

>  <RMSD>
3.190

$$$$
ligand
 OpenBabel02271912143D
libRbt.so/2013.1/901 2013/11/27
  8  8  0  0  0  0  0  0  0  0999 V2000
    9.8716   11.0343   -1.1915 C   0  0  0  0  0  0  0  0  0  0  0  0
   10.0828   12.3232   -0.9256 N   0  0  0  0  0  0  0  0  0  0  0  0
   10.4280   12.6956    0.3097 C   0  0  0  0  0  0  0  0  0  0  0  0
   10.5783   11.7681    1.2839 N   0  0  0  0  0  0  0  0  0  0  0  0
   10.3568   10.4725    1.0049 C   0  0  0  0  0  0  0  0  0  0  0  0
   10.0068   10.0998   -0.2359 N   0  0  0  0  0  0  0  0  0  0  0  0
   10.6513   14.1334    0.5696 N   0  0  0  0  0  0  0  0  0  0  0  0
    9.5246   10.6957   -2.4545 O   0  0  0  0  0  0  0  0  0  0  0  0
  1  2  1  0  0  0  0
  1  6  1  0  0  0  0
  1  8  2  0  0  0  0
  2  3  1  0  0  0  0
  3  4  2  0  0  0  0
  3  7  1  0  0  0  0
  4  5  1  0  0  0  0
  5  6  2  0  0  0  0
M  END
>  <CHROM.1>
10.17356902,11.64913851,-0.26004715,2.73937154,1.30494677,2.72635725

>  <Name>
ligand

>  <RI>
0

>  <Rbt.Current_Directory>
/home/itssahil/PROJECTS/Mol_Feturizer/Test_systems_manuscript/rnas/3la5

>  <Rbt.Executable>
rbdock ($Id: //depot/dev/client3/rdock/2013.1/src/exe/rbdock.cxx#4 $)

>  <Rbt.Library>
libRbt.so (2013.1, Build901 2013/11/27)

>  <Rbt.Parameter_File>
/export/apps/rDock/src/rDock_2013.1_src/data/scripts/dock_solv.prm

>  <Rbt.Receptor>
prm/pocket_docking_3.prm

>  <SCORE>
-6.73058

>  <SCORE.INTER>
-6.73058

>  <SCORE.INTER.CONST>
1

>  <SCORE.INTER.POLAR>
0

>  <SCORE.INTER.ROT>
0

>  <SCORE.INTER.SOLV>
8.75384

>  <SCORE.INTER.VDW>
-11.005

>  <SCORE.INTER.norm>
-0.841323

>  <SCORE.INTRA>
0

>  <SCORE.INTRA.DIHEDRAL>
0

>  <SCORE.INTRA.DIHEDRAL.0>
0

>  <SCORE.INTRA.POLAR>
0

>  <SCORE.INTRA.POLAR.0>
0

>  <SCORE.INTRA.REPUL>
0

>  <SCORE.INTRA.REPUL.0>
0

>  <SCORE.INTRA.SOLV>
0

>  <SCORE.INTRA.SOLV.lig_0>
-29.58

>  <SCORE.INTRA.VDW>
0

>  <SCORE.INTRA.VDW.0>
0

>  <SCORE.INTRA.norm>
0

>  <SCORE.RESTR>
0

>  <SCORE.RESTR.CAVITY>
0

>  <SCORE.RESTR.norm>
0

>  <SCORE.SYSTEM>
0

>  <SCORE.SYSTEM.CONST>
0

>  <SCORE.SYSTEM.DIHEDRAL>
0

>  <SCORE.SYSTEM.SOLV>
0

>  <SCORE.SYSTEM.norm>
0

>  <SCORE.heavy>
8

>  <SCORE.norm>
-0.841323

>  <RMSD>
3.190

$$$$
ligand
 OpenBabel02271912143D
libRbt.so/2013.1/901 2013/11/27
  8  8  0  0  0  0  0  0  0  0999 V2000
    9.8669   11.0015   -1.2376 C   0  0  0  0  0  0  0  0  0  0  0  0
   10.0099   12.2906   -0.9307 N   0  0  0  0  0  0  0  0  0  0  0  0
   10.3380   12.6410    0.3157 C   0  0  0  0  0  0  0  0  0  0  0  0
   10.5398   11.6921    1.2595 N   0  0  0  0  0  0  0  0  0  0  0  0
   10.3868   10.3962    0.9392 C   0  0  0  0  0  0  0  0  0  0  0  0
   10.0539   10.0453   -0.3127 N   0  0  0  0  0  0  0  0  0  0  0  0
   10.4852   14.0796    0.6214 N   0  0  0  0  0  0  0  0  0  0  0  0
    9.5352   10.6855   -2.5106 O   0  0  0  0  0  0  0  0  0  0  0  0
  1  2  1  0  0  0  0
  1  6  1  0  0  0  0
  1  8  2  0  0  0  0
  2  3  1  0  0  0  0
  3  4  2  0  0  0  0
  3  7  1  0  0  0  0
  4  5  1  0  0  0  0
  5  6  2  0  0  0  0
M  END
>  <CHROM.1>
10.13808791,11.60130796,-0.28718926,2.53857598,1.31927572,2.95260301

>  <Name>
ligand

>  <RI>
0

>  <Rbt.Current_Directory>
/home/itssahil/PROJECTS/Mol_Feturizer/Test_systems_manuscript/rnas/3la5

>  <Rbt.Executable>
rbdock ($Id: //depot/dev/client3/rdock/2013.1/src/exe/rbdock.cxx#4 $)

>  <Rbt.Library>
libRbt.so (2013.1, Build901 2013/11/27)

>  <Rbt.Parameter_File>
/export/apps/rDock/src/rDock_2013.1_src/data/scripts/dock_solv.prm

>  <Rbt.Receptor>
prm/pocket_docking_6.prm

>  <SCORE>
-6.73765

>  <SCORE.INTER>
-6.73765

>  <SCORE.INTER.CONST>
1

>  <SCORE.INTER.POLAR>
0

>  <SCORE.INTER.ROT>
0

>  <SCORE.INTER.SOLV>
8.64169

>  <SCORE.INTER.VDW>
-10.9723

>  <SCORE.INTER.norm>
-0.842207

>  <SCORE.INTRA>
0

>  <SCORE.INTRA.DIHEDRAL>
0

>  <SCORE.INTRA.DIHEDRAL.0>
0

>  <SCORE.INTRA.POLAR>
0

>  <SCORE.INTRA.POLAR.0>
0

>  <SCORE.INTRA.REPUL>
0

>  <SCORE.INTRA.REPUL.0>
0

>  <SCORE.INTRA.SOLV>
0

>  <SCORE.INTRA.SOLV.lig_0>
-29.58

>  <SCORE.INTRA.VDW>
0

>  <SCORE.INTRA.VDW.0>
0

>  <SCORE.INTRA.norm>
0

>  <SCORE.RESTR>
0

>  <SCORE.RESTR.CAVITY>
0

>  <SCORE.RESTR.norm>
0

>  <SCORE.SYSTEM>
0

>  <SCORE.SYSTEM.CONST>
0

>  <SCORE.SYSTEM.DIHEDRAL>
0

>  <SCORE.SYSTEM.SOLV>
0

>  <SCORE.SYSTEM.norm>
0

>  <SCORE.heavy>
8

>  <SCORE.norm>
-0.842207

>  <RMSD>
3.190

$$$$
ligand
 OpenBabel02271912143D
libRbt.so/2013.1/901 2013/11/27
  8  8  0  0  0  0  0  0  0  0999 V2000
    9.8422   11.0973   -1.2814 C   0  0  0  0  0  0  0  0  0  0  0  0
   10.0721   12.3757   -0.9828 N   0  0  0  0  0  0  0  0  0  0  0  0
   10.3970   12.7145    0.2677 C   0  0  0  0  0  0  0  0  0  0  0  0
   10.5078   11.7634    1.2243 N   0  0  0  0  0  0  0  0  0  0  0  0
   10.2677   10.4788    0.9121 C   0  0  0  0  0  0  0  0  0  0  0  0
    9.9381   10.1399   -0.3439 N   0  0  0  0  0  0  0  0  0  0  0  0
   10.6421   14.1417    0.5639 N   0  0  0  0  0  0  0  0  0  0  0  0
    9.5167   10.7929   -2.5588 O   0  0  0  0  0  0  0  0  0  0  0  0
  1  2  1  0  0  0  0
  1  6  1  0  0  0  0
  1  8  2  0  0  0  0
  2  3  1  0  0  0  0
  3  4  2  0  0  0  0
  3  7  1  0  0  0  0
  4  5  1  0  0  0  0
  5  6  2  0  0  0  0
M  END
>  <CHROM.1>
10.13515722,11.68579429,-0.33035226,2.84476669,1.31609912,2.64629595

>  <Name>
ligand

>  <RI>
0

>  <Rbt.Current_Directory>
/home/itssahil/PROJECTS/Mol_Feturizer/Test_systems_manuscript/rnas/3la5

>  <Rbt.Executable>
rbdock ($Id: //depot/dev/client3/rdock/2013.1/src/exe/rbdock.cxx#4 $)

>  <Rbt.Library>
libRbt.so (2013.1, Build901 2013/11/27)

>  <Rbt.Parameter_File>
/export/apps/rDock/src/rDock_2013.1_src/data/scripts/dock_solv.prm

>  <Rbt.Receptor>
prm/pocket_docking_7.prm

>  <SCORE>
-6.73215

>  <SCORE.INTER>
-6.73215

>  <SCORE.INTER.CONST>
1

>  <SCORE.INTER.POLAR>
0

>  <SCORE.INTER.ROT>
0

>  <SCORE.INTER.SOLV>
8.80395

>  <SCORE.INTER.VDW>
-11.0228

>  <SCORE.INTER.norm>
-0.841519

>  <SCORE.INTRA>
0

>  <SCORE.INTRA.DIHEDRAL>
0

>  <SCORE.INTRA.DIHEDRAL.0>
0

>  <SCORE.INTRA.POLAR>
0

>  <SCORE.INTRA.POLAR.0>
0

>  <SCORE.INTRA.REPUL>
0

>  <SCORE.INTRA.REPUL.0>
0

>  <SCORE.INTRA.SOLV>
0

>  <SCORE.INTRA.SOLV.lig_0>
-29.58

>  <SCORE.INTRA.VDW>
0

>  <SCORE.INTRA.VDW.0>
0

>  <SCORE.INTRA.norm>
0

>  <SCORE.RESTR>
0

>  <SCORE.RESTR.CAVITY>
0

>  <SCORE.RESTR.norm>
0

>  <SCORE.SYSTEM>
0

>  <SCORE.SYSTEM.CONST>
0

>  <SCORE.SYSTEM.DIHEDRAL>
0

>  <SCORE.SYSTEM.SOLV>
0

>  <SCORE.SYSTEM.norm>
0

>  <SCORE.heavy>
8

>  <SCORE.norm>
-0.841519

>  <RMSD>
3.190

$$$$
ligand
 OpenBabel02271912143D
libRbt.so/2013.1/901 2013/11/27
  8  8  0  0  0  0  0  0  0  0999 V2000
    9.8401   11.0980   -1.2813 C   0  0  0  0  0  0  0  0  0  0  0  0
   10.0698   12.3765   -0.9828 N   0  0  0  0  0  0  0  0  0  0  0  0
   10.3954   12.7154    0.2674 C   0  0  0  0  0  0  0  0  0  0  0  0
   10.5073   11.7643    1.2239 N   0  0  0  0  0  0  0  0  0  0  0  0
   10.2675   10.4796    0.9118 C   0  0  0  0  0  0  0  0  0  0  0  0
    9.9372   10.1406   -0.3439 N   0  0  0  0  0  0  0  0  0  0  0  0
   10.6401   14.1426    0.5635 N   0  0  0  0  0  0  0  0  0  0  0  0
    9.5139   10.7935   -2.5585 O   0  0  0  0  0  0  0  0  0  0  0  0
  1  2  1  0  0  0  0
  1  6  1  0  0  0  0
  1  8  2  0  0  0  0
  2  3  1  0  0  0  0
  3  4  2  0  0  0  0
  3  7  1  0  0  0  0
  4  5  1  0  0  0  0
  5  6  2  0  0  0  0
M  END
>  <CHROM.1>
10.13358062,11.68656547,-0.33046454,2.84199845,1.31566187,2.64898640

>  <Name>
ligand

>  <RI>
0

>  <Rbt.Current_Directory>
/home/itssahil/PROJECTS/Mol_Feturizer/Test_systems_manuscript/rnas/3la5

>  <Rbt.Executable>
rbdock ($Id: //depot/dev/client3/rdock/2013.1/src/exe/rbdock.cxx#4 $)

>  <Rbt.Library>
libRbt.so (2013.1, Build901 2013/11/27)

>  <Rbt.Parameter_File>
/export/apps/rDock/src/rDock_2013.1_src/data/scripts/dock_solv.prm

>  <Rbt.Receptor>
prm/pocket_docking_7.prm

>  <SCORE>
-6.7317

>  <SCORE.INTER>
-6.7317

>  <SCORE.INTER.CONST>
1

>  <SCORE.INTER.POLAR>
0

>  <SCORE.INTER.ROT>
0

>  <SCORE.INTER.SOLV>
8.80155

>  <SCORE.INTER.VDW>
-11.0216

>  <SCORE.INTER.norm>
-0.841462

>  <SCORE.INTRA>
0

>  <SCORE.INTRA.DIHEDRAL>
0

>  <SCORE.INTRA.DIHEDRAL.0>
0

>  <SCORE.INTRA.POLAR>
0

>  <SCORE.INTRA.POLAR.0>
0

>  <SCORE.INTRA.REPUL>
0

>  <SCORE.INTRA.REPUL.0>
0

>  <SCORE.INTRA.SOLV>
0

>  <SCORE.INTRA.SOLV.lig_0>
-29.58

>  <SCORE.INTRA.VDW>
0

>  <SCORE.INTRA.VDW.0>
0

>  <SCORE.INTRA.norm>
0

>  <SCORE.RESTR>
0

>  <SCORE.RESTR.CAVITY>
0

>  <SCORE.RESTR.norm>
0

>  <SCORE.SYSTEM>
0

>  <SCORE.SYSTEM.CONST>
0

>  <SCORE.SYSTEM.DIHEDRAL>
0

>  <SCORE.SYSTEM.SOLV>
0

>  <SCORE.SYSTEM.norm>
0

>  <SCORE.heavy>
8

>  <SCORE.norm>
-0.841462

>  <RMSD>
3.190

$$$$
ligand
 OpenBabel02271912143D
libRbt.so/2013.1/901 2013/11/27
  8  8  0  0  0  0  0  0  0  0999 V2000
    9.8460   11.1010   -1.2749 C   0  0  0  0  0  0  0  0  0  0  0  0
   10.0791   12.3807   -0.9840 N   0  0  0  0  0  0  0  0  0  0  0  0
   10.3924   12.7279    0.2670 C   0  0  0  0  0  0  0  0  0  0  0  0
   10.4885   11.7840    1.2323 N   0  0  0  0  0  0  0  0  0  0  0  0
   10.2454   10.4981    0.9278 C   0  0  0  0  0  0  0  0  0  0  0  0
    9.9273   10.1507   -0.3289 N   0  0  0  0  0  0  0  0  0  0  0  0
   10.6414   14.1562    0.5544 N   0  0  0  0  0  0  0  0  0  0  0  0
    9.5325   10.7880   -2.5532 O   0  0  0  0  0  0  0  0  0  0  0  0
  1  2  1  0  0  0  0
  1  6  1  0  0  0  0
  1  8  2  0  0  0  0
  2  3  1  0  0  0  0
  3  4  2  0  0  0  0
  3  7  1  0  0  0  0
  4  5  1  0  0  0  0
  5  6  2  0  0  0  0
M  END
>  <CHROM.1>
10.13184754,11.69570180,-0.32552372,2.88289509,1.32285232,2.60136047

>  <Name>
ligand

>  <RI>
0

>  <Rbt.Current_Directory>
/home/itssahil/PROJECTS/Mol_Feturizer/Test_systems_manuscript/rnas/3la5

>  <Rbt.Executable>
rbdock ($Id: //depot/dev/client3/rdock/2013.1/src/exe/rbdock.cxx#4 $)

>  <Rbt.Library>
libRbt.so (2013.1, Build901 2013/11/27)

>  <Rbt.Parameter_File>
/export/apps/rDock/src/rDock_2013.1_src/data/scripts/dock_solv.prm

>  <Rbt.Receptor>
prm/pocket_docking_3.prm

>  <SCORE>
-6.7335

>  <SCORE.INTER>
-6.7335

>  <SCORE.INTER.CONST>
1

>  <SCORE.INTER.POLAR>
0

>  <SCORE.INTER.ROT>
0

>  <SCORE.INTER.SOLV>
8.77297

>  <SCORE.INTER.VDW>
-11.0133

>  <SCORE.INTER.norm>
-0.841687

>  <SCORE.INTRA>
0

>  <SCORE.INTRA.DIHEDRAL>
0

>  <SCORE.INTRA.DIHEDRAL.0>
0

>  <SCORE.INTRA.POLAR>
0

>  <SCORE.INTRA.POLAR.0>
0

>  <SCORE.INTRA.REPUL>
0

>  <SCORE.INTRA.REPUL.0>
0

>  <SCORE.INTRA.SOLV>
0

>  <SCORE.INTRA.SOLV.lig_0>
-29.58

>  <SCORE.INTRA.VDW>
0

>  <SCORE.INTRA.VDW.0>
0

>  <SCORE.INTRA.norm>
0

>  <SCORE.RESTR>
0

>  <SCORE.RESTR.CAVITY>
0

>  <SCORE.RESTR.norm>
0

>  <SCORE.SYSTEM>
0

>  <SCORE.SYSTEM.CONST>
0

>  <SCORE.SYSTEM.DIHEDRAL>
0

>  <SCORE.SYSTEM.SOLV>
0

>  <SCORE.SYSTEM.norm>
0

>  <SCORE.heavy>
8

>  <SCORE.norm>
-0.841687

>  <RMSD>
3.191

$$$$
ligand
 OpenBabel02271912143D
libRbt.so/2013.1/901 2013/11/27
  8  8  0  0  0  0  0  0  0  0999 V2000
    9.8692   11.0444   -1.1991 C   0  0  0  0  0  0  0  0  0  0  0  0
   10.1008   12.3308   -0.9381 N   0  0  0  0  0  0  0  0  0  0  0  0
   10.4285   12.7054    0.3013 C   0  0  0  0  0  0  0  0  0  0  0  0
   10.5404   11.7824    1.2849 N   0  0  0  0  0  0  0  0  0  0  0  0
   10.2985   10.4894    1.0106 C   0  0  0  0  0  0  0  0  0  0  0  0
    9.9662   10.1145   -0.2344 N   0  0  0  0  0  0  0  0  0  0  0  0
   10.6754   14.1404    0.5555 N   0  0  0  0  0  0  0  0  0  0  0  0
    9.5410   10.7034   -2.4665 O   0  0  0  0  0  0  0  0  0  0  0  0
  1  2  1  0  0  0  0
  1  6  1  0  0  0  0
  1  8  2  0  0  0  0
  2  3  1  0  0  0  0
  3  4  2  0  0  0  0
  3  7  1  0  0  0  0
  4  5  1  0  0  0  0
  5  6  2  0  0  0  0
M  END
>  <CHROM.1>
10.16458710,11.66000863,-0.26608640,2.84413612,1.31397676,2.61785799

>  <Name>
ligand

>  <RI>
0

>  <Rbt.Current_Directory>
/home/itssahil/PROJECTS/Mol_Feturizer/Test_systems_manuscript/rnas/3la5

>  <Rbt.Executable>
rbdock ($Id: //depot/dev/client3/rdock/2013.1/src/exe/rbdock.cxx#4 $)

>  <Rbt.Library>
libRbt.so (2013.1, Build901 2013/11/27)

>  <Rbt.Parameter_File>
/export/apps/rDock/src/rDock_2013.1_src/data/scripts/dock_solv.prm

>  <Rbt.Receptor>
prm/pocket_docking_3.prm

>  <SCORE>
-6.75921

>  <SCORE.INTER>
-6.75921

>  <SCORE.INTER.CONST>
1

>  <SCORE.INTER.POLAR>
0

>  <SCORE.INTER.ROT>
0

>  <SCORE.INTER.SOLV>
8.79163

>  <SCORE.INTER.VDW>
-11.0367

>  <SCORE.INTER.norm>
-0.844902

>  <SCORE.INTRA>
0

>  <SCORE.INTRA.DIHEDRAL>
0

>  <SCORE.INTRA.DIHEDRAL.0>
0

>  <SCORE.INTRA.POLAR>
0

>  <SCORE.INTRA.POLAR.0>
0

>  <SCORE.INTRA.REPUL>
0

>  <SCORE.INTRA.REPUL.0>
0

>  <SCORE.INTRA.SOLV>
0

>  <SCORE.INTRA.SOLV.lig_0>
-29.58

>  <SCORE.INTRA.VDW>
0

>  <SCORE.INTRA.VDW.0>
0

>  <SCORE.INTRA.norm>
0

>  <SCORE.RESTR>
0

>  <SCORE.RESTR.CAVITY>
0

>  <SCORE.RESTR.norm>
0

>  <SCORE.SYSTEM>
0

>  <SCORE.SYSTEM.CONST>
0

>  <SCORE.SYSTEM.DIHEDRAL>
0

>  <SCORE.SYSTEM.SOLV>
0

>  <SCORE.SYSTEM.norm>
0

>  <SCORE.heavy>
8

>  <SCORE.norm>
-0.844902

>  <RMSD>
3.191

$$$$
ligand
 OpenBabel02271912143D
libRbt.so/2013.1/901 2013/11/27
  8  8  0  0  0  0  0  0  0  0999 V2000
    9.8145   11.0408   -1.1133 C   0  0  0  0  0  0  0  0  0  0  0  0
   10.0004   12.3367   -0.8630 N   0  0  0  0  0  0  0  0  0  0  0  0
   10.4085   12.7242    0.3482 C   0  0  0  0  0  0  0  0  0  0  0  0
   10.6475   11.8055    1.3129 N   0  0  0  0  0  0  0  0  0  0  0  0
   10.4507   10.5025    1.0501 C   0  0  0  0  0  0  0  0  0  0  0  0
   10.0374   10.1145   -0.1663 N   0  0  0  0  0  0  0  0  0  0  0  0
   10.6014   14.1693    0.5915 N   0  0  0  0  0  0  0  0  0  0  0  0
    9.4017   10.6868   -2.3522 O   0  0  0  0  0  0  0  0  0  0  0  0
  1  2  1  0  0  0  0
  1  6  1  0  0  0  0
  1  8  2  0  0  0  0
  2  3  1  0  0  0  0
  3  4  2  0  0  0  0
  3  7  1  0  0  0  0
  4  5  1  0  0  0  0
  5  6  2  0  0  0  0
M  END
>  <CHROM.1>
10.15309300,11.66821440,-0.20314477,2.56409593,1.25722135,2.89177581

>  <Name>
ligand

>  <RI>
0

>  <Rbt.Current_Directory>
/home/itssahil/PROJECTS/Mol_Feturizer/Test_systems_manuscript/rnas/3la5

>  <Rbt.Executable>
rbdock ($Id: //depot/dev/client3/rdock/2013.1/src/exe/rbdock.cxx#4 $)

>  <Rbt.Library>
libRbt.so (2013.1, Build901 2013/11/27)

>  <Rbt.Parameter_File>
/export/apps/rDock/src/rDock_2013.1_src/data/scripts/dock_solv.prm

>  <Rbt.Receptor>
prm/pocket_docking_3.prm

>  <SCORE>
-6.73608

>  <SCORE.INTER>
-6.73608

>  <SCORE.INTER.CONST>
1

>  <SCORE.INTER.POLAR>
0

>  <SCORE.INTER.ROT>
0

>  <SCORE.INTER.SOLV>
8.66645

>  <SCORE.INTER.VDW>
-10.9795

>  <SCORE.INTER.norm>
-0.84201

>  <SCORE.INTRA>
0

>  <SCORE.INTRA.DIHEDRAL>
0

>  <SCORE.INTRA.DIHEDRAL.0>
0

>  <SCORE.INTRA.POLAR>
0

>  <SCORE.INTRA.POLAR.0>
0

>  <SCORE.INTRA.REPUL>
0

>  <SCORE.INTRA.REPUL.0>
0

>  <SCORE.INTRA.SOLV>
0

>  <SCORE.INTRA.SOLV.lig_0>
-29.58

>  <SCORE.INTRA.VDW>
0

>  <SCORE.INTRA.VDW.0>
0

>  <SCORE.INTRA.norm>
0

>  <SCORE.RESTR>
0

>  <SCORE.RESTR.CAVITY>
0

>  <SCORE.RESTR.norm>
0

>  <SCORE.SYSTEM>
0

>  <SCORE.SYSTEM.CONST>
0

>  <SCORE.SYSTEM.DIHEDRAL>
0

>  <SCORE.SYSTEM.SOLV>
0

>  <SCORE.SYSTEM.norm>
0

>  <SCORE.heavy>
8

>  <SCORE.norm>
-0.84201

>  <RMSD>
3.191

$$$$
ligand
 OpenBabel02271912143D
libRbt.so/2013.1/901 2013/11/27
  8  8  0  0  0  0  0  0  0  0999 V2000
    9.8686   11.0567   -1.2136 C   0  0  0  0  0  0  0  0  0  0  0  0
   10.0719   12.3445   -0.9368 N   0  0  0  0  0  0  0  0  0  0  0  0
   10.4432   12.7056    0.2944 C   0  0  0  0  0  0  0  0  0  0  0  0
   10.6275   11.7679    1.2529 N   0  0  0  0  0  0  0  0  0  0  0  0
   10.4135   10.4734    0.9631 C   0  0  0  0  0  0  0  0  0  0  0  0
   10.0373   10.1121   -0.2734 N   0  0  0  0  0  0  0  0  0  0  0  0
   10.6570   14.1425    0.5668 N   0  0  0  0  0  0  0  0  0  0  0  0
    9.4945   10.7297   -2.4719 O   0  0  0  0  0  0  0  0  0  0  0  0
  1  2  1  0  0  0  0
  1  6  1  0  0  0  0
  1  8  2  0  0  0  0
  2  3  1  0  0  0  0
  3  4  2  0  0  0  0
  3  7  1  0  0  0  0
  4  5  1  0  0  0  0
  5  6  2  0  0  0  0
M  END
>  <CHROM.1>
10.18642383,11.66339085,-0.28211376,2.66821704,1.28629910,2.80726853

>  <Name>
ligand

>  <RI>
0

>  <Rbt.Current_Directory>
/home/itssahil/PROJECTS/Mol_Feturizer/Test_systems_manuscript/rnas/3la5

>  <Rbt.Executable>
rbdock ($Id: //depot/dev/client3/rdock/2013.1/src/exe/rbdock.cxx#4 $)

>  <Rbt.Library>
libRbt.so (2013.1, Build901 2013/11/27)

>  <Rbt.Parameter_File>
/export/apps/rDock/src/rDock_2013.1_src/data/scripts/dock_solv.prm

>  <Rbt.Receptor>
prm/pocket_docking_4.prm

>  <SCORE>
-6.71889

>  <SCORE.INTER>
-6.71889

>  <SCORE.INTER.CONST>
1

>  <SCORE.INTER.POLAR>
0

>  <SCORE.INTER.ROT>
0

>  <SCORE.INTER.SOLV>
8.80305

>  <SCORE.INTER.VDW>
-11.0136

>  <SCORE.INTER.norm>
-0.839861

>  <SCORE.INTRA>
0

>  <SCORE.INTRA.DIHEDRAL>
0

>  <SCORE.INTRA.DIHEDRAL.0>
0

>  <SCORE.INTRA.POLAR>
0

>  <SCORE.INTRA.POLAR.0>
0

>  <SCORE.INTRA.REPUL>
0

>  <SCORE.INTRA.REPUL.0>
0

>  <SCORE.INTRA.SOLV>
0

>  <SCORE.INTRA.SOLV.lig_0>
-29.58

>  <SCORE.INTRA.VDW>
0

>  <SCORE.INTRA.VDW.0>
0

>  <SCORE.INTRA.norm>
0

>  <SCORE.RESTR>
0

>  <SCORE.RESTR.CAVITY>
0

>  <SCORE.RESTR.norm>
0

>  <SCORE.SYSTEM>
0

>  <SCORE.SYSTEM.CONST>
0

>  <SCORE.SYSTEM.DIHEDRAL>
0

>  <SCORE.SYSTEM.SOLV>
0

>  <SCORE.SYSTEM.norm>
0

>  <SCORE.heavy>
8

>  <SCORE.norm>
-0.839861

>  <RMSD>
3.191

$$$$
ligand
 OpenBabel02271912143D
libRbt.so/2013.1/901 2013/11/27
  8  8  0  0  0  0  0  0  0  0999 V2000
    9.8799   11.0654   -1.2210 C   0  0  0  0  0  0  0  0  0  0  0  0
   10.0953   12.3524   -0.9495 N   0  0  0  0  0  0  0  0  0  0  0  0
   10.4567   12.7165    0.2837 C   0  0  0  0  0  0  0  0  0  0  0  0
   10.6189   11.7825    1.2498 N   0  0  0  0  0  0  0  0  0  0  0  0
   10.3930   10.4889    0.9652 C   0  0  0  0  0  0  0  0  0  0  0  0
   10.0267   10.1245   -0.2734 N   0  0  0  0  0  0  0  0  0  0  0  0
   10.6844   14.1524    0.5500 N   0  0  0  0  0  0  0  0  0  0  0  0
    9.5164   10.7353   -2.4817 O   0  0  0  0  0  0  0  0  0  0  0  0
  1  2  1  0  0  0  0
  1  6  1  0  0  0  0
  1  8  2  0  0  0  0
  2  3  1  0  0  0  0
  3  4  2  0  0  0  0
  3  7  1  0  0  0  0
  4  5  1  0  0  0  0
  5  6  2  0  0  0  0
M  END
>  <CHROM.1>
10.19423612,11.67391328,-0.28957217,2.72273807,1.29283469,2.74890853

>  <Name>
ligand

>  <RI>
0

>  <Rbt.Current_Directory>
/home/itssahil/PROJECTS/Mol_Feturizer/Test_systems_manuscript/rnas/3la5

>  <Rbt.Executable>
rbdock ($Id: //depot/dev/client3/rdock/2013.1/src/exe/rbdock.cxx#4 $)

>  <Rbt.Library>
libRbt.so (2013.1, Build901 2013/11/27)

>  <Rbt.Parameter_File>
/export/apps/rDock/src/rDock_2013.1_src/data/scripts/dock_solv.prm

>  <Rbt.Receptor>
prm/blind_docking_40.prm

>  <SCORE>
-6.75373

>  <SCORE.INTER>
-6.75373

>  <SCORE.INTER.CONST>
1

>  <SCORE.INTER.POLAR>
0

>  <SCORE.INTER.ROT>
0

>  <SCORE.INTER.SOLV>
8.85359

>  <SCORE.INTER.VDW>
-11.0537

>  <SCORE.INTER.norm>
-0.844217

>  <SCORE.INTRA>
0

>  <SCORE.INTRA.DIHEDRAL>
0

>  <SCORE.INTRA.DIHEDRAL.0>
0

>  <SCORE.INTRA.POLAR>
0

>  <SCORE.INTRA.POLAR.0>
0

>  <SCORE.INTRA.REPUL>
0

>  <SCORE.INTRA.REPUL.0>
0

>  <SCORE.INTRA.SOLV>
0

>  <SCORE.INTRA.SOLV.lig_0>
-29.58

>  <SCORE.INTRA.VDW>
0

>  <SCORE.INTRA.VDW.0>
0

>  <SCORE.INTRA.norm>
0

>  <SCORE.RESTR>
0

>  <SCORE.RESTR.CAVITY>
0

>  <SCORE.RESTR.norm>
0

>  <SCORE.SYSTEM>
0

>  <SCORE.SYSTEM.CONST>
0

>  <SCORE.SYSTEM.DIHEDRAL>
0

>  <SCORE.SYSTEM.SOLV>
0

>  <SCORE.SYSTEM.norm>
0

>  <SCORE.heavy>
8

>  <SCORE.norm>
-0.844217

>  <RMSD>
3.192

$$$$
ligand
 OpenBabel02271912143D
libRbt.so/2013.1/901 2013/11/27
  8  8  0  0  0  0  0  0  0  0999 V2000
    9.8804   11.0353   -1.1902 C   0  0  0  0  0  0  0  0  0  0  0  0
   10.1057   12.3237   -0.9339 N   0  0  0  0  0  0  0  0  0  0  0  0
   10.4468   12.7025    0.3007 C   0  0  0  0  0  0  0  0  0  0  0  0
   10.5786   11.7817    1.2839 N   0  0  0  0  0  0  0  0  0  0  0  0
   10.3430   10.4866    1.0144 C   0  0  0  0  0  0  0  0  0  0  0  0
    9.9971   10.1075   -0.2256 N   0  0  0  0  0  0  0  0  0  0  0  0
   10.6862   14.1396    0.5498 N   0  0  0  0  0  0  0  0  0  0  0  0
    9.5381   10.6901   -2.4527 O   0  0  0  0  0  0  0  0  0  0  0  0
  1  2  1  0  0  0  0
  1  6  1  0  0  0  0
  1  8  2  0  0  0  0
  2  3  1  0  0  0  0
  3  4  2  0  0  0  0
  3  7  1  0  0  0  0
  4  5  1  0  0  0  0
  5  6  2  0  0  0  0
M  END
>  <CHROM.1>
10.18338398,11.65436659,-0.26189068,2.79388268,1.30602537,2.66511817

>  <Name>
ligand

>  <RI>
0

>  <Rbt.Current_Directory>
/home/itssahil/PROJECTS/Mol_Feturizer/Test_systems_manuscript/rnas/3la5

>  <Rbt.Executable>
rbdock ($Id: //depot/dev/client3/rdock/2013.1/src/exe/rbdock.cxx#4 $)

>  <Rbt.Library>
libRbt.so (2013.1, Build901 2013/11/27)

>  <Rbt.Parameter_File>
/export/apps/rDock/src/rDock_2013.1_src/data/scripts/dock_solv.prm

>  <Rbt.Receptor>
prm/blind_docking_40.prm

>  <SCORE>
-6.74492

>  <SCORE.INTER>
-6.74492

>  <SCORE.INTER.CONST>
1

>  <SCORE.INTER.POLAR>
0

>  <SCORE.INTER.ROT>
0

>  <SCORE.INTER.SOLV>
8.82742

>  <SCORE.INTER.VDW>
-11.0391

>  <SCORE.INTER.norm>
-0.843115

>  <SCORE.INTRA>
0

>  <SCORE.INTRA.DIHEDRAL>
0

>  <SCORE.INTRA.DIHEDRAL.0>
0

>  <SCORE.INTRA.POLAR>
0

>  <SCORE.INTRA.POLAR.0>
0

>  <SCORE.INTRA.REPUL>
0

>  <SCORE.INTRA.REPUL.0>
0

>  <SCORE.INTRA.SOLV>
0

>  <SCORE.INTRA.SOLV.lig_0>
-29.58

>  <SCORE.INTRA.VDW>
0

>  <SCORE.INTRA.VDW.0>
0

>  <SCORE.INTRA.norm>
0

>  <SCORE.RESTR>
0

>  <SCORE.RESTR.CAVITY>
0

>  <SCORE.RESTR.norm>
0

>  <SCORE.SYSTEM>
0

>  <SCORE.SYSTEM.CONST>
0

>  <SCORE.SYSTEM.DIHEDRAL>
0

>  <SCORE.SYSTEM.SOLV>
0

>  <SCORE.SYSTEM.norm>
0

>  <SCORE.heavy>
8

>  <SCORE.norm>
-0.843115

>  <RMSD>
3.192

$$$$
ligand
 OpenBabel02271912143D
libRbt.so/2013.1/901 2013/11/27
  8  8  0  0  0  0  0  0  0  0999 V2000
    9.8817   11.0426   -1.2008 C   0  0  0  0  0  0  0  0  0  0  0  0
   10.1009   12.3310   -0.9397 N   0  0  0  0  0  0  0  0  0  0  0  0
   10.4359   12.7073    0.2973 C   0  0  0  0  0  0  0  0  0  0  0  0
   10.5676   11.7839    1.2781 N   0  0  0  0  0  0  0  0  0  0  0  0
   10.3381   10.4888    1.0037 C   0  0  0  0  0  0  0  0  0  0  0  0
    9.9984   10.1122   -0.2388 N   0  0  0  0  0  0  0  0  0  0  0  0
   10.6687   14.1445    0.5517 N   0  0  0  0  0  0  0  0  0  0  0  0
    9.5455   10.6999   -2.4657 O   0  0  0  0  0  0  0  0  0  0  0  0
  1  2  1  0  0  0  0
  1  6  1  0  0  0  0
  1  8  2  0  0  0  0
  2  3  1  0  0  0  0
  3  4  2  0  0  0  0
  3  7  1  0  0  0  0
  4  5  1  0  0  0  0
  5  6  2  0  0  0  0
M  END
>  <CHROM.1>
10.17871064,11.65990888,-0.26953242,2.78703966,1.31114943,2.67483603

>  <Name>
ligand

>  <RI>
0

>  <Rbt.Current_Directory>
/home/itssahil/PROJECTS/Mol_Feturizer/Test_systems_manuscript/rnas/3la5

>  <Rbt.Executable>
rbdock ($Id: //depot/dev/client3/rdock/2013.1/src/exe/rbdock.cxx#4 $)

>  <Rbt.Library>
libRbt.so (2013.1, Build901 2013/11/27)

>  <Rbt.Parameter_File>
/export/apps/rDock/src/rDock_2013.1_src/data/scripts/dock_solv.prm

>  <Rbt.Receptor>
prm/pocket_docking_7.prm

>  <SCORE>
-6.7357

>  <SCORE.INTER>
-6.7357

>  <SCORE.INTER.CONST>
1

>  <SCORE.INTER.POLAR>
0

>  <SCORE.INTER.ROT>
0

>  <SCORE.INTER.SOLV>
8.77403

>  <SCORE.INTER.VDW>
-11.0151

>  <SCORE.INTER.norm>
-0.841962

>  <SCORE.INTRA>
0

>  <SCORE.INTRA.DIHEDRAL>
0

>  <SCORE.INTRA.DIHEDRAL.0>
0

>  <SCORE.INTRA.POLAR>
0

>  <SCORE.INTRA.POLAR.0>
0

>  <SCORE.INTRA.REPUL>
0

>  <SCORE.INTRA.REPUL.0>
0

>  <SCORE.INTRA.SOLV>
0

>  <SCORE.INTRA.SOLV.lig_0>
-29.58

>  <SCORE.INTRA.VDW>
0

>  <SCORE.INTRA.VDW.0>
0

>  <SCORE.INTRA.norm>
0

>  <SCORE.RESTR>
0

>  <SCORE.RESTR.CAVITY>
0

>  <SCORE.RESTR.norm>
0

>  <SCORE.SYSTEM>
0

>  <SCORE.SYSTEM.CONST>
0

>  <SCORE.SYSTEM.DIHEDRAL>
0

>  <SCORE.SYSTEM.SOLV>
0

>  <SCORE.SYSTEM.norm>
0

>  <SCORE.heavy>
8

>  <SCORE.norm>
-0.841962

>  <RMSD>
3.192

$$$$
ligand
 OpenBabel02271912143D
libRbt.so/2013.1/901 2013/11/27
  8  8  0  0  0  0  0  0  0  0999 V2000
    9.8871   11.0321   -1.1930 C   0  0  0  0  0  0  0  0  0  0  0  0
   10.1040   12.3220   -0.9368 N   0  0  0  0  0  0  0  0  0  0  0  0
   10.4334   12.7041    0.2999 C   0  0  0  0  0  0  0  0  0  0  0  0
   10.5619   11.7853    1.2854 N   0  0  0  0  0  0  0  0  0  0  0  0
   10.3347   10.4887    1.0159 C   0  0  0  0  0  0  0  0  0  0  0  0
   10.0006   10.1062   -0.2263 N   0  0  0  0  0  0  0  0  0  0  0  0
   10.6638   14.1428    0.5488 N   0  0  0  0  0  0  0  0  0  0  0  0
    9.5566   10.6834   -2.4578 O   0  0  0  0  0  0  0  0  0  0  0  0
  1  2  1  0  0  0  0
  1  6  1  0  0  0  0
  1  8  2  0  0  0  0
  2  3  1  0  0  0  0
  3  4  2  0  0  0  0
  3  7  1  0  0  0  0
  4  5  1  0  0  0  0
  5  6  2  0  0  0  0
M  END
>  <CHROM.1>
10.17959810,11.65395311,-0.26326015,2.79120935,1.31534557,2.66627625

>  <Name>
ligand

>  <RI>
0

>  <Rbt.Current_Directory>
/home/itssahil/PROJECTS/Mol_Feturizer/Test_systems_manuscript/rnas/3la5

>  <Rbt.Executable>
rbdock ($Id: //depot/dev/client3/rdock/2013.1/src/exe/rbdock.cxx#4 $)

>  <Rbt.Library>
libRbt.so (2013.1, Build901 2013/11/27)

>  <Rbt.Parameter_File>
/export/apps/rDock/src/rDock_2013.1_src/data/scripts/dock_solv.prm

>  <Rbt.Receptor>
prm/pocket_docking_5.prm

>  <SCORE>
-6.75811

>  <SCORE.INTER>
-6.75811

>  <SCORE.INTER.CONST>
1

>  <SCORE.INTER.POLAR>
0

>  <SCORE.INTER.ROT>
0

>  <SCORE.INTER.SOLV>
8.75305

>  <SCORE.INTER.VDW>
-11.0231

>  <SCORE.INTER.norm>
-0.844764

>  <SCORE.INTRA>
0

>  <SCORE.INTRA.DIHEDRAL>
0

>  <SCORE.INTRA.DIHEDRAL.0>
0

>  <SCORE.INTRA.POLAR>
0

>  <SCORE.INTRA.POLAR.0>
0

>  <SCORE.INTRA.REPUL>
0

>  <SCORE.INTRA.REPUL.0>
0

>  <SCORE.INTRA.SOLV>
0

>  <SCORE.INTRA.SOLV.lig_0>
-29.58

>  <SCORE.INTRA.VDW>
0

>  <SCORE.INTRA.VDW.0>
0

>  <SCORE.INTRA.norm>
0

>  <SCORE.RESTR>
0

>  <SCORE.RESTR.CAVITY>
0

>  <SCORE.RESTR.norm>
0

>  <SCORE.SYSTEM>
0

>  <SCORE.SYSTEM.CONST>
0

>  <SCORE.SYSTEM.DIHEDRAL>
0

>  <SCORE.SYSTEM.SOLV>
0

>  <SCORE.SYSTEM.norm>
0

>  <SCORE.heavy>
8

>  <SCORE.norm>
-0.844764

>  <RMSD>
3.193

$$$$
ligand
 OpenBabel02271912143D
libRbt.so/2013.1/901 2013/11/27
  8  8  0  0  0  0  0  0  0  0999 V2000
    9.8530   11.0893   -1.2682 C   0  0  0  0  0  0  0  0  0  0  0  0
   10.0952   12.3691   -0.9857 N   0  0  0  0  0  0  0  0  0  0  0  0
   10.3981   12.7241    0.2658 C   0  0  0  0  0  0  0  0  0  0  0  0
   10.4745   11.7876    1.2400 N   0  0  0  0  0  0  0  0  0  0  0  0
   10.2224   10.5015    0.9438 C   0  0  0  0  0  0  0  0  0  0  0  0
    9.9149   10.1464   -0.3133 N   0  0  0  0  0  0  0  0  0  0  0  0
   10.6577   14.1524    0.5438 N   0  0  0  0  0  0  0  0  0  0  0  0
    9.5506   10.7683   -2.5473 O   0  0  0  0  0  0  0  0  0  0  0  0
  1  2  1  0  0  0  0
  1  6  1  0  0  0  0
  1  8  2  0  0  0  0
  2  3  1  0  0  0  0
  3  4  2  0  0  0  0
  3  7  1  0  0  0  0
  4  5  1  0  0  0  0
  5  6  2  0  0  0  0
M  END
>  <CHROM.1>
10.13416969,11.68937790,-0.32083430,2.94035188,1.32693550,2.53709738

>  <Name>
ligand

>  <RI>
0

>  <Rbt.Current_Directory>
/home/itssahil/PROJECTS/Mol_Feturizer/Test_systems_manuscript/rnas/3la5

>  <Rbt.Executable>
rbdock ($Id: //depot/dev/client3/rdock/2013.1/src/exe/rbdock.cxx#4 $)

>  <Rbt.Library>
libRbt.so (2013.1, Build901 2013/11/27)

>  <Rbt.Parameter_File>
/export/apps/rDock/src/rDock_2013.1_src/data/scripts/dock_solv.prm

>  <Rbt.Receptor>
prm/pocket_docking_5.prm

>  <SCORE>
-6.72047

>  <SCORE.INTER>
-6.72047

>  <SCORE.INTER.CONST>
1

>  <SCORE.INTER.POLAR>
0

>  <SCORE.INTER.ROT>
0

>  <SCORE.INTER.SOLV>
8.79351

>  <SCORE.INTER.VDW>
-11.0115

>  <SCORE.INTER.norm>
-0.840059

>  <SCORE.INTRA>
0

>  <SCORE.INTRA.DIHEDRAL>
0

>  <SCORE.INTRA.DIHEDRAL.0>
0

>  <SCORE.INTRA.POLAR>
0

>  <SCORE.INTRA.POLAR.0>
0

>  <SCORE.INTRA.REPUL>
0

>  <SCORE.INTRA.REPUL.0>
0

>  <SCORE.INTRA.SOLV>
0

>  <SCORE.INTRA.SOLV.lig_0>
-29.58

>  <SCORE.INTRA.VDW>
0

>  <SCORE.INTRA.VDW.0>
0

>  <SCORE.INTRA.norm>
0

>  <SCORE.RESTR>
0

>  <SCORE.RESTR.CAVITY>
0

>  <SCORE.RESTR.norm>
0

>  <SCORE.SYSTEM>
0

>  <SCORE.SYSTEM.CONST>
0

>  <SCORE.SYSTEM.DIHEDRAL>
0

>  <SCORE.SYSTEM.SOLV>
0

>  <SCORE.SYSTEM.norm>
0

>  <SCORE.heavy>
8

>  <SCORE.norm>
-0.840059

>  <RMSD>
3.193

$$$$
ligand
 OpenBabel02271912143D
libRbt.so/2013.1/901 2013/11/27
  8  8  0  0  0  0  0  0  0  0999 V2000
    9.8842   11.0622   -1.2198 C   0  0  0  0  0  0  0  0  0  0  0  0
   10.0868   12.3512   -0.9477 N   0  0  0  0  0  0  0  0  0  0  0  0
   10.4488   12.7179    0.2845 C   0  0  0  0  0  0  0  0  0  0  0  0
   10.6245   11.7848    1.2491 N   0  0  0  0  0  0  0  0  0  0  0  0
   10.4113   10.4892    0.9640 C   0  0  0  0  0  0  0  0  0  0  0  0
   10.0445   10.1221   -0.2736 N   0  0  0  0  0  0  0  0  0  0  0  0
   10.6620   14.1559    0.5515 N   0  0  0  0  0  0  0  0  0  0  0  0
    9.5197   10.7294   -2.4794 O   0  0  0  0  0  0  0  0  0  0  0  0
  1  2  1  0  0  0  0
  1  6  1  0  0  0  0
  1  8  2  0  0  0  0
  2  3  1  0  0  0  0
  3  4  2  0  0  0  0
  3  7  1  0  0  0  0
  4  5  1  0  0  0  0
  5  6  2  0  0  0  0
M  END
>  <CHROM.1>
10.19538163,11.67316187,-0.28885653,2.68148287,1.29336704,2.78957200

>  <Name>
ligand

>  <RI>
0

>  <Rbt.Current_Directory>
/home/itssahil/PROJECTS/Mol_Feturizer/Test_systems_manuscript/rnas/3la5

>  <Rbt.Executable>
rbdock ($Id: //depot/dev/client3/rdock/2013.1/src/exe/rbdock.cxx#4 $)

>  <Rbt.Library>
libRbt.so (2013.1, Build901 2013/11/27)

>  <Rbt.Parameter_File>
/export/apps/rDock/src/rDock_2013.1_src/data/scripts/dock_solv.prm

>  <Rbt.Receptor>
prm/pocket_docking_7.prm

>  <SCORE>
-6.76064

>  <SCORE.INTER>
-6.76064

>  <SCORE.INTER.CONST>
1

>  <SCORE.INTER.POLAR>
0

>  <SCORE.INTER.ROT>
0

>  <SCORE.INTER.SOLV>
8.79133

>  <SCORE.INTER.VDW>
-11.0375

>  <SCORE.INTER.norm>
-0.84508

>  <SCORE.INTRA>
0

>  <SCORE.INTRA.DIHEDRAL>
0

>  <SCORE.INTRA.DIHEDRAL.0>
0

>  <SCORE.INTRA.POLAR>
0

>  <SCORE.INTRA.POLAR.0>
0

>  <SCORE.INTRA.REPUL>
0

>  <SCORE.INTRA.REPUL.0>
0

>  <SCORE.INTRA.SOLV>
0

>  <SCORE.INTRA.SOLV.lig_0>
-29.58

>  <SCORE.INTRA.VDW>
0

>  <SCORE.INTRA.VDW.0>
0

>  <SCORE.INTRA.norm>
0

>  <SCORE.RESTR>
0

>  <SCORE.RESTR.CAVITY>
0

>  <SCORE.RESTR.norm>
0

>  <SCORE.SYSTEM>
0

>  <SCORE.SYSTEM.CONST>
0

>  <SCORE.SYSTEM.DIHEDRAL>
0

>  <SCORE.SYSTEM.SOLV>
0

>  <SCORE.SYSTEM.norm>
0

>  <SCORE.heavy>
8

>  <SCORE.norm>
-0.84508

>  <RMSD>
3.193

$$$$
ligand
 OpenBabel02271912143D
libRbt.so/2013.1/901 2013/11/27
  8  8  0  0  0  0  0  0  0  0999 V2000
    9.8835   11.0634   -1.2216 C   0  0  0  0  0  0  0  0  0  0  0  0
   10.0892   12.3522   -0.9516 N   0  0  0  0  0  0  0  0  0  0  0  0
   10.4471   12.7206    0.2813 C   0  0  0  0  0  0  0  0  0  0  0  0
   10.6156   11.7891    1.2487 N   0  0  0  0  0  0  0  0  0  0  0  0
   10.3995   10.4935    0.9656 C   0  0  0  0  0  0  0  0  0  0  0  0
   10.0367   10.1248   -0.2727 N   0  0  0  0  0  0  0  0  0  0  0  0
   10.6638   14.1585    0.5460 N   0  0  0  0  0  0  0  0  0  0  0  0
    9.5232   10.7289   -2.4821 O   0  0  0  0  0  0  0  0  0  0  0  0
  1  2  1  0  0  0  0
  1  6  1  0  0  0  0
  1  8  2  0  0  0  0
  2  3  1  0  0  0  0
  3  4  2  0  0  0  0
  3  7  1  0  0  0  0
  4  5  1  0  0  0  0
  5  6  2  0  0  0  0
M  END
>  <CHROM.1>
10.19272192,11.67537311,-0.29074836,2.69817201,1.29617774,2.77128162

>  <Name>
ligand

>  <RI>
0

>  <Rbt.Current_Directory>
/home/itssahil/PROJECTS/Mol_Feturizer/Test_systems_manuscript/rnas/3la5

>  <Rbt.Executable>
rbdock ($Id: //depot/dev/client3/rdock/2013.1/src/exe/rbdock.cxx#4 $)

>  <Rbt.Library>
libRbt.so (2013.1, Build901 2013/11/27)

>  <Rbt.Parameter_File>
/export/apps/rDock/src/rDock_2013.1_src/data/scripts/dock_solv.prm

>  <Rbt.Receptor>
prm/blind_docking_100.prm

>  <SCORE>
-6.76316

>  <SCORE.INTER>
-6.76316

>  <SCORE.INTER.CONST>
1

>  <SCORE.INTER.POLAR>
0

>  <SCORE.INTER.ROT>
0

>  <SCORE.INTER.SOLV>
8.79213

>  <SCORE.INTER.VDW>
-11.0395

>  <SCORE.INTER.norm>
-0.845395

>  <SCORE.INTRA>
0

>  <SCORE.INTRA.DIHEDRAL>
0

>  <SCORE.INTRA.DIHEDRAL.0>
0

>  <SCORE.INTRA.POLAR>
0

>  <SCORE.INTRA.POLAR.0>
0

>  <SCORE.INTRA.REPUL>
0

>  <SCORE.INTRA.REPUL.0>
0

>  <SCORE.INTRA.SOLV>
0

>  <SCORE.INTRA.SOLV.lig_0>
-29.58

>  <SCORE.INTRA.VDW>
0

>  <SCORE.INTRA.VDW.0>
0

>  <SCORE.INTRA.norm>
0

>  <SCORE.RESTR>
0

>  <SCORE.RESTR.CAVITY>
0

>  <SCORE.RESTR.norm>
0

>  <SCORE.SYSTEM>
0

>  <SCORE.SYSTEM.CONST>
0

>  <SCORE.SYSTEM.DIHEDRAL>
0

>  <SCORE.SYSTEM.SOLV>
0

>  <SCORE.SYSTEM.norm>
0

>  <SCORE.heavy>
8

>  <SCORE.norm>
-0.845395

>  <RMSD>
3.194

$$$$
ligand
 OpenBabel02271912143D
libRbt.so/2013.1/901 2013/11/27
  8  8  0  0  0  0  0  0  0  0999 V2000
    9.8831   11.0655   -1.2220 C   0  0  0  0  0  0  0  0  0  0  0  0
   10.0895   12.3544   -0.9522 N   0  0  0  0  0  0  0  0  0  0  0  0
   10.4485   12.7226    0.2804 C   0  0  0  0  0  0  0  0  0  0  0  0
   10.6174   11.7911    1.2478 N   0  0  0  0  0  0  0  0  0  0  0  0
   10.4005   10.4956    0.9649 C   0  0  0  0  0  0  0  0  0  0  0  0
   10.0367   10.1270   -0.2731 N   0  0  0  0  0  0  0  0  0  0  0  0
   10.6660   14.1605    0.5448 N   0  0  0  0  0  0  0  0  0  0  0  0
    9.5218   10.7312   -2.4822 O   0  0  0  0  0  0  0  0  0  0  0  0
  1  2  1  0  0  0  0
  1  6  1  0  0  0  0
  1  8  2  0  0  0  0
  2  3  1  0  0  0  0
  3  4  2  0  0  0  0
  3  7  1  0  0  0  0
  4  5  1  0  0  0  0
  5  6  2  0  0  0  0
M  END
>  <CHROM.1>
10.19327920,11.67749168,-0.29140562,2.69856018,1.29535278,2.77083715

>  <Name>
ligand

>  <RI>
0

>  <Rbt.Current_Directory>
/home/itssahil/PROJECTS/Mol_Feturizer/Test_systems_manuscript/rnas/3la5

>  <Rbt.Executable>
rbdock ($Id: //depot/dev/client3/rdock/2013.1/src/exe/rbdock.cxx#4 $)

>  <Rbt.Library>
libRbt.so (2013.1, Build901 2013/11/27)

>  <Rbt.Parameter_File>
/export/apps/rDock/src/rDock_2013.1_src/data/scripts/dock_solv.prm

>  <Rbt.Receptor>
prm/blind_docking_60.prm

>  <SCORE>
-6.76324

>  <SCORE.INTER>
-6.76324

>  <SCORE.INTER.CONST>
1

>  <SCORE.INTER.POLAR>
0

>  <SCORE.INTER.ROT>
0

>  <SCORE.INTER.SOLV>
8.79576

>  <SCORE.INTER.VDW>
-11.0407

>  <SCORE.INTER.norm>
-0.845405

>  <SCORE.INTRA>
0

>  <SCORE.INTRA.DIHEDRAL>
0

>  <SCORE.INTRA.DIHEDRAL.0>
0

>  <SCORE.INTRA.POLAR>
0

>  <SCORE.INTRA.POLAR.0>
0

>  <SCORE.INTRA.REPUL>
0

>  <SCORE.INTRA.REPUL.0>
0

>  <SCORE.INTRA.SOLV>
0

>  <SCORE.INTRA.SOLV.lig_0>
-29.58

>  <SCORE.INTRA.VDW>
0

>  <SCORE.INTRA.VDW.0>
0

>  <SCORE.INTRA.norm>
0

>  <SCORE.RESTR>
0

>  <SCORE.RESTR.CAVITY>
0

>  <SCORE.RESTR.norm>
0

>  <SCORE.SYSTEM>
0

>  <SCORE.SYSTEM.CONST>
0

>  <SCORE.SYSTEM.DIHEDRAL>
0

>  <SCORE.SYSTEM.SOLV>
0

>  <SCORE.SYSTEM.norm>
0

>  <SCORE.heavy>
8

>  <SCORE.norm>
-0.845405

>  <RMSD>
3.194

$$$$
ligand
 OpenBabel02271912143D
libRbt.so/2013.1/901 2013/11/27
  8  8  0  0  0  0  0  0  0  0999 V2000
    9.8632   10.9968   -1.2659 C   0  0  0  0  0  0  0  0  0  0  0  0
   10.0233   12.2823   -0.9522 N   0  0  0  0  0  0  0  0  0  0  0  0
   10.3573   12.6217    0.2956 C   0  0  0  0  0  0  0  0  0  0  0  0
   10.5479   11.6652    1.2341 N   0  0  0  0  0  0  0  0  0  0  0  0
   10.3777   10.3731    0.9070 C   0  0  0  0  0  0  0  0  0  0  0  0
   10.0389   10.0334   -0.3463 N   0  0  0  0  0  0  0  0  0  0  0  0
   10.5236   14.0566    0.6089 N   0  0  0  0  0  0  0  0  0  0  0  0
    9.5260   10.6921   -2.5401 O   0  0  0  0  0  0  0  0  0  0  0  0
  1  2  1  0  0  0  0
  1  6  1  0  0  0  0
  1  8  2  0  0  0  0
  2  3  1  0  0  0  0
  3  4  2  0  0  0  0
  3  7  1  0  0  0  0
  4  5  1  0  0  0  0
  5  6  2  0  0  0  0
M  END
>  <CHROM.1>
10.14325206,11.58798477,-0.31255710,2.58820081,1.31538970,2.90995635

>  <Name>
ligand

>  <RI>
0

>  <Rbt.Current_Directory>
/home/itssahil/PROJECTS/Mol_Feturizer/Test_systems_manuscript/rnas/3la5

>  <Rbt.Executable>
rbdock ($Id: //depot/dev/client3/rdock/2013.1/src/exe/rbdock.cxx#4 $)

>  <Rbt.Library>
libRbt.so (2013.1, Build901 2013/11/27)

>  <Rbt.Parameter_File>
/export/apps/rDock/src/rDock_2013.1_src/data/scripts/dock_solv.prm

>  <Rbt.Receptor>
prm/pocket_docking_3.prm

>  <SCORE>
-6.74076

>  <SCORE.INTER>
-6.74076

>  <SCORE.INTER.CONST>
1

>  <SCORE.INTER.POLAR>
0

>  <SCORE.INTER.ROT>
0

>  <SCORE.INTER.SOLV>
8.71497

>  <SCORE.INTER.VDW>
-10.9988

>  <SCORE.INTER.norm>
-0.842595

>  <SCORE.INTRA>
0

>  <SCORE.INTRA.DIHEDRAL>
0

>  <SCORE.INTRA.DIHEDRAL.0>
0

>  <SCORE.INTRA.POLAR>
0

>  <SCORE.INTRA.POLAR.0>
0

>  <SCORE.INTRA.REPUL>
0

>  <SCORE.INTRA.REPUL.0>
0

>  <SCORE.INTRA.SOLV>
0

>  <SCORE.INTRA.SOLV.lig_0>
-29.58

>  <SCORE.INTRA.VDW>
0

>  <SCORE.INTRA.VDW.0>
0

>  <SCORE.INTRA.norm>
0

>  <SCORE.RESTR>
0

>  <SCORE.RESTR.CAVITY>
0

>  <SCORE.RESTR.norm>
0

>  <SCORE.SYSTEM>
0

>  <SCORE.SYSTEM.CONST>
0

>  <SCORE.SYSTEM.DIHEDRAL>
0

>  <SCORE.SYSTEM.SOLV>
0

>  <SCORE.SYSTEM.norm>
0

>  <SCORE.heavy>
8

>  <SCORE.norm>
-0.842595

>  <RMSD>
3.194

$$$$
ligand
 OpenBabel02271912143D
libRbt.so/2013.1/901 2013/11/27
  8  8  0  0  0  0  0  0  0  0999 V2000
    9.8728   11.0375   -1.2304 C   0  0  0  0  0  0  0  0  0  0  0  0
   10.1049   12.3219   -0.9608 N   0  0  0  0  0  0  0  0  0  0  0  0
   10.4058   12.6917    0.2869 C   0  0  0  0  0  0  0  0  0  0  0  0
   10.4903   11.7656    1.2704 N   0  0  0  0  0  0  0  0  0  0  0  0
   10.2482   10.4747    0.9871 C   0  0  0  0  0  0  0  0  0  0  0  0
    9.9427   10.1047   -0.2662 N   0  0  0  0  0  0  0  0  0  0  0  0
   10.6542   14.1247    0.5505 N   0  0  0  0  0  0  0  0  0  0  0  0
    9.5721   10.7013   -2.5060 O   0  0  0  0  0  0  0  0  0  0  0  0
  1  2  1  0  0  0  0
  1  6  1  0  0  0  0
  1  8  2  0  0  0  0
  2  3  1  0  0  0  0
  3  4  2  0  0  0  0
  3  7  1  0  0  0  0
  4  5  1  0  0  0  0
  5  6  2  0  0  0  0
M  END
>  <CHROM.1>
10.14971580,11.64915616,-0.28921918,2.91137525,1.33084009,2.55528036

>  <Name>
ligand

>  <RI>
0

>  <Rbt.Current_Directory>
/home/itssahil/PROJECTS/Mol_Feturizer/Test_systems_manuscript/rnas/3la5

>  <Rbt.Executable>
rbdock ($Id: //depot/dev/client3/rdock/2013.1/src/exe/rbdock.cxx#4 $)

>  <Rbt.Library>
libRbt.so (2013.1, Build901 2013/11/27)

>  <Rbt.Parameter_File>
/export/apps/rDock/src/rDock_2013.1_src/data/scripts/dock_solv.prm

>  <Rbt.Receptor>
prm/pocket_docking_7.prm

>  <SCORE>
-6.70838

>  <SCORE.INTER>
-6.70838

>  <SCORE.INTER.CONST>
1

>  <SCORE.INTER.POLAR>
0

>  <SCORE.INTER.ROT>
0

>  <SCORE.INTER.SOLV>
8.76811

>  <SCORE.INTER.VDW>
-10.995

>  <SCORE.INTER.norm>
-0.838548

>  <SCORE.INTRA>
0

>  <SCORE.INTRA.DIHEDRAL>
0

>  <SCORE.INTRA.DIHEDRAL.0>
0

>  <SCORE.INTRA.POLAR>
0

>  <SCORE.INTRA.POLAR.0>
0

>  <SCORE.INTRA.REPUL>
0

>  <SCORE.INTRA.REPUL.0>
0

>  <SCORE.INTRA.SOLV>
0

>  <SCORE.INTRA.SOLV.lig_0>
-29.58

>  <SCORE.INTRA.VDW>
0

>  <SCORE.INTRA.VDW.0>
0

>  <SCORE.INTRA.norm>
0

>  <SCORE.RESTR>
0

>  <SCORE.RESTR.CAVITY>
0

>  <SCORE.RESTR.norm>
0

>  <SCORE.SYSTEM>
0

>  <SCORE.SYSTEM.CONST>
0

>  <SCORE.SYSTEM.DIHEDRAL>
0

>  <SCORE.SYSTEM.SOLV>
0

>  <SCORE.SYSTEM.norm>
0

>  <SCORE.heavy>
8

>  <SCORE.norm>
-0.838548

>  <RMSD>
3.194

$$$$
ligand
 OpenBabel02271912143D
libRbt.so/2013.1/901 2013/11/27
  8  8  0  0  0  0  0  0  0  0999 V2000
    9.8765   11.0394   -1.1905 C   0  0  0  0  0  0  0  0  0  0  0  0
   10.1018   12.3287   -0.9387 N   0  0  0  0  0  0  0  0  0  0  0  0
   10.4295   12.7135    0.2976 C   0  0  0  0  0  0  0  0  0  0  0  0
   10.5478   11.7978    1.2873 N   0  0  0  0  0  0  0  0  0  0  0  0
   10.3122   10.5018    1.0222 C   0  0  0  0  0  0  0  0  0  0  0  0
    9.9798   10.1167   -0.2196 N   0  0  0  0  0  0  0  0  0  0  0  0
   10.6693   14.1514    0.5416 N   0  0  0  0  0  0  0  0  0  0  0  0
    9.5480   10.6880   -2.4550 O   0  0  0  0  0  0  0  0  0  0  0  0
  1  2  1  0  0  0  0
  1  6  1  0  0  0  0
  1  8  2  0  0  0  0
  2  3  1  0  0  0  0
  3  4  2  0  0  0  0
  3  7  1  0  0  0  0
  4  5  1  0  0  0  0
  5  6  2  0  0  0  0
M  END
>  <CHROM.1>
10.17012223,11.66291279,-0.26219574,2.82304710,1.31511837,2.63142436

>  <Name>
ligand

>  <RI>
0

>  <Rbt.Current_Directory>
/home/itssahil/PROJECTS/Mol_Feturizer/Test_systems_manuscript/rnas/3la5

>  <Rbt.Executable>
rbdock ($Id: //depot/dev/client3/rdock/2013.1/src/exe/rbdock.cxx#4 $)

>  <Rbt.Library>
libRbt.so (2013.1, Build901 2013/11/27)

>  <Rbt.Parameter_File>
/export/apps/rDock/src/rDock_2013.1_src/data/scripts/dock_solv.prm

>  <Rbt.Receptor>
prm/blind_docking_60.prm

>  <SCORE>
-6.75722

>  <SCORE.INTER>
-6.75722

>  <SCORE.INTER.CONST>
1

>  <SCORE.INTER.POLAR>
0

>  <SCORE.INTER.ROT>
0

>  <SCORE.INTER.SOLV>
8.75985

>  <SCORE.INTER.VDW>
-11.0248

>  <SCORE.INTER.norm>
-0.844653

>  <SCORE.INTRA>
0

>  <SCORE.INTRA.DIHEDRAL>
0

>  <SCORE.INTRA.DIHEDRAL.0>
0

>  <SCORE.INTRA.POLAR>
0

>  <SCORE.INTRA.POLAR.0>
0

>  <SCORE.INTRA.REPUL>
0

>  <SCORE.INTRA.REPUL.0>
0

>  <SCORE.INTRA.SOLV>
0

>  <SCORE.INTRA.SOLV.lig_0>
-29.58

>  <SCORE.INTRA.VDW>
0

>  <SCORE.INTRA.VDW.0>
0

>  <SCORE.INTRA.norm>
0

>  <SCORE.RESTR>
0

>  <SCORE.RESTR.CAVITY>
0

>  <SCORE.RESTR.norm>
0

>  <SCORE.SYSTEM>
0

>  <SCORE.SYSTEM.CONST>
0

>  <SCORE.SYSTEM.DIHEDRAL>
0

>  <SCORE.SYSTEM.SOLV>
0

>  <SCORE.SYSTEM.norm>
0

>  <SCORE.heavy>
8

>  <SCORE.norm>
-0.844653

>  <RMSD>
3.195

$$$$
ligand
 OpenBabel02271912143D
libRbt.so/2013.1/901 2013/11/27
  8  8  0  0  0  0  0  0  0  0999 V2000
    9.8712   11.0190   -1.2666 C   0  0  0  0  0  0  0  0  0  0  0  0
   10.0824   12.3013   -0.9710 N   0  0  0  0  0  0  0  0  0  0  0  0
   10.4009   12.6478    0.2790 C   0  0  0  0  0  0  0  0  0  0  0  0
   10.5242   11.7008    1.2381 N   0  0  0  0  0  0  0  0  0  0  0  0
   10.3029   10.4121    0.9289 C   0  0  0  0  0  0  0  0  0  0  0  0
    9.9797   10.0654   -0.3266 N   0  0  0  0  0  0  0  0  0  0  0  0
   10.6252   14.0791    0.5719 N   0  0  0  0  0  0  0  0  0  0  0  0
    9.5517   10.7067   -2.5437 O   0  0  0  0  0  0  0  0  0  0  0  0
  1  2  1  0  0  0  0
  1  6  1  0  0  0  0
  1  8  2  0  0  0  0
  2  3  1  0  0  0  0
  3  4  2  0  0  0  0
  3  7  1  0  0  0  0
  4  5  1  0  0  0  0
  5  6  2  0  0  0  0
M  END
>  <CHROM.1>
10.15458575,11.61399581,-0.31672761,2.79561557,1.32367307,2.69137449

>  <Name>
ligand

>  <RI>
0

>  <Rbt.Current_Directory>
/home/itssahil/PROJECTS/Mol_Feturizer/Test_systems_manuscript/rnas/3la5

>  <Rbt.Executable>
rbdock ($Id: //depot/dev/client3/rdock/2013.1/src/exe/rbdock.cxx#4 $)

>  <Rbt.Library>
libRbt.so (2013.1, Build901 2013/11/27)

>  <Rbt.Parameter_File>
/export/apps/rDock/src/rDock_2013.1_src/data/scripts/dock_solv.prm

>  <Rbt.Receptor>
prm/pocket_docking_8.prm

>  <SCORE>
-6.72256

>  <SCORE.INTER>
-6.72256

>  <SCORE.INTER.CONST>
1

>  <SCORE.INTER.POLAR>
0

>  <SCORE.INTER.ROT>
0

>  <SCORE.INTER.SOLV>
8.80392

>  <SCORE.INTER.VDW>
-11.0163

>  <SCORE.INTER.norm>
-0.84032

>  <SCORE.INTRA>
0

>  <SCORE.INTRA.DIHEDRAL>
0

>  <SCORE.INTRA.DIHEDRAL.0>
0

>  <SCORE.INTRA.POLAR>
0

>  <SCORE.INTRA.POLAR.0>
0

>  <SCORE.INTRA.REPUL>
0

>  <SCORE.INTRA.REPUL.0>
0

>  <SCORE.INTRA.SOLV>
0

>  <SCORE.INTRA.SOLV.lig_0>
-29.58

>  <SCORE.INTRA.VDW>
0

>  <SCORE.INTRA.VDW.0>
0

>  <SCORE.INTRA.norm>
0

>  <SCORE.RESTR>
0

>  <SCORE.RESTR.CAVITY>
0

>  <SCORE.RESTR.norm>
0

>  <SCORE.SYSTEM>
0

>  <SCORE.SYSTEM.CONST>
0

>  <SCORE.SYSTEM.DIHEDRAL>
0

>  <SCORE.SYSTEM.SOLV>
0

>  <SCORE.SYSTEM.norm>
0

>  <SCORE.heavy>
8

>  <SCORE.norm>
-0.84032

>  <RMSD>
3.195

$$$$
ligand
 OpenBabel02271912143D
libRbt.so/2013.1/901 2013/11/27
  8  8  0  0  0  0  0  0  0  0999 V2000
    9.8811   11.0519   -1.2524 C   0  0  0  0  0  0  0  0  0  0  0  0
   10.0857   12.3377   -0.9671 N   0  0  0  0  0  0  0  0  0  0  0  0
   10.4437   12.6916    0.2700 C   0  0  0  0  0  0  0  0  0  0  0  0
   10.6133   11.7487    1.2262 N   0  0  0  0  0  0  0  0  0  0  0  0
   10.3982   10.4564    0.9277 C   0  0  0  0  0  0  0  0  0  0  0  0
   10.0354   10.1023   -0.3148 N   0  0  0  0  0  0  0  0  0  0  0  0
   10.6593   14.1264    0.5518 N   0  0  0  0  0  0  0  0  0  0  0  0
    9.5207   10.7322   -2.5167 O   0  0  0  0  0  0  0  0  0  0  0  0
  1  2  1  0  0  0  0
  1  6  1  0  0  0  0
  1  8  2  0  0  0  0
  2  3  1  0  0  0  0
  3  4  2  0  0  0  0
  3  7  1  0  0  0  0
  4  5  1  0  0  0  0
  5  6  2  0  0  0  0
M  END
>  <CHROM.1>
10.19003903,11.65304665,-0.31440224,2.69476351,1.29620185,2.78648642

>  <Name>
ligand

>  <RI>
0

>  <Rbt.Current_Directory>
/home/itssahil/PROJECTS/Mol_Feturizer/Test_systems_manuscript/rnas/3la5

>  <Rbt.Executable>
rbdock ($Id: //depot/dev/client3/rdock/2013.1/src/exe/rbdock.cxx#4 $)

>  <Rbt.Library>
libRbt.so (2013.1, Build901 2013/11/27)

>  <Rbt.Parameter_File>
/export/apps/rDock/src/rDock_2013.1_src/data/scripts/dock_solv.prm

>  <Rbt.Receptor>
prm/pocket_docking_6.prm

>  <SCORE>
-6.74179

>  <SCORE.INTER>
-6.74179

>  <SCORE.INTER.CONST>
1

>  <SCORE.INTER.POLAR>
0

>  <SCORE.INTER.ROT>
0

>  <SCORE.INTER.SOLV>
8.85284

>  <SCORE.INTER.VDW>
-11.0455

>  <SCORE.INTER.norm>
-0.842724

>  <SCORE.INTRA>
0

>  <SCORE.INTRA.DIHEDRAL>
0

>  <SCORE.INTRA.DIHEDRAL.0>
0

>  <SCORE.INTRA.POLAR>
0

>  <SCORE.INTRA.POLAR.0>
0

>  <SCORE.INTRA.REPUL>
0

>  <SCORE.INTRA.REPUL.0>
0

>  <SCORE.INTRA.SOLV>
0

>  <SCORE.INTRA.SOLV.lig_0>
-29.58

>  <SCORE.INTRA.VDW>
0

>  <SCORE.INTRA.VDW.0>
0

>  <SCORE.INTRA.norm>
0

>  <SCORE.RESTR>
0

>  <SCORE.RESTR.CAVITY>
0

>  <SCORE.RESTR.norm>
0

>  <SCORE.SYSTEM>
0

>  <SCORE.SYSTEM.CONST>
0

>  <SCORE.SYSTEM.DIHEDRAL>
0

>  <SCORE.SYSTEM.SOLV>
0

>  <SCORE.SYSTEM.norm>
0

>  <SCORE.heavy>
8

>  <SCORE.norm>
-0.842724

>  <RMSD>
3.196

$$$$
ligand
 OpenBabel02271912143D
libRbt.so/2013.1/901 2013/11/27
  8  8  0  0  0  0  0  0  0  0999 V2000
    9.8840   11.0559   -1.2517 C   0  0  0  0  0  0  0  0  0  0  0  0
   10.0886   12.3421   -0.9686 N   0  0  0  0  0  0  0  0  0  0  0  0
   10.4418   12.6987    0.2691 C   0  0  0  0  0  0  0  0  0  0  0  0
   10.6067   11.7580    1.2282 N   0  0  0  0  0  0  0  0  0  0  0  0
   10.3918   10.4652    0.9320 C   0  0  0  0  0  0  0  0  0  0  0  0
   10.0337   10.1083   -0.3112 N   0  0  0  0  0  0  0  0  0  0  0  0
   10.6574   14.1340    0.5483 N   0  0  0  0  0  0  0  0  0  0  0  0
    9.5286   10.7335   -2.5166 O   0  0  0  0  0  0  0  0  0  0  0  0
  1  2  1  0  0  0  0
  1  6  1  0  0  0  0
  1  8  2  0  0  0  0
  2  3  1  0  0  0  0
  3  4  2  0  0  0  0
  3  7  1  0  0  0  0
  4  5  1  0  0  0  0
  5  6  2  0  0  0  0
M  END
>  <CHROM.1>
10.18966590,11.65899529,-0.31386627,2.70308668,1.29974277,2.77607947

>  <Name>
ligand

>  <RI>
0

>  <Rbt.Current_Directory>
/home/itssahil/PROJECTS/Mol_Feturizer/Test_systems_manuscript/rnas/3la5

>  <Rbt.Executable>
rbdock ($Id: //depot/dev/client3/rdock/2013.1/src/exe/rbdock.cxx#4 $)

>  <Rbt.Library>
libRbt.so (2013.1, Build901 2013/11/27)

>  <Rbt.Parameter_File>
/export/apps/rDock/src/rDock_2013.1_src/data/scripts/dock_solv.prm

>  <Rbt.Receptor>
prm/pocket_docking_7.prm

>  <SCORE>
-6.74636

>  <SCORE.INTER>
-6.74636

>  <SCORE.INTER.CONST>
1

>  <SCORE.INTER.POLAR>
0

>  <SCORE.INTER.ROT>
0

>  <SCORE.INTER.SOLV>
8.83546

>  <SCORE.INTER.VDW>
-11.0427

>  <SCORE.INTER.norm>
-0.843295

>  <SCORE.INTRA>
0

>  <SCORE.INTRA.DIHEDRAL>
0

>  <SCORE.INTRA.DIHEDRAL.0>
0

>  <SCORE.INTRA.POLAR>
0

>  <SCORE.INTRA.POLAR.0>
0

>  <SCORE.INTRA.REPUL>
0

>  <SCORE.INTRA.REPUL.0>
0

>  <SCORE.INTRA.SOLV>
0

>  <SCORE.INTRA.SOLV.lig_0>
-29.58

>  <SCORE.INTRA.VDW>
0

>  <SCORE.INTRA.VDW.0>
0

>  <SCORE.INTRA.norm>
0

>  <SCORE.RESTR>
0

>  <SCORE.RESTR.CAVITY>
0

>  <SCORE.RESTR.norm>
0

>  <SCORE.SYSTEM>
0

>  <SCORE.SYSTEM.CONST>
0

>  <SCORE.SYSTEM.DIHEDRAL>
0

>  <SCORE.SYSTEM.SOLV>
0

>  <SCORE.SYSTEM.norm>
0

>  <SCORE.heavy>
8

>  <SCORE.norm>
-0.843295

>  <RMSD>
3.196

$$$$
ligand
 OpenBabel02271912143D
libRbt.so/2013.1/901 2013/11/27
  8  8  0  0  0  0  0  0  0  0999 V2000
    9.8986   11.0234   -1.1751 C   0  0  0  0  0  0  0  0  0  0  0  0
   10.1141   12.3153   -0.9281 N   0  0  0  0  0  0  0  0  0  0  0  0
   10.4687   12.7035    0.2997 C   0  0  0  0  0  0  0  0  0  0  0  0
   10.6242   11.7889    1.2852 N   0  0  0  0  0  0  0  0  0  0  0  0
   10.3983   10.4901    1.0251 C   0  0  0  0  0  0  0  0  0  0  0  0
   10.0388   10.1015   -0.2080 N   0  0  0  0  0  0  0  0  0  0  0  0
   10.6966   14.1443    0.5386 N   0  0  0  0  0  0  0  0  0  0  0  0
    9.5420   10.6685   -2.4310 O   0  0  0  0  0  0  0  0  0  0  0  0
  1  2  1  0  0  0  0
  1  6  1  0  0  0  0
  1  8  2  0  0  0  0
  2  3  1  0  0  0  0
  3  4  2  0  0  0  0
  3  7  1  0  0  0  0
  4  5  1  0  0  0  0
  5  6  2  0  0  0  0
M  END
>  <CHROM.1>
10.20831439,11.65002642,-0.25416884,2.73506970,1.29769928,2.71706866

>  <Name>
ligand

>  <RI>
0

>  <Rbt.Current_Directory>
/home/itssahil/PROJECTS/Mol_Feturizer/Test_systems_manuscript/rnas/3la5

>  <Rbt.Executable>
rbdock ($Id: //depot/dev/client3/rdock/2013.1/src/exe/rbdock.cxx#4 $)

>  <Rbt.Library>
libRbt.so (2013.1, Build901 2013/11/27)

>  <Rbt.Parameter_File>
/export/apps/rDock/src/rDock_2013.1_src/data/scripts/dock_solv.prm

>  <Rbt.Receptor>
prm/pocket_docking_7.prm

>  <SCORE>
-6.71844

>  <SCORE.INTER>
-6.71844

>  <SCORE.INTER.CONST>
1

>  <SCORE.INTER.POLAR>
0

>  <SCORE.INTER.ROT>
0

>  <SCORE.INTER.SOLV>
8.84973

>  <SCORE.INTER.VDW>
-11.0289

>  <SCORE.INTER.norm>
-0.839806

>  <SCORE.INTRA>
0

>  <SCORE.INTRA.DIHEDRAL>
0

>  <SCORE.INTRA.DIHEDRAL.0>
0

>  <SCORE.INTRA.POLAR>
0

>  <SCORE.INTRA.POLAR.0>
0

>  <SCORE.INTRA.REPUL>
0

>  <SCORE.INTRA.REPUL.0>
0

>  <SCORE.INTRA.SOLV>
0

>  <SCORE.INTRA.SOLV.lig_0>
-29.58

>  <SCORE.INTRA.VDW>
0

>  <SCORE.INTRA.VDW.0>
0

>  <SCORE.INTRA.norm>
0

>  <SCORE.RESTR>
0

>  <SCORE.RESTR.CAVITY>
0

>  <SCORE.RESTR.norm>
0

>  <SCORE.SYSTEM>
0

>  <SCORE.SYSTEM.CONST>
0

>  <SCORE.SYSTEM.DIHEDRAL>
0

>  <SCORE.SYSTEM.SOLV>
0

>  <SCORE.SYSTEM.norm>
0

>  <SCORE.heavy>
8

>  <SCORE.norm>
-0.839806

>  <RMSD>
3.196

$$$$
ligand
 OpenBabel02271912143D
libRbt.so/2013.1/901 2013/11/27
  8  8  0  0  0  0  0  0  0  0999 V2000
    9.8502   11.0279   -1.1316 C   0  0  0  0  0  0  0  0  0  0  0  0
   10.0301   12.3263   -0.8903 N   0  0  0  0  0  0  0  0  0  0  0  0
   10.3966   12.7275    0.3298 C   0  0  0  0  0  0  0  0  0  0  0  0
   10.5998   11.8198    1.3131 N   0  0  0  0  0  0  0  0  0  0  0  0
   10.4095   10.5142    1.0590 C   0  0  0  0  0  0  0  0  0  0  0  0
   10.0380   10.1124   -0.1664 N   0  0  0  0  0  0  0  0  0  0  0  0
   10.5841   14.1750    0.5627 N   0  0  0  0  0  0  0  0  0  0  0  0
    9.4802   10.6599   -2.3798 O   0  0  0  0  0  0  0  0  0  0  0  0
  1  2  1  0  0  0  0
  1  6  1  0  0  0  0
  1  8  2  0  0  0  0
  2  3  1  0  0  0  0
  3  4  2  0  0  0  0
  3  7  1  0  0  0  0
  4  5  1  0  0  0  0
  5  6  2  0  0  0  0
M  END
>  <CHROM.1>
10.15828250,11.66543451,-0.21759498,2.60294252,1.29028717,2.84277714

>  <Name>
ligand

>  <RI>
0

>  <Rbt.Current_Directory>
/home/itssahil/PROJECTS/Mol_Feturizer/Test_systems_manuscript/rnas/3la5

>  <Rbt.Executable>
rbdock ($Id: //depot/dev/client3/rdock/2013.1/src/exe/rbdock.cxx#4 $)

>  <Rbt.Library>
libRbt.so (2013.1, Build901 2013/11/27)

>  <Rbt.Parameter_File>
/export/apps/rDock/src/rDock_2013.1_src/data/scripts/dock_solv.prm

>  <Rbt.Receptor>
prm/blind_docking_100.prm

>  <SCORE>
-6.75658

>  <SCORE.INTER>
-6.75658

>  <SCORE.INTER.CONST>
1

>  <SCORE.INTER.POLAR>
0

>  <SCORE.INTER.ROT>
0

>  <SCORE.INTER.SOLV>
8.61606

>  <SCORE.INTER.VDW>
-10.9764

>  <SCORE.INTER.norm>
-0.844572

>  <SCORE.INTRA>
0

>  <SCORE.INTRA.DIHEDRAL>
0

>  <SCORE.INTRA.DIHEDRAL.0>
0

>  <SCORE.INTRA.POLAR>
0

>  <SCORE.INTRA.POLAR.0>
0

>  <SCORE.INTRA.REPUL>
0

>  <SCORE.INTRA.REPUL.0>
0

>  <SCORE.INTRA.SOLV>
0

>  <SCORE.INTRA.SOLV.lig_0>
-29.58

>  <SCORE.INTRA.VDW>
0

>  <SCORE.INTRA.VDW.0>
0

>  <SCORE.INTRA.norm>
0

>  <SCORE.RESTR>
0

>  <SCORE.RESTR.CAVITY>
0

>  <SCORE.RESTR.norm>
0

>  <SCORE.SYSTEM>
0

>  <SCORE.SYSTEM.CONST>
0

>  <SCORE.SYSTEM.DIHEDRAL>
0

>  <SCORE.SYSTEM.SOLV>
0

>  <SCORE.SYSTEM.norm>
0

>  <SCORE.heavy>
8

>  <SCORE.norm>
-0.844572

>  <RMSD>
3.197

$$$$
ligand
 OpenBabel02271912143D
libRbt.so/2013.1/901 2013/11/27
  8  8  0  0  0  0  0  0  0  0999 V2000
    9.8529   11.0267   -1.1308 C   0  0  0  0  0  0  0  0  0  0  0  0
   10.0336   12.3251   -0.8899 N   0  0  0  0  0  0  0  0  0  0  0  0
   10.4044   12.7260    0.3290 C   0  0  0  0  0  0  0  0  0  0  0  0
   10.6111   11.8181    1.3114 N   0  0  0  0  0  0  0  0  0  0  0  0
   10.4199   10.5126    1.0576 C   0  0  0  0  0  0  0  0  0  0  0  0
   10.0441   10.1111   -0.1665 N   0  0  0  0  0  0  0  0  0  0  0  0
   10.5926   14.1735    0.5615 N   0  0  0  0  0  0  0  0  0  0  0  0
    9.4785   10.6590   -2.3778 O   0  0  0  0  0  0  0  0  0  0  0  0
  1  2  1  0  0  0  0
  1  6  1  0  0  0  0
  1  8  2  0  0  0  0
  2  3  1  0  0  0  0
  3  4  2  0  0  0  0
  3  7  1  0  0  0  0
  4  5  1  0  0  0  0
  5  6  2  0  0  0  0
M  END
>  <CHROM.1>
10.16413992,11.66409739,-0.21779294,2.59906327,1.28692514,2.84671647

>  <Name>
ligand

>  <RI>
0

>  <Rbt.Current_Directory>
/home/itssahil/PROJECTS/Mol_Feturizer/Test_systems_manuscript/rnas/3la5

>  <Rbt.Executable>
rbdock ($Id: //depot/dev/client3/rdock/2013.1/src/exe/rbdock.cxx#4 $)

>  <Rbt.Library>
libRbt.so (2013.1, Build901 2013/11/27)

>  <Rbt.Parameter_File>
/export/apps/rDock/src/rDock_2013.1_src/data/scripts/dock_solv.prm

>  <Rbt.Receptor>
prm/pocket_docking_3.prm

>  <SCORE>
-6.75485

>  <SCORE.INTER>
-6.75485

>  <SCORE.INTER.CONST>
1

>  <SCORE.INTER.POLAR>
0

>  <SCORE.INTER.ROT>
0

>  <SCORE.INTER.SOLV>
8.63101

>  <SCORE.INTER.VDW>
-10.9802

>  <SCORE.INTER.norm>
-0.844357

>  <SCORE.INTRA>
0

>  <SCORE.INTRA.DIHEDRAL>
0

>  <SCORE.INTRA.DIHEDRAL.0>
0

>  <SCORE.INTRA.POLAR>
0

>  <SCORE.INTRA.POLAR.0>
0

>  <SCORE.INTRA.REPUL>
0

>  <SCORE.INTRA.REPUL.0>
0

>  <SCORE.INTRA.SOLV>
0

>  <SCORE.INTRA.SOLV.lig_0>
-29.58

>  <SCORE.INTRA.VDW>
0

>  <SCORE.INTRA.VDW.0>
0

>  <SCORE.INTRA.norm>
0

>  <SCORE.RESTR>
0

>  <SCORE.RESTR.CAVITY>
0

>  <SCORE.RESTR.norm>
0

>  <SCORE.SYSTEM>
0

>  <SCORE.SYSTEM.CONST>
0

>  <SCORE.SYSTEM.DIHEDRAL>
0

>  <SCORE.SYSTEM.SOLV>
0

>  <SCORE.SYSTEM.norm>
0

>  <SCORE.heavy>
8

>  <SCORE.norm>
-0.844357

>  <RMSD>
3.197

$$$$
ligand
 OpenBabel02271912143D
libRbt.so/2013.1/901 2013/11/27
  8  8  0  0  0  0  0  0  0  0999 V2000
    9.8686   10.9936   -1.2550 C   0  0  0  0  0  0  0  0  0  0  0  0
   10.0198   12.2825   -0.9512 N   0  0  0  0  0  0  0  0  0  0  0  0
   10.3318   12.6350    0.2987 C   0  0  0  0  0  0  0  0  0  0  0  0
   10.5093   11.6882    1.2495 N   0  0  0  0  0  0  0  0  0  0  0  0
   10.3483   10.3925    0.9322 C   0  0  0  0  0  0  0  0  0  0  0  0
   10.0315   10.0396   -0.3232 N   0  0  0  0  0  0  0  0  0  0  0  0
   10.4887   14.0734    0.6007 N   0  0  0  0  0  0  0  0  0  0  0  0
    9.5537   10.6754   -2.5317 O   0  0  0  0  0  0  0  0  0  0  0  0
  1  2  1  0  0  0  0
  1  6  1  0  0  0  0
  1  8  2  0  0  0  0
  2  3  1  0  0  0  0
  3  4  2  0  0  0  0
  3  7  1  0  0  0  0
  4  5  1  0  0  0  0
  5  6  2  0  0  0  0
M  END
>  <CHROM.1>
10.13090752,11.59475316,-0.30288042,2.59281448,1.33239545,2.89575630

>  <Name>
ligand

>  <RI>
0

>  <Rbt.Current_Directory>
/home/itssahil/PROJECTS/Mol_Feturizer/Test_systems_manuscript/rnas/3la5

>  <Rbt.Executable>
rbdock ($Id: //depot/dev/client3/rdock/2013.1/src/exe/rbdock.cxx#4 $)

>  <Rbt.Library>
libRbt.so (2013.1, Build901 2013/11/27)

>  <Rbt.Parameter_File>
/export/apps/rDock/src/rDock_2013.1_src/data/scripts/dock_solv.prm

>  <Rbt.Receptor>
prm/pocket_docking_3.prm

>  <SCORE>
-6.75929

>  <SCORE.INTER>
-6.75929

>  <SCORE.INTER.CONST>
1

>  <SCORE.INTER.POLAR>
0

>  <SCORE.INTER.ROT>
0

>  <SCORE.INTER.SOLV>
8.64956

>  <SCORE.INTER.VDW>
-10.9894

>  <SCORE.INTER.norm>
-0.844911

>  <SCORE.INTRA>
0

>  <SCORE.INTRA.DIHEDRAL>
0

>  <SCORE.INTRA.DIHEDRAL.0>
0

>  <SCORE.INTRA.POLAR>
0

>  <SCORE.INTRA.POLAR.0>
0

>  <SCORE.INTRA.REPUL>
0

>  <SCORE.INTRA.REPUL.0>
0

>  <SCORE.INTRA.SOLV>
0

>  <SCORE.INTRA.SOLV.lig_0>
-29.58

>  <SCORE.INTRA.VDW>
0

>  <SCORE.INTRA.VDW.0>
0

>  <SCORE.INTRA.norm>
0

>  <SCORE.RESTR>
0

>  <SCORE.RESTR.CAVITY>
0

>  <SCORE.RESTR.norm>
0

>  <SCORE.SYSTEM>
0

>  <SCORE.SYSTEM.CONST>
0

>  <SCORE.SYSTEM.DIHEDRAL>
0

>  <SCORE.SYSTEM.SOLV>
0

>  <SCORE.SYSTEM.norm>
0

>  <SCORE.heavy>
8

>  <SCORE.norm>
-0.844911

>  <RMSD>
3.197

$$$$
ligand
 OpenBabel02271912143D
libRbt.so/2013.1/901 2013/11/27
  8  8  0  0  0  0  0  0  0  0999 V2000
    9.8673   10.9877   -1.2587 C   0  0  0  0  0  0  0  0  0  0  0  0
   10.0156   12.2761   -0.9516 N   0  0  0  0  0  0  0  0  0  0  0  0
   10.3319   12.6258    0.2981 C   0  0  0  0  0  0  0  0  0  0  0  0
   10.5164   11.6766    1.2452 N   0  0  0  0  0  0  0  0  0  0  0  0
   10.3582   10.3814    0.9246 C   0  0  0  0  0  0  0  0  0  0  0  0
   10.0372   10.0313   -0.3306 N   0  0  0  0  0  0  0  0  0  0  0  0
   10.4855   14.0637    0.6039 N   0  0  0  0  0  0  0  0  0  0  0  0
    9.5479   10.6725   -2.5350 O   0  0  0  0  0  0  0  0  0  0  0  0
  1  2  1  0  0  0  0
  1  6  1  0  0  0  0
  1  8  2  0  0  0  0
  2  3  1  0  0  0  0
  3  4  2  0  0  0  0
  3  7  1  0  0  0  0
  4  5  1  0  0  0  0
  5  6  2  0  0  0  0
M  END
>  <CHROM.1>
10.13170774,11.58675559,-0.30587177,2.57560956,1.32899308,2.91555678

>  <Name>
ligand

>  <RI>
0

>  <Rbt.Current_Directory>
/home/itssahil/PROJECTS/Mol_Feturizer/Test_systems_manuscript/rnas/3la5

>  <Rbt.Executable>
rbdock ($Id: //depot/dev/client3/rdock/2013.1/src/exe/rbdock.cxx#4 $)

>  <Rbt.Library>
libRbt.so (2013.1, Build901 2013/11/27)

>  <Rbt.Parameter_File>
/export/apps/rDock/src/rDock_2013.1_src/data/scripts/dock_solv.prm

>  <Rbt.Receptor>
prm/pocket_docking_3.prm

>  <SCORE>
-6.75413

>  <SCORE.INTER>
-6.75413

>  <SCORE.INTER.CONST>
1

>  <SCORE.INTER.POLAR>
0

>  <SCORE.INTER.ROT>
0

>  <SCORE.INTER.SOLV>
8.65928

>  <SCORE.INTER.VDW>
-10.9892

>  <SCORE.INTER.norm>
-0.844266

>  <SCORE.INTRA>
0

>  <SCORE.INTRA.DIHEDRAL>
0

>  <SCORE.INTRA.DIHEDRAL.0>
0

>  <SCORE.INTRA.POLAR>
0

>  <SCORE.INTRA.POLAR.0>
0

>  <SCORE.INTRA.REPUL>
0

>  <SCORE.INTRA.REPUL.0>
0

>  <SCORE.INTRA.SOLV>
0

>  <SCORE.INTRA.SOLV.lig_0>
-29.58

>  <SCORE.INTRA.VDW>
0

>  <SCORE.INTRA.VDW.0>
0

>  <SCORE.INTRA.norm>
0

>  <SCORE.RESTR>
0

>  <SCORE.RESTR.CAVITY>
0

>  <SCORE.RESTR.norm>
0

>  <SCORE.SYSTEM>
0

>  <SCORE.SYSTEM.CONST>
0

>  <SCORE.SYSTEM.DIHEDRAL>
0

>  <SCORE.SYSTEM.SOLV>
0

>  <SCORE.SYSTEM.norm>
0

>  <SCORE.heavy>
8

>  <SCORE.norm>
-0.844266

>  <RMSD>
3.197

$$$$
ligand
 OpenBabel02271912143D
libRbt.so/2013.1/901 2013/11/27
  8  8  0  0  0  0  0  0  0  0999 V2000
    9.8803   11.0673   -1.2181 C   0  0  0  0  0  0  0  0  0  0  0  0
   10.0917   12.3566   -0.9547 N   0  0  0  0  0  0  0  0  0  0  0  0
   10.4496   12.7299    0.2768 C   0  0  0  0  0  0  0  0  0  0  0  0
   10.6123   11.8028    1.2494 N   0  0  0  0  0  0  0  0  0  0  0  0
   10.3904   10.5067    0.9730 C   0  0  0  0  0  0  0  0  0  0  0  0
   10.0277   10.1332   -0.2639 N   0  0  0  0  0  0  0  0  0  0  0  0
   10.6728   14.1682    0.5341 N   0  0  0  0  0  0  0  0  0  0  0  0
    9.5203   10.7278   -2.4772 O   0  0  0  0  0  0  0  0  0  0  0  0
  1  2  1  0  0  0  0
  1  6  1  0  0  0  0
  1  8  2  0  0  0  0
  2  3  1  0  0  0  0
  3  4  2  0  0  0  0
  3  7  1  0  0  0  0
  4  5  1  0  0  0  0
  5  6  2  0  0  0  0
M  END
>  <CHROM.1>
10.19109469,11.68284060,-0.29003817,2.71642156,1.29576404,2.74835473

>  <Name>
ligand

>  <RI>
0

>  <Rbt.Current_Directory>
/home/itssahil/PROJECTS/Mol_Feturizer/Test_systems_manuscript/rnas/3la5

>  <Rbt.Executable>
rbdock ($Id: //depot/dev/client3/rdock/2013.1/src/exe/rbdock.cxx#4 $)

>  <Rbt.Library>
libRbt.so (2013.1, Build901 2013/11/27)

>  <Rbt.Parameter_File>
/export/apps/rDock/src/rDock_2013.1_src/data/scripts/dock_solv.prm

>  <Rbt.Receptor>
prm/pocket_docking_5.prm

>  <SCORE>
-6.75863

>  <SCORE.INTER>
-6.75863

>  <SCORE.INTER.CONST>
1

>  <SCORE.INTER.POLAR>
0

>  <SCORE.INTER.ROT>
0

>  <SCORE.INTER.SOLV>
8.80622

>  <SCORE.INTER.VDW>
-11.0412

>  <SCORE.INTER.norm>
-0.844829

>  <SCORE.INTRA>
0

>  <SCORE.INTRA.DIHEDRAL>
0

>  <SCORE.INTRA.DIHEDRAL.0>
0

>  <SCORE.INTRA.POLAR>
0

>  <SCORE.INTRA.POLAR.0>
0

>  <SCORE.INTRA.REPUL>
0

>  <SCORE.INTRA.REPUL.0>
0

>  <SCORE.INTRA.SOLV>
0

>  <SCORE.INTRA.SOLV.lig_0>
-29.58

>  <SCORE.INTRA.VDW>
0

>  <SCORE.INTRA.VDW.0>
0

>  <SCORE.INTRA.norm>
0

>  <SCORE.RESTR>
0

>  <SCORE.RESTR.CAVITY>
0

>  <SCORE.RESTR.norm>
0

>  <SCORE.SYSTEM>
0

>  <SCORE.SYSTEM.CONST>
0

>  <SCORE.SYSTEM.DIHEDRAL>
0

>  <SCORE.SYSTEM.SOLV>
0

>  <SCORE.SYSTEM.norm>
0

>  <SCORE.heavy>
8

>  <SCORE.norm>
-0.844829

>  <RMSD>
3.197

$$$$
ligand
 OpenBabel02271912143D
libRbt.so/2013.1/901 2013/11/27
  8  8  0  0  0  0  0  0  0  0999 V2000
    9.8331   11.0861   -1.3018 C   0  0  0  0  0  0  0  0  0  0  0  0
   10.0556   12.3636   -0.9938 N   0  0  0  0  0  0  0  0  0  0  0  0
   10.4201   12.6903    0.2490 C   0  0  0  0  0  0  0  0  0  0  0  0
   10.5782   11.7282    1.1877 N   0  0  0  0  0  0  0  0  0  0  0  0
   10.3451   10.4445    0.8664 C   0  0  0  0  0  0  0  0  0  0  0  0
    9.9757   10.1177   -0.3817 N   0  0  0  0  0  0  0  0  0  0  0  0
   10.6556   14.1168    0.5561 N   0  0  0  0  0  0  0  0  0  0  0  0
    9.4666   10.7942   -2.5710 O   0  0  0  0  0  0  0  0  0  0  0  0
  1  2  1  0  0  0  0
  1  6  1  0  0  0  0
  1  8  2  0  0  0  0
  2  3  1  0  0  0  0
  3  4  2  0  0  0  0
  3  7  1  0  0  0  0
  4  5  1  0  0  0  0
  5  6  2  0  0  0  0
M  END
>  <CHROM.1>
10.15151356,11.66602993,-0.35365593,2.73915638,1.28991236,2.76178959

>  <Name>
ligand

>  <RI>
0

>  <Rbt.Current_Directory>
/home/itssahil/PROJECTS/Mol_Feturizer/Test_systems_manuscript/rnas/3la5

>  <Rbt.Executable>
rbdock ($Id: //depot/dev/client3/rdock/2013.1/src/exe/rbdock.cxx#4 $)

>  <Rbt.Library>
libRbt.so (2013.1, Build901 2013/11/27)

>  <Rbt.Parameter_File>
/export/apps/rDock/src/rDock_2013.1_src/data/scripts/dock_solv.prm

>  <Rbt.Receptor>
prm/pocket_docking_7.prm

>  <SCORE>
-6.73511

>  <SCORE.INTER>
-6.73511

>  <SCORE.INTER.CONST>
1

>  <SCORE.INTER.POLAR>
0

>  <SCORE.INTER.ROT>
0

>  <SCORE.INTER.SOLV>
8.9244

>  <SCORE.INTER.VDW>
-11.0649

>  <SCORE.INTER.norm>
-0.841889

>  <SCORE.INTRA>
0

>  <SCORE.INTRA.DIHEDRAL>
0

>  <SCORE.INTRA.DIHEDRAL.0>
0

>  <SCORE.INTRA.POLAR>
0

>  <SCORE.INTRA.POLAR.0>
0

>  <SCORE.INTRA.REPUL>
0

>  <SCORE.INTRA.REPUL.0>
0

>  <SCORE.INTRA.SOLV>
0

>  <SCORE.INTRA.SOLV.lig_0>
-29.58

>  <SCORE.INTRA.VDW>
0

>  <SCORE.INTRA.VDW.0>
0

>  <SCORE.INTRA.norm>
0

>  <SCORE.RESTR>
0

>  <SCORE.RESTR.CAVITY>
0

>  <SCORE.RESTR.norm>
0

>  <SCORE.SYSTEM>
0

>  <SCORE.SYSTEM.CONST>
0

>  <SCORE.SYSTEM.DIHEDRAL>
0

>  <SCORE.SYSTEM.SOLV>
0

>  <SCORE.SYSTEM.norm>
0

>  <SCORE.heavy>
8

>  <SCORE.norm>
-0.841889

>  <RMSD>
3.197

$$$$
ligand
 OpenBabel02271912143D
libRbt.so/2013.1/901 2013/11/27
  8  8  0  0  0  0  0  0  0  0999 V2000
    9.8710   11.0046   -1.1908 C   0  0  0  0  0  0  0  0  0  0  0  0
   10.0140   12.3009   -0.9159 N   0  0  0  0  0  0  0  0  0  0  0  0
   10.3579   12.6812    0.3174 C   0  0  0  0  0  0  0  0  0  0  0  0
   10.5756   11.7550    1.2802 N   0  0  0  0  0  0  0  0  0  0  0  0
   10.4223   10.4516    0.9921 C   0  0  0  0  0  0  0  0  0  0  0  0
   10.0735   10.0707   -0.2465 N   0  0  0  0  0  0  0  0  0  0  0  0
   10.5047   14.1269    0.5876 N   0  0  0  0  0  0  0  0  0  0  0  0
    9.5229   10.6581   -2.4515 O   0  0  0  0  0  0  0  0  0  0  0  0
  1  2  1  0  0  0  0
  1  6  1  0  0  0  0
  1  8  2  0  0  0  0
  2  3  1  0  0  0  0
  3  4  2  0  0  0  0
  3  7  1  0  0  0  0
  4  5  1  0  0  0  0
  5  6  2  0  0  0  0
M  END
>  <CHROM.1>
10.15312539,11.62715120,-0.25835147,2.51689752,1.30643953,2.95032840

>  <Name>
ligand

>  <RI>
0

>  <Rbt.Current_Directory>
/home/itssahil/PROJECTS/Mol_Feturizer/Test_systems_manuscript/rnas/3la5

>  <Rbt.Executable>
rbdock ($Id: //depot/dev/client3/rdock/2013.1/src/exe/rbdock.cxx#4 $)

>  <Rbt.Library>
libRbt.so (2013.1, Build901 2013/11/27)

>  <Rbt.Parameter_File>
/export/apps/rDock/src/rDock_2013.1_src/data/scripts/dock_solv.prm

>  <Rbt.Receptor>
prm/pocket_docking_8.prm

>  <SCORE>
-6.68605

>  <SCORE.INTER>
-6.68605

>  <SCORE.INTER.CONST>
1

>  <SCORE.INTER.POLAR>
0

>  <SCORE.INTER.ROT>
0

>  <SCORE.INTER.SOLV>
8.608

>  <SCORE.INTER.VDW>
-10.9267

>  <SCORE.INTER.norm>
-0.835756

>  <SCORE.INTRA>
0

>  <SCORE.INTRA.DIHEDRAL>
0

>  <SCORE.INTRA.DIHEDRAL.0>
0

>  <SCORE.INTRA.POLAR>
0

>  <SCORE.INTRA.POLAR.0>
0

>  <SCORE.INTRA.REPUL>
0

>  <SCORE.INTRA.REPUL.0>
0

>  <SCORE.INTRA.SOLV>
0

>  <SCORE.INTRA.SOLV.lig_0>
-29.58

>  <SCORE.INTRA.VDW>
0

>  <SCORE.INTRA.VDW.0>
0

>  <SCORE.INTRA.norm>
0

>  <SCORE.RESTR>
0

>  <SCORE.RESTR.CAVITY>
0

>  <SCORE.RESTR.norm>
0

>  <SCORE.SYSTEM>
0

>  <SCORE.SYSTEM.CONST>
0

>  <SCORE.SYSTEM.DIHEDRAL>
0

>  <SCORE.SYSTEM.SOLV>
0

>  <SCORE.SYSTEM.norm>
0

>  <SCORE.heavy>
8

>  <SCORE.norm>
-0.835756

>  <RMSD>
3.197

$$$$
ligand
 OpenBabel02271912143D
libRbt.so/2013.1/901 2013/11/27
  8  8  0  0  0  0  0  0  0  0999 V2000
    9.8190   11.0445   -1.1167 C   0  0  0  0  0  0  0  0  0  0  0  0
   10.0206   12.3404   -0.8794 N   0  0  0  0  0  0  0  0  0  0  0  0
   10.4217   12.7363    0.3315 C   0  0  0  0  0  0  0  0  0  0  0  0
   10.6378   11.8255    1.3091 N   0  0  0  0  0  0  0  0  0  0  0  0
   10.4253   10.5225    1.0593 C   0  0  0  0  0  0  0  0  0  0  0  0
   10.0191   10.1262   -0.1568 N   0  0  0  0  0  0  0  0  0  0  0  0
   10.6326   14.1813    0.5602 N   0  0  0  0  0  0  0  0  0  0  0  0
    9.4140   10.6819   -2.3557 O   0  0  0  0  0  0  0  0  0  0  0  0
  1  2  1  0  0  0  0
  1  6  1  0  0  0  0
  1  8  2  0  0  0  0
  2  3  1  0  0  0  0
  3  4  2  0  0  0  0
  3  7  1  0  0  0  0
  4  5  1  0  0  0  0
  5  6  2  0  0  0  0
M  END
>  <CHROM.1>
10.15707733,11.67761896,-0.21034758,2.61781958,1.26325991,2.82905350

>  <Name>
ligand

>  <RI>
0

>  <Rbt.Current_Directory>
/home/itssahil/PROJECTS/Mol_Feturizer/Test_systems_manuscript/rnas/3la5

>  <Rbt.Executable>
rbdock ($Id: //depot/dev/client3/rdock/2013.1/src/exe/rbdock.cxx#4 $)

>  <Rbt.Library>
libRbt.so (2013.1, Build901 2013/11/27)

>  <Rbt.Parameter_File>
/export/apps/rDock/src/rDock_2013.1_src/data/scripts/dock_solv.prm

>  <Rbt.Receptor>
prm/pocket_docking_8.prm

>  <SCORE>
-6.74863

>  <SCORE.INTER>
-6.74863

>  <SCORE.INTER.CONST>
1

>  <SCORE.INTER.POLAR>
0

>  <SCORE.INTER.ROT>
0

>  <SCORE.INTER.SOLV>
8.70289

>  <SCORE.INTER.VDW>
-11.0001

>  <SCORE.INTER.norm>
-0.843579

>  <SCORE.INTRA>
0

>  <SCORE.INTRA.DIHEDRAL>
0

>  <SCORE.INTRA.DIHEDRAL.0>
0

>  <SCORE.INTRA.POLAR>
0

>  <SCORE.INTRA.POLAR.0>
0

>  <SCORE.INTRA.REPUL>
0

>  <SCORE.INTRA.REPUL.0>
0

>  <SCORE.INTRA.SOLV>
0

>  <SCORE.INTRA.SOLV.lig_0>
-29.58

>  <SCORE.INTRA.VDW>
0

>  <SCORE.INTRA.VDW.0>
0

>  <SCORE.INTRA.norm>
0

>  <SCORE.RESTR>
0

>  <SCORE.RESTR.CAVITY>
0

>  <SCORE.RESTR.norm>
0

>  <SCORE.SYSTEM>
0

>  <SCORE.SYSTEM.CONST>
0

>  <SCORE.SYSTEM.DIHEDRAL>
0

>  <SCORE.SYSTEM.SOLV>
0

>  <SCORE.SYSTEM.norm>
0

>  <SCORE.heavy>
8

>  <SCORE.norm>
-0.843579

>  <RMSD>
3.197

$$$$
ligand
 OpenBabel02271912143D
libRbt.so/2013.1/901 2013/11/27
  8  8  0  0  0  0  0  0  0  0999 V2000
    9.8710   10.9876   -1.2513 C   0  0  0  0  0  0  0  0  0  0  0  0
   10.0253   12.2763   -0.9484 N   0  0  0  0  0  0  0  0  0  0  0  0
   10.3549   12.6279    0.2973 C   0  0  0  0  0  0  0  0  0  0  0  0
   10.5470   11.6803    1.2444 N   0  0  0  0  0  0  0  0  0  0  0  0
   10.3827   10.3847    0.9281 C   0  0  0  0  0  0  0  0  0  0  0  0
   10.0483   10.0328   -0.3230 N   0  0  0  0  0  0  0  0  0  0  0  0
   10.5147   14.0661    0.5986 N   0  0  0  0  0  0  0  0  0  0  0  0
    9.5381   10.6705   -2.5237 O   0  0  0  0  0  0  0  0  0  0  0  0
  1  2  1  0  0  0  0
  1  6  1  0  0  0  0
  1  8  2  0  0  0  0
  2  3  1  0  0  0  0
  3  4  2  0  0  0  0
  3  7  1  0  0  0  0
  4  5  1  0  0  0  0
  5  6  2  0  0  0  0
M  END
>  <CHROM.1>
10.14639314,11.58806178,-0.30244335,2.57495219,1.31865784,2.91413628

>  <Name>
ligand

>  <RI>
0

>  <Rbt.Current_Directory>
/home/itssahil/PROJECTS/Mol_Feturizer/Test_systems_manuscript/rnas/3la5

>  <Rbt.Executable>
rbdock ($Id: //depot/dev/client3/rdock/2013.1/src/exe/rbdock.cxx#4 $)

>  <Rbt.Library>
libRbt.so (2013.1, Build901 2013/11/27)

>  <Rbt.Parameter_File>
/export/apps/rDock/src/rDock_2013.1_src/data/scripts/dock_solv.prm

>  <Rbt.Receptor>
prm/pocket_docking_8.prm

>  <SCORE>
-6.75935

>  <SCORE.INTER>
-6.75935

>  <SCORE.INTER.CONST>
1

>  <SCORE.INTER.POLAR>
0

>  <SCORE.INTER.ROT>
0

>  <SCORE.INTER.SOLV>
8.68527

>  <SCORE.INTER.VDW>
-11.0013

>  <SCORE.INTER.norm>
-0.844919

>  <SCORE.INTRA>
0

>  <SCORE.INTRA.DIHEDRAL>
0

>  <SCORE.INTRA.DIHEDRAL.0>
0

>  <SCORE.INTRA.POLAR>
0

>  <SCORE.INTRA.POLAR.0>
0

>  <SCORE.INTRA.REPUL>
0

>  <SCORE.INTRA.REPUL.0>
0

>  <SCORE.INTRA.SOLV>
0

>  <SCORE.INTRA.SOLV.lig_0>
-29.58

>  <SCORE.INTRA.VDW>
0

>  <SCORE.INTRA.VDW.0>
0

>  <SCORE.INTRA.norm>
0

>  <SCORE.RESTR>
0

>  <SCORE.RESTR.CAVITY>
0

>  <SCORE.RESTR.norm>
0

>  <SCORE.SYSTEM>
0

>  <SCORE.SYSTEM.CONST>
0

>  <SCORE.SYSTEM.DIHEDRAL>
0

>  <SCORE.SYSTEM.SOLV>
0

>  <SCORE.SYSTEM.norm>
0

>  <SCORE.heavy>
8

>  <SCORE.norm>
-0.844919

>  <RMSD>
3.197

$$$$
ligand
 OpenBabel02271912143D
libRbt.so/2013.1/901 2013/11/27
  8  8  0  0  0  0  0  0  0  0999 V2000
    9.8475   11.0054   -1.2548 C   0  0  0  0  0  0  0  0  0  0  0  0
   10.0157   12.2931   -0.9551 N   0  0  0  0  0  0  0  0  0  0  0  0
   10.3136   12.6470    0.2978 C   0  0  0  0  0  0  0  0  0  0  0  0
   10.4596   11.7024    1.2562 N   0  0  0  0  0  0  0  0  0  0  0  0
   10.2816   10.4080    0.9429 C   0  0  0  0  0  0  0  0  0  0  0  0
    9.9791   10.0538   -0.3157 N   0  0  0  0  0  0  0  0  0  0  0  0
   10.4902   14.0841    0.5950 N   0  0  0  0  0  0  0  0  0  0  0  0
    9.5477   10.6858   -2.5348 O   0  0  0  0  0  0  0  0  0  0  0  0
  1  2  1  0  0  0  0
  1  6  1  0  0  0  0
  1  8  2  0  0  0  0
  2  3  1  0  0  0  0
  3  4  2  0  0  0  0
  3  7  1  0  0  0  0
  4  5  1  0  0  0  0
  5  6  2  0  0  0  0
M  END
>  <CHROM.1>
10.10466857,11.60712124,-0.30162867,2.68363494,1.34293727,2.80215868

>  <Name>
ligand

>  <RI>
0

>  <Rbt.Current_Directory>
/home/itssahil/PROJECTS/Mol_Feturizer/Test_systems_manuscript/rnas/3la5

>  <Rbt.Executable>
rbdock ($Id: //depot/dev/client3/rdock/2013.1/src/exe/rbdock.cxx#4 $)

>  <Rbt.Library>
libRbt.so (2013.1, Build901 2013/11/27)

>  <Rbt.Parameter_File>
/export/apps/rDock/src/rDock_2013.1_src/data/scripts/dock_solv.prm

>  <Rbt.Receptor>
prm/pocket_docking_4.prm

>  <SCORE>
-6.7505

>  <SCORE.INTER>
-6.7505

>  <SCORE.INTER.CONST>
1

>  <SCORE.INTER.POLAR>
0

>  <SCORE.INTER.ROT>
0

>  <SCORE.INTER.SOLV>
8.64138

>  <SCORE.INTER.VDW>
-10.9808

>  <SCORE.INTER.norm>
-0.843812

>  <SCORE.INTRA>
0

>  <SCORE.INTRA.DIHEDRAL>
0

>  <SCORE.INTRA.DIHEDRAL.0>
0

>  <SCORE.INTRA.POLAR>
0

>  <SCORE.INTRA.POLAR.0>
0

>  <SCORE.INTRA.REPUL>
0

>  <SCORE.INTRA.REPUL.0>
0

>  <SCORE.INTRA.SOLV>
0

>  <SCORE.INTRA.SOLV.lig_0>
-29.58

>  <SCORE.INTRA.VDW>
0

>  <SCORE.INTRA.VDW.0>
0

>  <SCORE.INTRA.norm>
0

>  <SCORE.RESTR>
0

>  <SCORE.RESTR.CAVITY>
0

>  <SCORE.RESTR.norm>
0

>  <SCORE.SYSTEM>
0

>  <SCORE.SYSTEM.CONST>
0

>  <SCORE.SYSTEM.DIHEDRAL>
0

>  <SCORE.SYSTEM.SOLV>
0

>  <SCORE.SYSTEM.norm>
0

>  <SCORE.heavy>
8

>  <SCORE.norm>
-0.843812

>  <RMSD>
3.198

$$$$
ligand
 OpenBabel02271912143D
libRbt.so/2013.1/901 2013/11/27
  8  8  0  0  0  0  0  0  0  0999 V2000
    9.8531   11.0022   -1.2538 C   0  0  0  0  0  0  0  0  0  0  0  0
   10.0170   12.2905   -0.9540 N   0  0  0  0  0  0  0  0  0  0  0  0
   10.3235   12.6445    0.2969 C   0  0  0  0  0  0  0  0  0  0  0  0
   10.4825   11.6996    1.2528 N   0  0  0  0  0  0  0  0  0  0  0  0
   10.3088   10.4046    0.9394 C   0  0  0  0  0  0  0  0  0  0  0  0
    9.9977   10.0502   -0.3170 N   0  0  0  0  0  0  0  0  0  0  0  0
   10.4948   14.0822    0.5943 N   0  0  0  0  0  0  0  0  0  0  0  0
    9.5444   10.6826   -2.5316 O   0  0  0  0  0  0  0  0  0  0  0  0
  1  2  1  0  0  0  0
  1  6  1  0  0  0  0
  1  8  2  0  0  0  0
  2  3  1  0  0  0  0
  3  4  2  0  0  0  0
  3  7  1  0  0  0  0
  4  5  1  0  0  0  0
  5  6  2  0  0  0  0
M  END
>  <CHROM.1>
10.11507967,11.60423056,-0.30212247,2.64983200,1.33668171,2.83627370

>  <Name>
ligand

>  <RI>
0

>  <Rbt.Current_Directory>
/home/itssahil/PROJECTS/Mol_Feturizer/Test_systems_manuscript/rnas/3la5

>  <Rbt.Executable>
rbdock ($Id: //depot/dev/client3/rdock/2013.1/src/exe/rbdock.cxx#4 $)

>  <Rbt.Library>
libRbt.so (2013.1, Build901 2013/11/27)

>  <Rbt.Parameter_File>
/export/apps/rDock/src/rDock_2013.1_src/data/scripts/dock_solv.prm

>  <Rbt.Receptor>
prm/pocket_docking_4.prm

>  <SCORE>
-6.75878

>  <SCORE.INTER>
-6.75878

>  <SCORE.INTER.CONST>
1

>  <SCORE.INTER.POLAR>
0

>  <SCORE.INTER.ROT>
0

>  <SCORE.INTER.SOLV>
8.65

>  <SCORE.INTER.VDW>
-10.9892

>  <SCORE.INTER.norm>
-0.844848

>  <SCORE.INTRA>
0

>  <SCORE.INTRA.DIHEDRAL>
0

>  <SCORE.INTRA.DIHEDRAL.0>
0

>  <SCORE.INTRA.POLAR>
0

>  <SCORE.INTRA.POLAR.0>
0

>  <SCORE.INTRA.REPUL>
0

>  <SCORE.INTRA.REPUL.0>
0

>  <SCORE.INTRA.SOLV>
0

>  <SCORE.INTRA.SOLV.lig_0>
-29.58

>  <SCORE.INTRA.VDW>
0

>  <SCORE.INTRA.VDW.0>
0

>  <SCORE.INTRA.norm>
0

>  <SCORE.RESTR>
0

>  <SCORE.RESTR.CAVITY>
0

>  <SCORE.RESTR.norm>
0

>  <SCORE.SYSTEM>
0

>  <SCORE.SYSTEM.CONST>
0

>  <SCORE.SYSTEM.DIHEDRAL>
0

>  <SCORE.SYSTEM.SOLV>
0

>  <SCORE.SYSTEM.norm>
0

>  <SCORE.heavy>
8

>  <SCORE.norm>
-0.844848

>  <RMSD>
3.198

$$$$
ligand
 OpenBabel02271912143D
libRbt.so/2013.1/901 2013/11/27
  8  8  0  0  0  0  0  0  0  0999 V2000
    9.8634   10.9922   -1.2542 C   0  0  0  0  0  0  0  0  0  0  0  0
   10.0097   12.2820   -0.9515 N   0  0  0  0  0  0  0  0  0  0  0  0
   10.3195   12.6367    0.2984 C   0  0  0  0  0  0  0  0  0  0  0  0
   10.4995   11.6914    1.2502 N   0  0  0  0  0  0  0  0  0  0  0  0
   10.3433   10.3949    0.9339 C   0  0  0  0  0  0  0  0  0  0  0  0
   10.0289   10.0397   -0.3214 N   0  0  0  0  0  0  0  0  0  0  0  0
   10.4710   14.0759    0.5992 N   0  0  0  0  0  0  0  0  0  0  0  0
    9.5507   10.6718   -2.5309 O   0  0  0  0  0  0  0  0  0  0  0  0
  1  2  1  0  0  0  0
  1  6  1  0  0  0  0
  1  8  2  0  0  0  0
  2  3  1  0  0  0  0
  3  4  2  0  0  0  0
  3  7  1  0  0  0  0
  4  5  1  0  0  0  0
  5  6  2  0  0  0  0
M  END
>  <CHROM.1>
10.12275988,11.59523011,-0.30243799,2.57912648,1.33407173,2.90813914

>  <Name>
ligand

>  <RI>
0

>  <Rbt.Current_Directory>
/home/itssahil/PROJECTS/Mol_Feturizer/Test_systems_manuscript/rnas/3la5

>  <Rbt.Executable>
rbdock ($Id: //depot/dev/client3/rdock/2013.1/src/exe/rbdock.cxx#4 $)

>  <Rbt.Library>
libRbt.so (2013.1, Build901 2013/11/27)

>  <Rbt.Parameter_File>
/export/apps/rDock/src/rDock_2013.1_src/data/scripts/dock_solv.prm

>  <Rbt.Receptor>
prm/pocket_docking_4.prm

>  <SCORE>
-6.75453

>  <SCORE.INTER>
-6.75453

>  <SCORE.INTER.CONST>
1

>  <SCORE.INTER.POLAR>
0

>  <SCORE.INTER.ROT>
0

>  <SCORE.INTER.SOLV>
8.63585

>  <SCORE.INTER.VDW>
-10.9816

>  <SCORE.INTER.norm>
-0.844317

>  <SCORE.INTRA>
0

>  <SCORE.INTRA.DIHEDRAL>
0

>  <SCORE.INTRA.DIHEDRAL.0>
0

>  <SCORE.INTRA.POLAR>
0

>  <SCORE.INTRA.POLAR.0>
0

>  <SCORE.INTRA.REPUL>
0

>  <SCORE.INTRA.REPUL.0>
0

>  <SCORE.INTRA.SOLV>
0

>  <SCORE.INTRA.SOLV.lig_0>
-29.58

>  <SCORE.INTRA.VDW>
0

>  <SCORE.INTRA.VDW.0>
0

>  <SCORE.INTRA.norm>
0

>  <SCORE.RESTR>
0

>  <SCORE.RESTR.CAVITY>
0

>  <SCORE.RESTR.norm>
0

>  <SCORE.SYSTEM>
0

>  <SCORE.SYSTEM.CONST>
0

>  <SCORE.SYSTEM.DIHEDRAL>
0

>  <SCORE.SYSTEM.SOLV>
0

>  <SCORE.SYSTEM.norm>
0

>  <SCORE.heavy>
8

>  <SCORE.norm>
-0.844317

>  <RMSD>
3.198

$$$$
ligand
 OpenBabel02271912143D
libRbt.so/2013.1/901 2013/11/27
  8  8  0  0  0  0  0  0  0  0999 V2000
    9.8523   11.0263   -1.1320 C   0  0  0  0  0  0  0  0  0  0  0  0
   10.0320   12.3250   -0.8920 N   0  0  0  0  0  0  0  0  0  0  0  0
   10.3932   12.7279    0.3291 C   0  0  0  0  0  0  0  0  0  0  0  0
   10.5912   11.8217    1.3147 N   0  0  0  0  0  0  0  0  0  0  0  0
   10.4011   10.5158    1.0619 C   0  0  0  0  0  0  0  0  0  0  0  0
   10.0349   10.1123   -0.1645 N   0  0  0  0  0  0  0  0  0  0  0  0
   10.5807   14.1757    0.5604 N   0  0  0  0  0  0  0  0  0  0  0  0
    9.4877   10.6566   -2.3813 O   0  0  0  0  0  0  0  0  0  0  0  0
  1  2  1  0  0  0  0
  1  6  1  0  0  0  0
  1  8  2  0  0  0  0
  2  3  1  0  0  0  0
  3  4  2  0  0  0  0
  3  7  1  0  0  0  0
  4  5  1  0  0  0  0
  5  6  2  0  0  0  0
M  END
>  <CHROM.1>
10.15659381,11.66515838,-0.21769738,2.61048006,1.29444497,2.83388282

>  <Name>
ligand

>  <RI>
0

>  <Rbt.Current_Directory>
/home/itssahil/PROJECTS/Mol_Feturizer/Test_systems_manuscript/rnas/3la5

>  <Rbt.Executable>
rbdock ($Id: //depot/dev/client3/rdock/2013.1/src/exe/rbdock.cxx#4 $)

>  <Rbt.Library>
libRbt.so (2013.1, Build901 2013/11/27)

>  <Rbt.Parameter_File>
/export/apps/rDock/src/rDock_2013.1_src/data/scripts/dock_solv.prm

>  <Rbt.Receptor>
prm/pocket_docking_6.prm

>  <SCORE>
-6.75709

>  <SCORE.INTER>
-6.75709

>  <SCORE.INTER.CONST>
1

>  <SCORE.INTER.POLAR>
0

>  <SCORE.INTER.ROT>
0

>  <SCORE.INTER.SOLV>
8.60708

>  <SCORE.INTER.VDW>
-10.9738

>  <SCORE.INTER.norm>
-0.844637

>  <SCORE.INTRA>
0

>  <SCORE.INTRA.DIHEDRAL>
0

>  <SCORE.INTRA.DIHEDRAL.0>
0

>  <SCORE.INTRA.POLAR>
0

>  <SCORE.INTRA.POLAR.0>
0

>  <SCORE.INTRA.REPUL>
0

>  <SCORE.INTRA.REPUL.0>
0

>  <SCORE.INTRA.SOLV>
0

>  <SCORE.INTRA.SOLV.lig_0>
-29.58

>  <SCORE.INTRA.VDW>
0

>  <SCORE.INTRA.VDW.0>
0

>  <SCORE.INTRA.norm>
0

>  <SCORE.RESTR>
0

>  <SCORE.RESTR.CAVITY>
0

>  <SCORE.RESTR.norm>
0

>  <SCORE.SYSTEM>
0

>  <SCORE.SYSTEM.CONST>
0

>  <SCORE.SYSTEM.DIHEDRAL>
0

>  <SCORE.SYSTEM.SOLV>
0

>  <SCORE.SYSTEM.norm>
0

>  <SCORE.heavy>
8

>  <SCORE.norm>
-0.844637

>  <RMSD>
3.198

$$$$
ligand
 OpenBabel02271912143D
libRbt.so/2013.1/901 2013/11/27
  8  8  0  0  0  0  0  0  0  0999 V2000
    9.8493   11.0246   -1.2789 C   0  0  0  0  0  0  0  0  0  0  0  0
   10.0010   12.3114   -0.9667 N   0  0  0  0  0  0  0  0  0  0  0  0
   10.3249   12.6549    0.2827 C   0  0  0  0  0  0  0  0  0  0  0  0
   10.5137   11.7011    1.2243 N   0  0  0  0  0  0  0  0  0  0  0  0
   10.3519   10.4076    0.8986 C   0  0  0  0  0  0  0  0  0  0  0  0
   10.0233   10.0637   -0.3563 N   0  0  0  0  0  0  0  0  0  0  0  0
   10.4821   14.0912    0.5942 N   0  0  0  0  0  0  0  0  0  0  0  0
    9.5221   10.7157   -2.5549 O   0  0  0  0  0  0  0  0  0  0  0  0
  1  2  1  0  0  0  0
  1  6  1  0  0  0  0
  1  8  2  0  0  0  0
  2  3  1  0  0  0  0
  3  4  2  0  0  0  0
  3  7  1  0  0  0  0
  4  5  1  0  0  0  0
  5  6  2  0  0  0  0
M  END
>  <CHROM.1>
10.11993540,11.61891911,-0.32491122,2.57541776,1.32310086,2.92037212

>  <Name>
ligand

>  <RI>
0

>  <Rbt.Current_Directory>
/home/itssahil/PROJECTS/Mol_Feturizer/Test_systems_manuscript/rnas/3la5

>  <Rbt.Executable>
rbdock ($Id: //depot/dev/client3/rdock/2013.1/src/exe/rbdock.cxx#4 $)

>  <Rbt.Library>
libRbt.so (2013.1, Build901 2013/11/27)

>  <Rbt.Parameter_File>
/export/apps/rDock/src/rDock_2013.1_src/data/scripts/dock_solv.prm

>  <Rbt.Receptor>
prm/blind_docking_40.prm

>  <SCORE>
-6.71952

>  <SCORE.INTER>
-6.71952

>  <SCORE.INTER.CONST>
1

>  <SCORE.INTER.POLAR>
0

>  <SCORE.INTER.ROT>
0

>  <SCORE.INTER.SOLV>
8.6796

>  <SCORE.INTER.VDW>
-10.9729

>  <SCORE.INTER.norm>
-0.83994

>  <SCORE.INTRA>
0

>  <SCORE.INTRA.DIHEDRAL>
0

>  <SCORE.INTRA.DIHEDRAL.0>
0

>  <SCORE.INTRA.POLAR>
0

>  <SCORE.INTRA.POLAR.0>
0

>  <SCORE.INTRA.REPUL>
0

>  <SCORE.INTRA.REPUL.0>
0

>  <SCORE.INTRA.SOLV>
0

>  <SCORE.INTRA.SOLV.lig_0>
-29.58

>  <SCORE.INTRA.VDW>
0

>  <SCORE.INTRA.VDW.0>
0

>  <SCORE.INTRA.norm>
0

>  <SCORE.RESTR>
0

>  <SCORE.RESTR.CAVITY>
0

>  <SCORE.RESTR.norm>
0

>  <SCORE.SYSTEM>
0

>  <SCORE.SYSTEM.CONST>
0

>  <SCORE.SYSTEM.DIHEDRAL>
0

>  <SCORE.SYSTEM.SOLV>
0

>  <SCORE.SYSTEM.norm>
0

>  <SCORE.heavy>
8

>  <SCORE.norm>
-0.83994

>  <RMSD>
3.199

$$$$
ligand
 OpenBabel02271912143D
libRbt.so/2013.1/901 2013/11/27
  8  8  0  0  0  0  0  0  0  0999 V2000
    9.8802   11.0135   -1.1877 C   0  0  0  0  0  0  0  0  0  0  0  0
   10.0437   12.3104   -0.9273 N   0  0  0  0  0  0  0  0  0  0  0  0
   10.3722   12.7006    0.3071 C   0  0  0  0  0  0  0  0  0  0  0  0
   10.5537   11.7835    1.2859 N   0  0  0  0  0  0  0  0  0  0  0  0
   10.3801   10.4795    1.0123 C   0  0  0  0  0  0  0  0  0  0  0  0
   10.0468   10.0888   -0.2276 N   0  0  0  0  0  0  0  0  0  0  0  0
   10.5424   14.1467    0.5609 N   0  0  0  0  0  0  0  0  0  0  0  0
    9.5488   10.6568   -2.4500 O   0  0  0  0  0  0  0  0  0  0  0  0
  1  2  1  0  0  0  0
  1  6  1  0  0  0  0
  1  8  2  0  0  0  0
  2  3  1  0  0  0  0
  3  4  2  0  0  0  0
  3  7  1  0  0  0  0
  4  5  1  0  0  0  0
  5  6  2  0  0  0  0
M  END
>  <CHROM.1>
10.15729763,11.64302367,-0.25844118,2.60911401,1.31981479,2.84777146

>  <Name>
ligand

>  <RI>
0

>  <Rbt.Current_Directory>
/home/itssahil/PROJECTS/Mol_Feturizer/Test_systems_manuscript/rnas/3la5

>  <Rbt.Executable>
rbdock ($Id: //depot/dev/client3/rdock/2013.1/src/exe/rbdock.cxx#4 $)

>  <Rbt.Library>
libRbt.so (2013.1, Build901 2013/11/27)

>  <Rbt.Parameter_File>
/export/apps/rDock/src/rDock_2013.1_src/data/scripts/dock_solv.prm

>  <Rbt.Receptor>
prm/pocket_docking_3.prm

>  <SCORE>
-6.67228

>  <SCORE.INTER>
-6.67228

>  <SCORE.INTER.CONST>
1

>  <SCORE.INTER.POLAR>
0

>  <SCORE.INTER.ROT>
0

>  <SCORE.INTER.SOLV>
8.59544

>  <SCORE.INTER.VDW>
-10.9133

>  <SCORE.INTER.norm>
-0.834036

>  <SCORE.INTRA>
0

>  <SCORE.INTRA.DIHEDRAL>
0

>  <SCORE.INTRA.DIHEDRAL.0>
0

>  <SCORE.INTRA.POLAR>
0

>  <SCORE.INTRA.POLAR.0>
0

>  <SCORE.INTRA.REPUL>
0

>  <SCORE.INTRA.REPUL.0>
0

>  <SCORE.INTRA.SOLV>
0

>  <SCORE.INTRA.SOLV.lig_0>
-29.58

>  <SCORE.INTRA.VDW>
0

>  <SCORE.INTRA.VDW.0>
0

>  <SCORE.INTRA.norm>
0

>  <SCORE.RESTR>
0

>  <SCORE.RESTR.CAVITY>
0

>  <SCORE.RESTR.norm>
0

>  <SCORE.SYSTEM>
0

>  <SCORE.SYSTEM.CONST>
0

>  <SCORE.SYSTEM.DIHEDRAL>
0

>  <SCORE.SYSTEM.SOLV>
0

>  <SCORE.SYSTEM.norm>
0

>  <SCORE.heavy>
8

>  <SCORE.norm>
-0.834036

>  <RMSD>
3.199

$$$$
ligand
 OpenBabel02271912143D
libRbt.so/2013.1/901 2013/11/27
  8  8  0  0  0  0  0  0  0  0999 V2000
    9.8790   11.0549   -1.2088 C   0  0  0  0  0  0  0  0  0  0  0  0
   10.0893   12.3453   -0.9499 N   0  0  0  0  0  0  0  0  0  0  0  0
   10.4501   12.7228    0.2795 C   0  0  0  0  0  0  0  0  0  0  0  0
   10.6167   11.7989    1.2544 N   0  0  0  0  0  0  0  0  0  0  0  0
   10.3959   10.5017    0.9825 C   0  0  0  0  0  0  0  0  0  0  0  0
   10.0302   10.1239   -0.2522 N   0  0  0  0  0  0  0  0  0  0  0  0
   10.6720   14.1622    0.5318 N   0  0  0  0  0  0  0  0  0  0  0  0
    9.5159   10.7112   -2.4660 O   0  0  0  0  0  0  0  0  0  0  0  0
  1  2  1  0  0  0  0
  1  6  1  0  0  0  0
  1  8  2  0  0  0  0
  2  3  1  0  0  0  0
  3  4  2  0  0  0  0
  3  7  1  0  0  0  0
  4  5  1  0  0  0  0
  5  6  2  0  0  0  0
M  END
>  <CHROM.1>
10.19145834,11.67369507,-0.28350646,2.70800087,1.29374563,2.75342141

>  <Name>
ligand

>  <RI>
0

>  <Rbt.Current_Directory>
/home/itssahil/PROJECTS/Mol_Feturizer/Test_systems_manuscript/rnas/3la5

>  <Rbt.Executable>
rbdock ($Id: //depot/dev/client3/rdock/2013.1/src/exe/rbdock.cxx#4 $)

>  <Rbt.Library>
libRbt.so (2013.1, Build901 2013/11/27)

>  <Rbt.Parameter_File>
/export/apps/rDock/src/rDock_2013.1_src/data/scripts/dock_solv.prm

>  <Rbt.Receptor>
prm/pocket_docking_8.prm

>  <SCORE>
-6.74692

>  <SCORE.INTER>
-6.74692

>  <SCORE.INTER.CONST>
1

>  <SCORE.INTER.POLAR>
0

>  <SCORE.INTER.ROT>
0

>  <SCORE.INTER.SOLV>
8.81098

>  <SCORE.INTER.VDW>
-11.0349

>  <SCORE.INTER.norm>
-0.843364

>  <SCORE.INTRA>
0

>  <SCORE.INTRA.DIHEDRAL>
0

>  <SCORE.INTRA.DIHEDRAL.0>
0

>  <SCORE.INTRA.POLAR>
0

>  <SCORE.INTRA.POLAR.0>
0

>  <SCORE.INTRA.REPUL>
0

>  <SCORE.INTRA.REPUL.0>
0

>  <SCORE.INTRA.SOLV>
0

>  <SCORE.INTRA.SOLV.lig_0>
-29.58

>  <SCORE.INTRA.VDW>
0

>  <SCORE.INTRA.VDW.0>
0

>  <SCORE.INTRA.norm>
0

>  <SCORE.RESTR>
0

>  <SCORE.RESTR.CAVITY>
0

>  <SCORE.RESTR.norm>
0

>  <SCORE.SYSTEM>
0

>  <SCORE.SYSTEM.CONST>
0

>  <SCORE.SYSTEM.DIHEDRAL>
0

>  <SCORE.SYSTEM.SOLV>
0

>  <SCORE.SYSTEM.norm>
0

>  <SCORE.heavy>
8

>  <SCORE.norm>
-0.843364

>  <RMSD>
3.199

$$$$
ligand
 OpenBabel02271912143D
libRbt.so/2013.1/901 2013/11/27
  8  8  0  0  0  0  0  0  0  0999 V2000
    9.8481   11.0318   -1.1329 C   0  0  0  0  0  0  0  0  0  0  0  0
   10.0264   12.3306   -0.8929 N   0  0  0  0  0  0  0  0  0  0  0  0
   10.3905   12.7337    0.3274 C   0  0  0  0  0  0  0  0  0  0  0  0
   10.5929   11.8274    1.3120 N   0  0  0  0  0  0  0  0  0  0  0  0
   10.4042   10.5213    1.0592 C   0  0  0  0  0  0  0  0  0  0  0  0
   10.0351   10.1177   -0.1663 N   0  0  0  0  0  0  0  0  0  0  0  0
   10.5762   14.1816    0.5587 N   0  0  0  0  0  0  0  0  0  0  0  0
    9.4805   10.6620   -2.3813 O   0  0  0  0  0  0  0  0  0  0  0  0
  1  2  1  0  0  0  0
  1  6  1  0  0  0  0
  1  8  2  0  0  0  0
  2  3  1  0  0  0  0
  3  4  2  0  0  0  0
  3  7  1  0  0  0  0
  4  5  1  0  0  0  0
  5  6  2  0  0  0  0
M  END
>  <CHROM.1>
10.15403656,11.67073903,-0.21918388,2.60142770,1.29213854,2.84301527

>  <Name>
ligand

>  <RI>
0

>  <Rbt.Current_Directory>
/home/itssahil/PROJECTS/Mol_Feturizer/Test_systems_manuscript/rnas/3la5

>  <Rbt.Executable>
rbdock ($Id: //depot/dev/client3/rdock/2013.1/src/exe/rbdock.cxx#4 $)

>  <Rbt.Library>
libRbt.so (2013.1, Build901 2013/11/27)

>  <Rbt.Parameter_File>
/export/apps/rDock/src/rDock_2013.1_src/data/scripts/dock_solv.prm

>  <Rbt.Receptor>
prm/pocket_docking_8.prm

>  <SCORE>
-6.7587

>  <SCORE.INTER>
-6.7587

>  <SCORE.INTER.CONST>
1

>  <SCORE.INTER.POLAR>
0

>  <SCORE.INTER.ROT>
0

>  <SCORE.INTER.SOLV>
8.60139

>  <SCORE.INTER.VDW>
-10.9729

>  <SCORE.INTER.norm>
-0.844838

>  <SCORE.INTRA>
0

>  <SCORE.INTRA.DIHEDRAL>
0

>  <SCORE.INTRA.DIHEDRAL.0>
0

>  <SCORE.INTRA.POLAR>
0

>  <SCORE.INTRA.POLAR.0>
0

>  <SCORE.INTRA.REPUL>
0

>  <SCORE.INTRA.REPUL.0>
0

>  <SCORE.INTRA.SOLV>
0

>  <SCORE.INTRA.SOLV.lig_0>
-29.58

>  <SCORE.INTRA.VDW>
0

>  <SCORE.INTRA.VDW.0>
0

>  <SCORE.INTRA.norm>
0

>  <SCORE.RESTR>
0

>  <SCORE.RESTR.CAVITY>
0

>  <SCORE.RESTR.norm>
0

>  <SCORE.SYSTEM>
0

>  <SCORE.SYSTEM.CONST>
0

>  <SCORE.SYSTEM.DIHEDRAL>
0

>  <SCORE.SYSTEM.SOLV>
0

>  <SCORE.SYSTEM.norm>
0

>  <SCORE.heavy>
8

>  <SCORE.norm>
-0.844838

>  <RMSD>
3.199

$$$$
ligand
 OpenBabel02271912143D
libRbt.so/2013.1/901 2013/11/27
  8  8  0  0  0  0  0  0  0  0999 V2000
    9.8616   10.9983   -1.2635 C   0  0  0  0  0  0  0  0  0  0  0  0
   10.0081   12.2874   -0.9586 N   0  0  0  0  0  0  0  0  0  0  0  0
   10.3217   12.6398    0.2910 C   0  0  0  0  0  0  0  0  0  0  0  0
   10.5054   11.6926    1.2402 N   0  0  0  0  0  0  0  0  0  0  0  0
   10.3490   10.3967    0.9218 C   0  0  0  0  0  0  0  0  0  0  0  0
   10.0307   10.0439   -0.3333 N   0  0  0  0  0  0  0  0  0  0  0  0
   10.4733   14.0784    0.5943 N   0  0  0  0  0  0  0  0  0  0  0  0
    9.5449   10.6803   -2.5399 O   0  0  0  0  0  0  0  0  0  0  0  0
  1  2  1  0  0  0  0
  1  6  1  0  0  0  0
  1  8  2  0  0  0  0
  2  3  1  0  0  0  0
  3  4  2  0  0  0  0
  3  7  1  0  0  0  0
  4  5  1  0  0  0  0
  5  6  2  0  0  0  0
M  END
>  <CHROM.1>
10.12366494,11.59942670,-0.31137918,2.57343499,1.33105008,2.91575666

>  <Name>
ligand

>  <RI>
0

>  <Rbt.Current_Directory>
/home/itssahil/PROJECTS/Mol_Feturizer/Test_systems_manuscript/rnas/3la5

>  <Rbt.Executable>
rbdock ($Id: //depot/dev/client3/rdock/2013.1/src/exe/rbdock.cxx#4 $)

>  <Rbt.Library>
libRbt.so (2013.1, Build901 2013/11/27)

>  <Rbt.Parameter_File>
/export/apps/rDock/src/rDock_2013.1_src/data/scripts/dock_solv.prm

>  <Rbt.Receptor>
prm/blind_docking_60.prm

>  <SCORE>
-6.73632

>  <SCORE.INTER>
-6.73632

>  <SCORE.INTER.CONST>
1

>  <SCORE.INTER.POLAR>
0

>  <SCORE.INTER.ROT>
0

>  <SCORE.INTER.SOLV>
8.65039

>  <SCORE.INTER.VDW>
-10.9743

>  <SCORE.INTER.norm>
-0.84204

>  <SCORE.INTRA>
0

>  <SCORE.INTRA.DIHEDRAL>
0

>  <SCORE.INTRA.DIHEDRAL.0>
0

>  <SCORE.INTRA.POLAR>
0

>  <SCORE.INTRA.POLAR.0>
0

>  <SCORE.INTRA.REPUL>
0

>  <SCORE.INTRA.REPUL.0>
0

>  <SCORE.INTRA.SOLV>
0

>  <SCORE.INTRA.SOLV.lig_0>
-29.58

>  <SCORE.INTRA.VDW>
0

>  <SCORE.INTRA.VDW.0>
0

>  <SCORE.INTRA.norm>
0

>  <SCORE.RESTR>
0

>  <SCORE.RESTR.CAVITY>
0

>  <SCORE.RESTR.norm>
0

>  <SCORE.SYSTEM>
0

>  <SCORE.SYSTEM.CONST>
0

>  <SCORE.SYSTEM.DIHEDRAL>
0

>  <SCORE.SYSTEM.SOLV>
0

>  <SCORE.SYSTEM.norm>
0

>  <SCORE.heavy>
8

>  <SCORE.norm>
-0.84204

>  <RMSD>
3.200

$$$$
ligand
 OpenBabel02271912143D
libRbt.so/2013.1/901 2013/11/27
  8  8  0  0  0  0  0  0  0  0999 V2000
    9.9332   11.0185   -0.6003 C   0  0  0  0  0  0  0  0  0  0  0  0
   10.0818   12.3424   -0.5585 N   0  0  0  0  0  0  0  0  0  0  0  0
   10.5814   12.9173    0.5387 C   0  0  0  0  0  0  0  0  0  0  0  0
   10.9500   12.1591    1.5975 N   0  0  0  0  0  0  0  0  0  0  0  0
   10.7898   10.8261    1.5455 C   0  0  0  0  0  0  0  0  0  0  0  0
   10.2846   10.2497    0.4439 N   0  0  0  0  0  0  0  0  0  0  0  0
   10.7295   14.3879    0.5515 N   0  0  0  0  0  0  0  0  0  0  0  0
    9.4250   10.4725   -1.7290 O   0  0  0  0  0  0  0  0  0  0  0  0
  1  2  1  0  0  0  0
  1  6  1  0  0  0  0
  1  8  2  0  0  0  0
  2  3  1  0  0  0  0
  3  4  2  0  0  0  0
  3  7  1  0  0  0  0
  4  5  1  0  0  0  0
  5  6  2  0  0  0  0
M  END
>  <CHROM.1>
10.32503307,11.78387286,0.17264094,2.38953318,1.17373152,2.90894671

>  <Name>
ligand

>  <RI>
0

>  <Rbt.Current_Directory>
/home/itssahil/PROJECTS/Mol_Feturizer/Test_systems_manuscript/rnas/3la5

>  <Rbt.Executable>
rbdock ($Id: //depot/dev/client3/rdock/2013.1/src/exe/rbdock.cxx#4 $)

>  <Rbt.Library>
libRbt.so (2013.1, Build901 2013/11/27)

>  <Rbt.Parameter_File>
/export/apps/rDock/src/rDock_2013.1_src/data/scripts/dock_solv.prm

>  <Rbt.Receptor>
prm/pocket_docking_3.prm

>  <SCORE>
-6.5448

>  <SCORE.INTER>
-6.5448

>  <SCORE.INTER.CONST>
1

>  <SCORE.INTER.POLAR>
0

>  <SCORE.INTER.ROT>
0

>  <SCORE.INTER.SOLV>
8.32799

>  <SCORE.INTER.VDW>
-10.7392

>  <SCORE.INTER.norm>
-0.8181

>  <SCORE.INTRA>
0

>  <SCORE.INTRA.DIHEDRAL>
0

>  <SCORE.INTRA.DIHEDRAL.0>
0

>  <SCORE.INTRA.POLAR>
0

>  <SCORE.INTRA.POLAR.0>
0

>  <SCORE.INTRA.REPUL>
0

>  <SCORE.INTRA.REPUL.0>
0

>  <SCORE.INTRA.SOLV>
0

>  <SCORE.INTRA.SOLV.lig_0>
-29.58

>  <SCORE.INTRA.VDW>
0

>  <SCORE.INTRA.VDW.0>
0

>  <SCORE.INTRA.norm>
0

>  <SCORE.RESTR>
0

>  <SCORE.RESTR.CAVITY>
0

>  <SCORE.RESTR.norm>
0

>  <SCORE.SYSTEM>
0

>  <SCORE.SYSTEM.CONST>
0

>  <SCORE.SYSTEM.DIHEDRAL>
0

>  <SCORE.SYSTEM.SOLV>
0

>  <SCORE.SYSTEM.norm>
0

>  <SCORE.heavy>
8

>  <SCORE.norm>
-0.8181

>  <RMSD>
3.200

$$$$
ligand
 OpenBabel02271912143D
libRbt.so/2013.1/901 2013/11/27
  8  8  0  0  0  0  0  0  0  0999 V2000
    9.8846   11.0609   -1.2403 C   0  0  0  0  0  0  0  0  0  0  0  0
   10.0939   12.3494   -0.9709 N   0  0  0  0  0  0  0  0  0  0  0  0
   10.4454   12.7180    0.2638 C   0  0  0  0  0  0  0  0  0  0  0  0
   10.6039   11.7873    1.2336 N   0  0  0  0  0  0  0  0  0  0  0  0
   10.3842   10.4922    0.9511 C   0  0  0  0  0  0  0  0  0  0  0  0
   10.0278   10.1232   -0.2890 N   0  0  0  0  0  0  0  0  0  0  0  0
   10.6665   14.1555    0.5277 N   0  0  0  0  0  0  0  0  0  0  0  0
    9.5311   10.7261   -2.5026 O   0  0  0  0  0  0  0  0  0  0  0  0
  1  2  1  0  0  0  0
  1  6  1  0  0  0  0
  1  8  2  0  0  0  0
  2  3  1  0  0  0  0
  3  4  2  0  0  0  0
  3  7  1  0  0  0  0
  4  5  1  0  0  0  0
  5  6  2  0  0  0  0
M  END
>  <CHROM.1>
10.19039137,11.67305815,-0.30837120,2.72148658,1.30059494,2.74733429

>  <Name>
ligand

>  <RI>
0

>  <Rbt.Current_Directory>
/home/itssahil/PROJECTS/Mol_Feturizer/Test_systems_manuscript/rnas/3la5

>  <Rbt.Executable>
rbdock ($Id: //depot/dev/client3/rdock/2013.1/src/exe/rbdock.cxx#4 $)

>  <Rbt.Library>
libRbt.so (2013.1, Build901 2013/11/27)

>  <Rbt.Parameter_File>
/export/apps/rDock/src/rDock_2013.1_src/data/scripts/dock_solv.prm

>  <Rbt.Receptor>
prm/pocket_docking_7.prm

>  <SCORE>
-6.74039

>  <SCORE.INTER>
-6.74039

>  <SCORE.INTER.CONST>
1

>  <SCORE.INTER.POLAR>
0

>  <SCORE.INTER.ROT>
0

>  <SCORE.INTER.SOLV>
8.8333

>  <SCORE.INTER.VDW>
-11.038

>  <SCORE.INTER.norm>
-0.842549

>  <SCORE.INTRA>
0

>  <SCORE.INTRA.DIHEDRAL>
0

>  <SCORE.INTRA.DIHEDRAL.0>
0

>  <SCORE.INTRA.POLAR>
0

>  <SCORE.INTRA.POLAR.0>
0

>  <SCORE.INTRA.REPUL>
0

>  <SCORE.INTRA.REPUL.0>
0

>  <SCORE.INTRA.SOLV>
0

>  <SCORE.INTRA.SOLV.lig_0>
-29.58

>  <SCORE.INTRA.VDW>
0

>  <SCORE.INTRA.VDW.0>
0

>  <SCORE.INTRA.norm>
0

>  <SCORE.RESTR>
0

>  <SCORE.RESTR.CAVITY>
0

>  <SCORE.RESTR.norm>
0

>  <SCORE.SYSTEM>
0

>  <SCORE.SYSTEM.CONST>
0

>  <SCORE.SYSTEM.DIHEDRAL>
0

>  <SCORE.SYSTEM.SOLV>
0

>  <SCORE.SYSTEM.norm>
0

>  <SCORE.heavy>
8

>  <SCORE.norm>
-0.842549

>  <RMSD>
3.200

$$$$
ligand
 OpenBabel02271912143D
libRbt.so/2013.1/901 2013/11/27
  8  8  0  0  0  0  0  0  0  0999 V2000
    9.8153   11.0446   -1.1126 C   0  0  0  0  0  0  0  0  0  0  0  0
   10.0187   12.3416   -0.8828 N   0  0  0  0  0  0  0  0  0  0  0  0
   10.4117   12.7448    0.3284 C   0  0  0  0  0  0  0  0  0  0  0  0
   10.6178   11.8403    1.3139 N   0  0  0  0  0  0  0  0  0  0  0  0
   10.4035   10.5362    1.0715 C   0  0  0  0  0  0  0  0  0  0  0  0
   10.0054   10.1325   -0.1448 N   0  0  0  0  0  0  0  0  0  0  0  0
   10.6249   14.1907    0.5486 N   0  0  0  0  0  0  0  0  0  0  0  0
    9.4188   10.6745   -2.3521 O   0  0  0  0  0  0  0  0  0  0  0  0
  1  2  1  0  0  0  0
  1  6  1  0  0  0  0
  1  8  2  0  0  0  0
  2  3  1  0  0  0  0
  3  4  2  0  0  0  0
  3  7  1  0  0  0  0
  4  5  1  0  0  0  0
  5  6  2  0  0  0  0
M  END
>  <CHROM.1>
10.14823702,11.68310345,-0.20809638,2.63480893,1.26961407,2.80587849

>  <Name>
ligand

>  <RI>
0

>  <Rbt.Current_Directory>
/home/itssahil/PROJECTS/Mol_Feturizer/Test_systems_manuscript/rnas/3la5

>  <Rbt.Executable>
rbdock ($Id: //depot/dev/client3/rdock/2013.1/src/exe/rbdock.cxx#4 $)

>  <Rbt.Library>
libRbt.so (2013.1, Build901 2013/11/27)

>  <Rbt.Parameter_File>
/export/apps/rDock/src/rDock_2013.1_src/data/scripts/dock_solv.prm

>  <Rbt.Receptor>
prm/blind_docking_60.prm

>  <SCORE>
-6.74206

>  <SCORE.INTER>
-6.74206

>  <SCORE.INTER.CONST>
1

>  <SCORE.INTER.POLAR>
0

>  <SCORE.INTER.ROT>
0

>  <SCORE.INTER.SOLV>
8.68356

>  <SCORE.INTER.VDW>
-10.9892

>  <SCORE.INTER.norm>
-0.842758

>  <SCORE.INTRA>
0

>  <SCORE.INTRA.DIHEDRAL>
0

>  <SCORE.INTRA.DIHEDRAL.0>
0

>  <SCORE.INTRA.POLAR>
0

>  <SCORE.INTRA.POLAR.0>
0

>  <SCORE.INTRA.REPUL>
0

>  <SCORE.INTRA.REPUL.0>
0

>  <SCORE.INTRA.SOLV>
0

>  <SCORE.INTRA.SOLV.lig_0>
-29.58

>  <SCORE.INTRA.VDW>
0

>  <SCORE.INTRA.VDW.0>
0

>  <SCORE.INTRA.norm>
0

>  <SCORE.RESTR>
0

>  <SCORE.RESTR.CAVITY>
0

>  <SCORE.RESTR.norm>
0

>  <SCORE.SYSTEM>
0

>  <SCORE.SYSTEM.CONST>
0

>  <SCORE.SYSTEM.DIHEDRAL>
0

>  <SCORE.SYSTEM.SOLV>
0

>  <SCORE.SYSTEM.norm>
0

>  <SCORE.heavy>
8

>  <SCORE.norm>
-0.842758

>  <RMSD>
3.201

$$$$
ligand
 OpenBabel02271912143D
libRbt.so/2013.1/901 2013/11/27
  8  8  0  0  0  0  0  0  0  0999 V2000
    9.8473   11.0110   -1.1901 C   0  0  0  0  0  0  0  0  0  0  0  0
   10.0228   12.3040   -0.9183 N   0  0  0  0  0  0  0  0  0  0  0  0
   10.4105   12.6759    0.3045 C   0  0  0  0  0  0  0  0  0  0  0  0
   10.6394   11.7444    1.2594 N   0  0  0  0  0  0  0  0  0  0  0  0
   10.4532   10.4445    0.9749 C   0  0  0  0  0  0  0  0  0  0  0  0
   10.0604   10.0721   -0.2532 N   0  0  0  0  0  0  0  0  0  0  0  0
   10.5924   14.1182    0.5716 N   0  0  0  0  0  0  0  0  0  0  0  0
    9.4553   10.6730   -2.4401 O   0  0  0  0  0  0  0  0  0  0  0  0
  1  2  1  0  0  0  0
  1  6  1  0  0  0  0
  1  8  2  0  0  0  0
  2  3  1  0  0  0  0
  3  4  2  0  0  0  0
  3  7  1  0  0  0  0
  4  5  1  0  0  0  0
  5  6  2  0  0  0  0
M  END
>  <CHROM.1>
10.16881798,11.62676207,-0.26586497,2.56034320,1.27323483,2.90980605

>  <Name>
ligand

>  <RI>
0

>  <Rbt.Current_Directory>
/home/itssahil/PROJECTS/Mol_Feturizer/Test_systems_manuscript/rnas/3la5

>  <Rbt.Executable>
rbdock ($Id: //depot/dev/client3/rdock/2013.1/src/exe/rbdock.cxx#4 $)

>  <Rbt.Library>
libRbt.so (2013.1, Build901 2013/11/27)

>  <Rbt.Parameter_File>
/export/apps/rDock/src/rDock_2013.1_src/data/scripts/dock_solv.prm

>  <Rbt.Receptor>
prm/blind_docking_80.prm

>  <SCORE>
-6.71456

>  <SCORE.INTER>
-6.71456

>  <SCORE.INTER.CONST>
1

>  <SCORE.INTER.POLAR>
0

>  <SCORE.INTER.ROT>
0

>  <SCORE.INTER.SOLV>
8.74506

>  <SCORE.INTER.VDW>
-10.9914

>  <SCORE.INTER.norm>
-0.83932

>  <SCORE.INTRA>
0

>  <SCORE.INTRA.DIHEDRAL>
0

>  <SCORE.INTRA.DIHEDRAL.0>
0

>  <SCORE.INTRA.POLAR>
0

>  <SCORE.INTRA.POLAR.0>
0

>  <SCORE.INTRA.REPUL>
0

>  <SCORE.INTRA.REPUL.0>
0

>  <SCORE.INTRA.SOLV>
0

>  <SCORE.INTRA.SOLV.lig_0>
-29.58

>  <SCORE.INTRA.VDW>
0

>  <SCORE.INTRA.VDW.0>
0

>  <SCORE.INTRA.norm>
0

>  <SCORE.RESTR>
0

>  <SCORE.RESTR.CAVITY>
0

>  <SCORE.RESTR.norm>
0

>  <SCORE.SYSTEM>
0

>  <SCORE.SYSTEM.CONST>
0

>  <SCORE.SYSTEM.DIHEDRAL>
0

>  <SCORE.SYSTEM.SOLV>
0

>  <SCORE.SYSTEM.norm>
0

>  <SCORE.heavy>
8

>  <SCORE.norm>
-0.83932

>  <RMSD>
3.201

$$$$
ligand
 OpenBabel02271912143D
libRbt.so/2013.1/901 2013/11/27
  8  8  0  0  0  0  0  0  0  0999 V2000
    9.8414   11.1094   -1.2757 C   0  0  0  0  0  0  0  0  0  0  0  0
   10.0749   12.3917   -0.9973 N   0  0  0  0  0  0  0  0  0  0  0  0
   10.3972   12.7498    0.2485 C   0  0  0  0  0  0  0  0  0  0  0  0
   10.5017   11.8141    1.2209 N   0  0  0  0  0  0  0  0  0  0  0  0
   10.2581   10.5254    0.9290 C   0  0  0  0  0  0  0  0  0  0  0  0
    9.9311   10.1671   -0.3223 N   0  0  0  0  0  0  0  0  0  0  0  0
   10.6463   14.1808    0.5220 N   0  0  0  0  0  0  0  0  0  0  0  0
    9.5189   10.7852   -2.5490 O   0  0  0  0  0  0  0  0  0  0  0  0
  1  2  1  0  0  0  0
  1  6  1  0  0  0  0
  1  8  2  0  0  0  0
  2  3  1  0  0  0  0
  3  4  2  0  0  0  0
  3  7  1  0  0  0  0
  4  5  1  0  0  0  0
  5  6  2  0  0  0  0
M  END
>  <CHROM.1>
10.13356257,11.71236358,-0.33346632,2.86292627,1.31710311,2.61233542

>  <Name>
ligand

>  <RI>
0

>  <Rbt.Current_Directory>
/home/itssahil/PROJECTS/Mol_Feturizer/Test_systems_manuscript/rnas/3la5

>  <Rbt.Executable>
rbdock ($Id: //depot/dev/client3/rdock/2013.1/src/exe/rbdock.cxx#4 $)

>  <Rbt.Library>
libRbt.so (2013.1, Build901 2013/11/27)

>  <Rbt.Parameter_File>
/export/apps/rDock/src/rDock_2013.1_src/data/scripts/dock_solv.prm

>  <Rbt.Receptor>
prm/pocket_docking_3.prm

>  <SCORE>
-6.73618

>  <SCORE.INTER>
-6.73618

>  <SCORE.INTER.CONST>
1

>  <SCORE.INTER.POLAR>
0

>  <SCORE.INTER.ROT>
0

>  <SCORE.INTER.SOLV>
8.80498

>  <SCORE.INTER.VDW>
-11.0258

>  <SCORE.INTER.norm>
-0.842022

>  <SCORE.INTRA>
0

>  <SCORE.INTRA.DIHEDRAL>
0

>  <SCORE.INTRA.DIHEDRAL.0>
0

>  <SCORE.INTRA.POLAR>
0

>  <SCORE.INTRA.POLAR.0>
0

>  <SCORE.INTRA.REPUL>
0

>  <SCORE.INTRA.REPUL.0>
0

>  <SCORE.INTRA.SOLV>
0

>  <SCORE.INTRA.SOLV.lig_0>
-29.58

>  <SCORE.INTRA.VDW>
0

>  <SCORE.INTRA.VDW.0>
0

>  <SCORE.INTRA.norm>
0

>  <SCORE.RESTR>
0

>  <SCORE.RESTR.CAVITY>
0

>  <SCORE.RESTR.norm>
0

>  <SCORE.SYSTEM>
0

>  <SCORE.SYSTEM.CONST>
0

>  <SCORE.SYSTEM.DIHEDRAL>
0

>  <SCORE.SYSTEM.SOLV>
0

>  <SCORE.SYSTEM.norm>
0

>  <SCORE.heavy>
8

>  <SCORE.norm>
-0.842022

>  <RMSD>
3.201

$$$$
ligand
 OpenBabel02271912143D
libRbt.so/2013.1/901 2013/11/27
  8  8  0  0  0  0  0  0  0  0999 V2000
    9.8560   10.9941   -1.2511 C   0  0  0  0  0  0  0  0  0  0  0  0
   10.0124   12.2837   -0.9528 N   0  0  0  0  0  0  0  0  0  0  0  0
   10.3302   12.6399    0.2946 C   0  0  0  0  0  0  0  0  0  0  0  0
   10.5080   11.6961    1.2484 N   0  0  0  0  0  0  0  0  0  0  0  0
   10.3416   10.3998    0.9366 C   0  0  0  0  0  0  0  0  0  0  0  0
   10.0191   10.0432   -0.3163 N   0  0  0  0  0  0  0  0  0  0  0  0
   10.4929   14.0789    0.5906 N   0  0  0  0  0  0  0  0  0  0  0  0
    9.5353   10.6722   -2.5254 O   0  0  0  0  0  0  0  0  0  0  0  0
  1  2  1  0  0  0  0
  1  6  1  0  0  0  0
  1  8  2  0  0  0  0
  2  3  1  0  0  0  0
  3  4  2  0  0  0  0
  3  7  1  0  0  0  0
  4  5  1  0  0  0  0
  5  6  2  0  0  0  0
M  END
>  <CHROM.1>
10.12367239,11.59806495,-0.30226287,2.60239002,1.32805923,2.88265863

>  <Name>
ligand

>  <RI>
0

>  <Rbt.Current_Directory>
/home/itssahil/PROJECTS/Mol_Feturizer/Test_systems_manuscript/rnas/3la5

>  <Rbt.Executable>
rbdock ($Id: //depot/dev/client3/rdock/2013.1/src/exe/rbdock.cxx#4 $)

>  <Rbt.Library>
libRbt.so (2013.1, Build901 2013/11/27)

>  <Rbt.Parameter_File>
/export/apps/rDock/src/rDock_2013.1_src/data/scripts/dock_solv.prm

>  <Rbt.Receptor>
prm/pocket_docking_3.prm

>  <SCORE>
-6.75803

>  <SCORE.INTER>
-6.75803

>  <SCORE.INTER.CONST>
1

>  <SCORE.INTER.POLAR>
0

>  <SCORE.INTER.ROT>
0

>  <SCORE.INTER.SOLV>
8.6591

>  <SCORE.INTER.VDW>
-10.9917

>  <SCORE.INTER.norm>
-0.844754

>  <SCORE.INTRA>
0

>  <SCORE.INTRA.DIHEDRAL>
0

>  <SCORE.INTRA.DIHEDRAL.0>
0

>  <SCORE.INTRA.POLAR>
0

>  <SCORE.INTRA.POLAR.0>
0

>  <SCORE.INTRA.REPUL>
0

>  <SCORE.INTRA.REPUL.0>
0

>  <SCORE.INTRA.SOLV>
0

>  <SCORE.INTRA.SOLV.lig_0>
-29.58

>  <SCORE.INTRA.VDW>
0

>  <SCORE.INTRA.VDW.0>
0

>  <SCORE.INTRA.norm>
0

>  <SCORE.RESTR>
0

>  <SCORE.RESTR.CAVITY>
0

>  <SCORE.RESTR.norm>
0

>  <SCORE.SYSTEM>
0

>  <SCORE.SYSTEM.CONST>
0

>  <SCORE.SYSTEM.DIHEDRAL>
0

>  <SCORE.SYSTEM.SOLV>
0

>  <SCORE.SYSTEM.norm>
0

>  <SCORE.heavy>
8

>  <SCORE.norm>
-0.844754

>  <RMSD>
3.201

$$$$
ligand
 OpenBabel02271912143D
libRbt.so/2013.1/901 2013/11/27
  8  8  0  0  0  0  0  0  0  0999 V2000
    9.8619   10.9972   -1.2478 C   0  0  0  0  0  0  0  0  0  0  0  0
   10.0161   12.2879   -0.9532 N   0  0  0  0  0  0  0  0  0  0  0  0
   10.3279   12.6487    0.2944 C   0  0  0  0  0  0  0  0  0  0  0  0
   10.5020   11.7083    1.2522 N   0  0  0  0  0  0  0  0  0  0  0  0
   10.3379   10.4108    0.9442 C   0  0  0  0  0  0  0  0  0  0  0  0
   10.0214   10.0496   -0.3090 N   0  0  0  0  0  0  0  0  0  0  0  0
   10.4884   14.0888    0.5862 N   0  0  0  0  0  0  0  0  0  0  0  0
    9.5473   10.6707   -2.5224 O   0  0  0  0  0  0  0  0  0  0  0  0
  1  2  1  0  0  0  0
  1  6  1  0  0  0  0
  1  8  2  0  0  0  0
  2  3  1  0  0  0  0
  3  4  2  0  0  0  0
  3  7  1  0  0  0  0
  4  5  1  0  0  0  0
  5  6  2  0  0  0  0
M  END
>  <CHROM.1>
10.12484947,11.60462958,-0.29979883,2.60468609,1.33263501,2.87697692

>  <Name>
ligand

>  <RI>
0

>  <Rbt.Current_Directory>
/home/itssahil/PROJECTS/Mol_Feturizer/Test_systems_manuscript/rnas/3la5

>  <Rbt.Executable>
rbdock ($Id: //depot/dev/client3/rdock/2013.1/src/exe/rbdock.cxx#4 $)

>  <Rbt.Library>
libRbt.so (2013.1, Build901 2013/11/27)

>  <Rbt.Parameter_File>
/export/apps/rDock/src/rDock_2013.1_src/data/scripts/dock_solv.prm

>  <Rbt.Receptor>
prm/pocket_docking_4.prm

>  <SCORE>
-6.76095

>  <SCORE.INTER>
-6.76095

>  <SCORE.INTER.CONST>
1

>  <SCORE.INTER.POLAR>
0

>  <SCORE.INTER.ROT>
0

>  <SCORE.INTER.SOLV>
8.64084

>  <SCORE.INTER.VDW>
-10.9876

>  <SCORE.INTER.norm>
-0.845119

>  <SCORE.INTRA>
0

>  <SCORE.INTRA.DIHEDRAL>
0

>  <SCORE.INTRA.DIHEDRAL.0>
0

>  <SCORE.INTRA.POLAR>
0

>  <SCORE.INTRA.POLAR.0>
0

>  <SCORE.INTRA.REPUL>
0

>  <SCORE.INTRA.REPUL.0>
0

>  <SCORE.INTRA.SOLV>
0

>  <SCORE.INTRA.SOLV.lig_0>
-29.58

>  <SCORE.INTRA.VDW>
0

>  <SCORE.INTRA.VDW.0>
0

>  <SCORE.INTRA.norm>
0

>  <SCORE.RESTR>
0

>  <SCORE.RESTR.CAVITY>
0

>  <SCORE.RESTR.norm>
0

>  <SCORE.SYSTEM>
0

>  <SCORE.SYSTEM.CONST>
0

>  <SCORE.SYSTEM.DIHEDRAL>
0

>  <SCORE.SYSTEM.SOLV>
0

>  <SCORE.SYSTEM.norm>
0

>  <SCORE.heavy>
8

>  <SCORE.norm>
-0.845119

>  <RMSD>
3.201

$$$$
ligand
 OpenBabel02271912143D
libRbt.so/2013.1/901 2013/11/27
  8  8  0  0  0  0  0  0  0  0999 V2000
    9.8808   11.0177   -1.1728 C   0  0  0  0  0  0  0  0  0  0  0  0
   10.0816   12.3116   -0.9242 N   0  0  0  0  0  0  0  0  0  0  0  0
   10.4542   12.7001    0.2981 C   0  0  0  0  0  0  0  0  0  0  0  0
   10.6426   11.7837    1.2763 N   0  0  0  0  0  0  0  0  0  0  0  0
   10.4313   10.4828    1.0149 C   0  0  0  0  0  0  0  0  0  0  0  0
   10.0537   10.0939   -0.2128 N   0  0  0  0  0  0  0  0  0  0  0  0
   10.6650   14.1431    0.5390 N   0  0  0  0  0  0  0  0  0  0  0  0
    9.5052   10.6627   -2.4231 O   0  0  0  0  0  0  0  0  0  0  0  0
  1  2  1  0  0  0  0
  1  6  1  0  0  0  0
  1  8  2  0  0  0  0
  2  3  1  0  0  0  0
  3  4  2  0  0  0  0
  3  7  1  0  0  0  0
  4  5  1  0  0  0  0
  5  6  2  0  0  0  0
M  END
>  <CHROM.1>
10.19893996,11.64506666,-0.25527512,2.65780491,1.28532047,2.79567613

>  <Name>
ligand

>  <RI>
0

>  <Rbt.Current_Directory>
/home/itssahil/PROJECTS/Mol_Feturizer/Test_systems_manuscript/rnas/3la5

>  <Rbt.Executable>
rbdock ($Id: //depot/dev/client3/rdock/2013.1/src/exe/rbdock.cxx#4 $)

>  <Rbt.Library>
libRbt.so (2013.1, Build901 2013/11/27)

>  <Rbt.Parameter_File>
/export/apps/rDock/src/rDock_2013.1_src/data/scripts/dock_solv.prm

>  <Rbt.Receptor>
prm/pocket_docking_7.prm

>  <SCORE>
-6.72918

>  <SCORE.INTER>
-6.72918

>  <SCORE.INTER.CONST>
1

>  <SCORE.INTER.POLAR>
0

>  <SCORE.INTER.ROT>
0

>  <SCORE.INTER.SOLV>
8.7962

>  <SCORE.INTER.VDW>
-11.0182

>  <SCORE.INTER.norm>
-0.841147

>  <SCORE.INTRA>
0

>  <SCORE.INTRA.DIHEDRAL>
0

>  <SCORE.INTRA.DIHEDRAL.0>
0

>  <SCORE.INTRA.POLAR>
0

>  <SCORE.INTRA.POLAR.0>
0

>  <SCORE.INTRA.REPUL>
0

>  <SCORE.INTRA.REPUL.0>
0

>  <SCORE.INTRA.SOLV>
0

>  <SCORE.INTRA.SOLV.lig_0>
-29.58

>  <SCORE.INTRA.VDW>
0

>  <SCORE.INTRA.VDW.0>
0

>  <SCORE.INTRA.norm>
0

>  <SCORE.RESTR>
0

>  <SCORE.RESTR.CAVITY>
0

>  <SCORE.RESTR.norm>
0

>  <SCORE.SYSTEM>
0

>  <SCORE.SYSTEM.CONST>
0

>  <SCORE.SYSTEM.DIHEDRAL>
0

>  <SCORE.SYSTEM.SOLV>
0

>  <SCORE.SYSTEM.norm>
0

>  <SCORE.heavy>
8

>  <SCORE.norm>
-0.841147

>  <RMSD>
3.201

$$$$
ligand
 OpenBabel02271912143D
libRbt.so/2013.1/901 2013/11/27
  8  8  0  0  0  0  0  0  0  0999 V2000
    9.8554   10.9911   -1.2497 C   0  0  0  0  0  0  0  0  0  0  0  0
   10.0125   12.2805   -0.9510 N   0  0  0  0  0  0  0  0  0  0  0  0
   10.3379   12.6357    0.2948 C   0  0  0  0  0  0  0  0  0  0  0  0
   10.5226   11.6911    1.2464 N   0  0  0  0  0  0  0  0  0  0  0  0
   10.3554   10.3949    0.9343 C   0  0  0  0  0  0  0  0  0  0  0  0
   10.0253   10.0393   -0.3170 N   0  0  0  0  0  0  0  0  0  0  0  0
   10.5011   14.0745    0.5913 N   0  0  0  0  0  0  0  0  0  0  0  0
    9.5269   10.6703   -2.5223 O   0  0  0  0  0  0  0  0  0  0  0  0
  1  2  1  0  0  0  0
  1  6  1  0  0  0  0
  1  8  2  0  0  0  0
  2  3  1  0  0  0  0
  3  4  2  0  0  0  0
  3  7  1  0  0  0  0
  4  5  1  0  0  0  0
  5  6  2  0  0  0  0
M  END
>  <CHROM.1>
10.12854550,11.59428402,-0.30190926,2.59220930,1.32214144,2.89360682

>  <Name>
ligand

>  <RI>
0

>  <Rbt.Current_Directory>
/home/itssahil/PROJECTS/Mol_Feturizer/Test_systems_manuscript/rnas/3la5

>  <Rbt.Executable>
rbdock ($Id: //depot/dev/client3/rdock/2013.1/src/exe/rbdock.cxx#4 $)

>  <Rbt.Library>
libRbt.so (2013.1, Build901 2013/11/27)

>  <Rbt.Parameter_File>
/export/apps/rDock/src/rDock_2013.1_src/data/scripts/dock_solv.prm

>  <Rbt.Receptor>
prm/pocket_docking_8.prm

>  <SCORE>
-6.75734

>  <SCORE.INTER>
-6.75734

>  <SCORE.INTER.CONST>
1

>  <SCORE.INTER.POLAR>
0

>  <SCORE.INTER.ROT>
0

>  <SCORE.INTER.SOLV>
8.67309

>  <SCORE.INTER.VDW>
-10.9959

>  <SCORE.INTER.norm>
-0.844667

>  <SCORE.INTRA>
0

>  <SCORE.INTRA.DIHEDRAL>
0

>  <SCORE.INTRA.DIHEDRAL.0>
0

>  <SCORE.INTRA.POLAR>
0

>  <SCORE.INTRA.POLAR.0>
0

>  <SCORE.INTRA.REPUL>
0

>  <SCORE.INTRA.REPUL.0>
0

>  <SCORE.INTRA.SOLV>
0

>  <SCORE.INTRA.SOLV.lig_0>
-29.58

>  <SCORE.INTRA.VDW>
0

>  <SCORE.INTRA.VDW.0>
0

>  <SCORE.INTRA.norm>
0

>  <SCORE.RESTR>
0

>  <SCORE.RESTR.CAVITY>
0

>  <SCORE.RESTR.norm>
0

>  <SCORE.SYSTEM>
0

>  <SCORE.SYSTEM.CONST>
0

>  <SCORE.SYSTEM.DIHEDRAL>
0

>  <SCORE.SYSTEM.SOLV>
0

>  <SCORE.SYSTEM.norm>
0

>  <SCORE.heavy>
8

>  <SCORE.norm>
-0.844667

>  <RMSD>
3.201

$$$$
ligand
 OpenBabel02271912143D
libRbt.so/2013.1/901 2013/11/27
  8  8  0  0  0  0  0  0  0  0999 V2000
    9.8507   10.9923   -1.2501 C   0  0  0  0  0  0  0  0  0  0  0  0
   10.0120   12.2814   -0.9522 N   0  0  0  0  0  0  0  0  0  0  0  0
   10.3360   12.6365    0.2939 C   0  0  0  0  0  0  0  0  0  0  0  0
   10.5152   11.6920    1.2467 N   0  0  0  0  0  0  0  0  0  0  0  0
   10.3438   10.3962    0.9354 C   0  0  0  0  0  0  0  0  0  0  0  0
   10.0150   10.0407   -0.3162 N   0  0  0  0  0  0  0  0  0  0  0  0
   10.5040   14.0749    0.5895 N   0  0  0  0  0  0  0  0  0  0  0  0
    9.5238   10.6715   -2.5232 O   0  0  0  0  0  0  0  0  0  0  0  0
  1  2  1  0  0  0  0
  1  6  1  0  0  0  0
  1  8  2  0  0  0  0
  2  3  1  0  0  0  0
  3  4  2  0  0  0  0
  3  7  1  0  0  0  0
  4  5  1  0  0  0  0
  5  6  2  0  0  0  0
M  END
>  <CHROM.1>
10.12406495,11.59531465,-0.30228774,2.60918577,1.32328637,2.87625856

>  <Name>
ligand

>  <RI>
0

>  <Rbt.Current_Directory>
/home/itssahil/PROJECTS/Mol_Feturizer/Test_systems_manuscript/rnas/3la5

>  <Rbt.Executable>
rbdock ($Id: //depot/dev/client3/rdock/2013.1/src/exe/rbdock.cxx#4 $)

>  <Rbt.Library>
libRbt.so (2013.1, Build901 2013/11/27)

>  <Rbt.Parameter_File>
/export/apps/rDock/src/rDock_2013.1_src/data/scripts/dock_solv.prm

>  <Rbt.Receptor>
prm/pocket_docking_8.prm

>  <SCORE>
-6.75601

>  <SCORE.INTER>
-6.75601

>  <SCORE.INTER.CONST>
1

>  <SCORE.INTER.POLAR>
0

>  <SCORE.INTER.ROT>
0

>  <SCORE.INTER.SOLV>
8.67579

>  <SCORE.INTER.VDW>
-10.9959

>  <SCORE.INTER.norm>
-0.844501

>  <SCORE.INTRA>
0

>  <SCORE.INTRA.DIHEDRAL>
0

>  <SCORE.INTRA.DIHEDRAL.0>
0

>  <SCORE.INTRA.POLAR>
0

>  <SCORE.INTRA.POLAR.0>
0

>  <SCORE.INTRA.REPUL>
0

>  <SCORE.INTRA.REPUL.0>
0

>  <SCORE.INTRA.SOLV>
0

>  <SCORE.INTRA.SOLV.lig_0>
-29.58

>  <SCORE.INTRA.VDW>
0

>  <SCORE.INTRA.VDW.0>
0

>  <SCORE.INTRA.norm>
0

>  <SCORE.RESTR>
0

>  <SCORE.RESTR.CAVITY>
0

>  <SCORE.RESTR.norm>
0

>  <SCORE.SYSTEM>
0

>  <SCORE.SYSTEM.CONST>
0

>  <SCORE.SYSTEM.DIHEDRAL>
0

>  <SCORE.SYSTEM.SOLV>
0

>  <SCORE.SYSTEM.norm>
0

>  <SCORE.heavy>
8

>  <SCORE.norm>
-0.844501

>  <RMSD>
3.201

$$$$
ligand
 OpenBabel02271912143D
libRbt.so/2013.1/901 2013/11/27
  8  8  0  0  0  0  0  0  0  0999 V2000
    9.8662   11.0424   -1.1739 C   0  0  0  0  0  0  0  0  0  0  0  0
   10.1010   12.3331   -0.9384 N   0  0  0  0  0  0  0  0  0  0  0  0
   10.4457   12.7290    0.2897 C   0  0  0  0  0  0  0  0  0  0  0  0
   10.5717   11.8231    1.2874 N   0  0  0  0  0  0  0  0  0  0  0  0
   10.3266   10.5256    1.0388 C   0  0  0  0  0  0  0  0  0  0  0  0
    9.9770   10.1293   -0.1948 N   0  0  0  0  0  0  0  0  0  0  0  0
   10.6956   14.1682    0.5157 N   0  0  0  0  0  0  0  0  0  0  0  0
    9.5205   10.6795   -2.4305 O   0  0  0  0  0  0  0  0  0  0  0  0
  1  2  1  0  0  0  0
  1  6  1  0  0  0  0
  1  8  2  0  0  0  0
  2  3  1  0  0  0  0
  3  4  2  0  0  0  0
  3  7  1  0  0  0  0
  4  5  1  0  0  0  0
  5  6  2  0  0  0  0
M  END
>  <CHROM.1>
10.17435550,11.67400406,-0.25584922,2.81652767,1.30196825,2.62729784

>  <Name>
ligand

>  <RI>
0

>  <Rbt.Current_Directory>
/home/itssahil/PROJECTS/Mol_Feturizer/Test_systems_manuscript/rnas/3la5

>  <Rbt.Executable>
rbdock ($Id: //depot/dev/client3/rdock/2013.1/src/exe/rbdock.cxx#4 $)

>  <Rbt.Library>
libRbt.so (2013.1, Build901 2013/11/27)

>  <Rbt.Parameter_File>
/export/apps/rDock/src/rDock_2013.1_src/data/scripts/dock_solv.prm

>  <Rbt.Receptor>
prm/blind_docking_40.prm

>  <SCORE>
-6.72559

>  <SCORE.INTER>
-6.72559

>  <SCORE.INTER.CONST>
1

>  <SCORE.INTER.POLAR>
0

>  <SCORE.INTER.ROT>
0

>  <SCORE.INTER.SOLV>
8.83544

>  <SCORE.INTER.VDW>
-11.0289

>  <SCORE.INTER.norm>
-0.840699

>  <SCORE.INTRA>
0

>  <SCORE.INTRA.DIHEDRAL>
0

>  <SCORE.INTRA.DIHEDRAL.0>
0

>  <SCORE.INTRA.POLAR>
0

>  <SCORE.INTRA.POLAR.0>
0

>  <SCORE.INTRA.REPUL>
0

>  <SCORE.INTRA.REPUL.0>
0

>  <SCORE.INTRA.SOLV>
0

>  <SCORE.INTRA.SOLV.lig_0>
-29.58

>  <SCORE.INTRA.VDW>
0

>  <SCORE.INTRA.VDW.0>
0

>  <SCORE.INTRA.norm>
0

>  <SCORE.RESTR>
0

>  <SCORE.RESTR.CAVITY>
0

>  <SCORE.RESTR.norm>
0

>  <SCORE.SYSTEM>
0

>  <SCORE.SYSTEM.CONST>
0

>  <SCORE.SYSTEM.DIHEDRAL>
0

>  <SCORE.SYSTEM.SOLV>
0

>  <SCORE.SYSTEM.norm>
0

>  <SCORE.heavy>
8

>  <SCORE.norm>
-0.840699

>  <RMSD>
3.202

$$$$
ligand
 OpenBabel02271912143D
libRbt.so/2013.1/901 2013/11/27
  8  8  0  0  0  0  0  0  0  0999 V2000
    9.9417   11.0203   -0.5908 C   0  0  0  0  0  0  0  0  0  0  0  0
   10.0945   12.3439   -0.5571 N   0  0  0  0  0  0  0  0  0  0  0  0
   10.5975   12.9238    0.5359 C   0  0  0  0  0  0  0  0  0  0  0  0
   10.9653   12.1708    1.5987 N   0  0  0  0  0  0  0  0  0  0  0  0
   10.8008   10.8380    1.5548 C   0  0  0  0  0  0  0  0  0  0  0  0
   10.2922   10.2567    0.4574 N   0  0  0  0  0  0  0  0  0  0  0  0
   10.7502   14.3940    0.5397 N   0  0  0  0  0  0  0  0  0  0  0  0
    9.4301   10.4692   -1.7155 O   0  0  0  0  0  0  0  0  0  0  0  0
  1  2  1  0  0  0  0
  1  6  1  0  0  0  0
  1  8  2  0  0  0  0
  2  3  1  0  0  0  0
  3  4  2  0  0  0  0
  3  7  1  0  0  0  0
  4  5  1  0  0  0  0
  5  6  2  0  0  0  0
M  END
>  <CHROM.1>
10.33702938,11.78904542,0.17696642,2.39657093,1.17158634,2.89649514

>  <Name>
ligand

>  <RI>
0

>  <Rbt.Current_Directory>
/home/itssahil/PROJECTS/Mol_Feturizer/Test_systems_manuscript/rnas/3la5

>  <Rbt.Executable>
rbdock ($Id: //depot/dev/client3/rdock/2013.1/src/exe/rbdock.cxx#4 $)

>  <Rbt.Library>
libRbt.so (2013.1, Build901 2013/11/27)

>  <Rbt.Parameter_File>
/export/apps/rDock/src/rDock_2013.1_src/data/scripts/dock_solv.prm

>  <Rbt.Receptor>
prm/pocket_docking_5.prm

>  <SCORE>
-6.50092

>  <SCORE.INTER>
-6.50092

>  <SCORE.INTER.CONST>
1

>  <SCORE.INTER.POLAR>
0

>  <SCORE.INTER.ROT>
0

>  <SCORE.INTER.SOLV>
8.36273

>  <SCORE.INTER.VDW>
-10.7215

>  <SCORE.INTER.norm>
-0.812615

>  <SCORE.INTRA>
0

>  <SCORE.INTRA.DIHEDRAL>
0

>  <SCORE.INTRA.DIHEDRAL.0>
0

>  <SCORE.INTRA.POLAR>
0

>  <SCORE.INTRA.POLAR.0>
0

>  <SCORE.INTRA.REPUL>
0

>  <SCORE.INTRA.REPUL.0>
0

>  <SCORE.INTRA.SOLV>
0

>  <SCORE.INTRA.SOLV.lig_0>
-29.58

>  <SCORE.INTRA.VDW>
0

>  <SCORE.INTRA.VDW.0>
0

>  <SCORE.INTRA.norm>
0

>  <SCORE.RESTR>
0

>  <SCORE.RESTR.CAVITY>
0

>  <SCORE.RESTR.norm>
0

>  <SCORE.SYSTEM>
0

>  <SCORE.SYSTEM.CONST>
0

>  <SCORE.SYSTEM.DIHEDRAL>
0

>  <SCORE.SYSTEM.SOLV>
0

>  <SCORE.SYSTEM.norm>
0

>  <SCORE.heavy>
8

>  <SCORE.norm>
-0.812615

>  <RMSD>
3.202

$$$$
ligand
 OpenBabel02271912143D
libRbt.so/2013.1/901 2013/11/27
  8  8  0  0  0  0  0  0  0  0999 V2000
    9.8273   11.0418   -1.1153 C   0  0  0  0  0  0  0  0  0  0  0  0
   10.0275   12.3395   -0.8865 N   0  0  0  0  0  0  0  0  0  0  0  0
   10.4310   12.7434    0.3210 C   0  0  0  0  0  0  0  0  0  0  0  0
   10.6510   11.8390    1.3037 N   0  0  0  0  0  0  0  0  0  0  0  0
   10.4399   10.5342    1.0624 C   0  0  0  0  0  0  0  0  0  0  0  0
   10.0313   10.1297   -0.1503 N   0  0  0  0  0  0  0  0  0  0  0  0
   10.6402   14.1901    0.5403 N   0  0  0  0  0  0  0  0  0  0  0  0
    9.4199   10.6710   -2.3510 O   0  0  0  0  0  0  0  0  0  0  0  0
  1  2  1  0  0  0  0
  1  6  1  0  0  0  0
  1  8  2  0  0  0  0
  2  3  1  0  0  0  0
  3  4  2  0  0  0  0
  3  7  1  0  0  0  0
  4  5  1  0  0  0  0
  5  6  2  0  0  0  0
M  END
>  <CHROM.1>
10.16670456,11.68101540,-0.21367448,2.61044818,1.26138078,2.82992244

>  <Name>
ligand

>  <RI>
0

>  <Rbt.Current_Directory>
/home/itssahil/PROJECTS/Mol_Feturizer/Test_systems_manuscript/rnas/3la5

>  <Rbt.Executable>
rbdock ($Id: //depot/dev/client3/rdock/2013.1/src/exe/rbdock.cxx#4 $)

>  <Rbt.Library>
libRbt.so (2013.1, Build901 2013/11/27)

>  <Rbt.Parameter_File>
/export/apps/rDock/src/rDock_2013.1_src/data/scripts/dock_solv.prm

>  <Rbt.Receptor>
prm/blind_docking_60.prm

>  <SCORE>
-6.78179

>  <SCORE.INTER>
-6.78179

>  <SCORE.INTER.CONST>
1

>  <SCORE.INTER.POLAR>
0

>  <SCORE.INTER.ROT>
0

>  <SCORE.INTER.SOLV>
8.71448

>  <SCORE.INTER.VDW>
-11.026

>  <SCORE.INTER.norm>
-0.847723

>  <SCORE.INTRA>
0

>  <SCORE.INTRA.DIHEDRAL>
0

>  <SCORE.INTRA.DIHEDRAL.0>
0

>  <SCORE.INTRA.POLAR>
0

>  <SCORE.INTRA.POLAR.0>
0

>  <SCORE.INTRA.REPUL>
0

>  <SCORE.INTRA.REPUL.0>
0

>  <SCORE.INTRA.SOLV>
0

>  <SCORE.INTRA.SOLV.lig_0>
-29.58

>  <SCORE.INTRA.VDW>
0

>  <SCORE.INTRA.VDW.0>
0

>  <SCORE.INTRA.norm>
0

>  <SCORE.RESTR>
0

>  <SCORE.RESTR.CAVITY>
0

>  <SCORE.RESTR.norm>
0

>  <SCORE.SYSTEM>
0

>  <SCORE.SYSTEM.CONST>
0

>  <SCORE.SYSTEM.DIHEDRAL>
0

>  <SCORE.SYSTEM.SOLV>
0

>  <SCORE.SYSTEM.norm>
0

>  <SCORE.heavy>
8

>  <SCORE.norm>
-0.847723

>  <RMSD>
3.203

$$$$
ligand
 OpenBabel02271912143D
libRbt.so/2013.1/901 2013/11/27
  8  8  0  0  0  0  0  0  0  0999 V2000
    9.8507   11.0045   -1.2561 C   0  0  0  0  0  0  0  0  0  0  0  0
    9.9988   12.2951   -0.9580 N   0  0  0  0  0  0  0  0  0  0  0  0
   10.3109   12.6538    0.2901 C   0  0  0  0  0  0  0  0  0  0  0  0
   10.4914   11.7115    1.2449 N   0  0  0  0  0  0  0  0  0  0  0  0
   10.3334   10.4141    0.9333 C   0  0  0  0  0  0  0  0  0  0  0  0
   10.0166   10.0550   -0.3204 N   0  0  0  0  0  0  0  0  0  0  0  0
   10.4644   14.0938    0.5858 N   0  0  0  0  0  0  0  0  0  0  0  0
    9.5356   10.6801   -2.5312 O   0  0  0  0  0  0  0  0  0  0  0  0
  1  2  1  0  0  0  0
  1  6  1  0  0  0  0
  1  8  2  0  0  0  0
  2  3  1  0  0  0  0
  3  4  2  0  0  0  0
  3  7  1  0  0  0  0
  4  5  1  0  0  0  0
  5  6  2  0  0  0  0
M  END
>  <CHROM.1>
10.11213112,11.61046122,-0.30682688,2.58192940,1.33229480,2.90200825

>  <Name>
ligand

>  <RI>
0

>  <Rbt.Current_Directory>
/home/itssahil/PROJECTS/Mol_Feturizer/Test_systems_manuscript/rnas/3la5

>  <Rbt.Executable>
rbdock ($Id: //depot/dev/client3/rdock/2013.1/src/exe/rbdock.cxx#4 $)

>  <Rbt.Library>
libRbt.so (2013.1, Build901 2013/11/27)

>  <Rbt.Parameter_File>
/export/apps/rDock/src/rDock_2013.1_src/data/scripts/dock_solv.prm

>  <Rbt.Receptor>
prm/pocket_docking_3.prm

>  <SCORE>
-6.73569

>  <SCORE.INTER>
-6.73569

>  <SCORE.INTER.CONST>
1

>  <SCORE.INTER.POLAR>
0

>  <SCORE.INTER.ROT>
0

>  <SCORE.INTER.SOLV>
8.63447

>  <SCORE.INTER.VDW>
-10.9686

>  <SCORE.INTER.norm>
-0.841961

>  <SCORE.INTRA>
0

>  <SCORE.INTRA.DIHEDRAL>
0

>  <SCORE.INTRA.DIHEDRAL.0>
0

>  <SCORE.INTRA.POLAR>
0

>  <SCORE.INTRA.POLAR.0>
0

>  <SCORE.INTRA.REPUL>
0

>  <SCORE.INTRA.REPUL.0>
0

>  <SCORE.INTRA.SOLV>
0

>  <SCORE.INTRA.SOLV.lig_0>
-29.58

>  <SCORE.INTRA.VDW>
0

>  <SCORE.INTRA.VDW.0>
0

>  <SCORE.INTRA.norm>
0

>  <SCORE.RESTR>
0

>  <SCORE.RESTR.CAVITY>
0

>  <SCORE.RESTR.norm>
0

>  <SCORE.SYSTEM>
0

>  <SCORE.SYSTEM.CONST>
0

>  <SCORE.SYSTEM.DIHEDRAL>
0

>  <SCORE.SYSTEM.SOLV>
0

>  <SCORE.SYSTEM.norm>
0

>  <SCORE.heavy>
8

>  <SCORE.norm>
-0.841961

>  <RMSD>
3.203

$$$$
ligand
 OpenBabel02271912143D
libRbt.so/2013.1/901 2013/11/27
  8  8  0  0  0  0  0  0  0  0999 V2000
    9.8275   11.0310   -1.1175 C   0  0  0  0  0  0  0  0  0  0  0  0
   10.0036   12.3307   -0.8807 N   0  0  0  0  0  0  0  0  0  0  0  0
   10.4079   12.7340    0.3268 C   0  0  0  0  0  0  0  0  0  0  0  0
   10.6529   11.8271    1.3012 N   0  0  0  0  0  0  0  0  0  0  0  0
   10.4660   10.5201    1.0519 C   0  0  0  0  0  0  0  0  0  0  0  0
   10.0566   10.1163   -0.1606 N   0  0  0  0  0  0  0  0  0  0  0  0
   10.5899   14.1829    0.5551 N   0  0  0  0  0  0  0  0  0  0  0  0
    9.4184   10.6610   -2.3529 O   0  0  0  0  0  0  0  0  0  0  0  0
  1  2  1  0  0  0  0
  1  6  1  0  0  0  0
  1  8  2  0  0  0  0
  2  3  1  0  0  0  0
  3  4  2  0  0  0  0
  3  7  1  0  0  0  0
  4  5  1  0  0  0  0
  5  6  2  0  0  0  0
M  END
>  <CHROM.1>
10.16073850,11.67036165,-0.21369444,2.54131786,1.25975131,2.90297677

>  <Name>
ligand

>  <RI>
0

>  <Rbt.Current_Directory>
/home/itssahil/PROJECTS/Mol_Feturizer/Test_systems_manuscript/rnas/3la5

>  <Rbt.Executable>
rbdock ($Id: //depot/dev/client3/rdock/2013.1/src/exe/rbdock.cxx#4 $)

>  <Rbt.Library>
libRbt.so (2013.1, Build901 2013/11/27)

>  <Rbt.Parameter_File>
/export/apps/rDock/src/rDock_2013.1_src/data/scripts/dock_solv.prm

>  <Rbt.Receptor>
prm/pocket_docking_4.prm

>  <SCORE>
-6.77044

>  <SCORE.INTER>
-6.77044

>  <SCORE.INTER.CONST>
1

>  <SCORE.INTER.POLAR>
0

>  <SCORE.INTER.ROT>
0

>  <SCORE.INTER.SOLV>
8.65802

>  <SCORE.INTER.VDW>
-10.9996

>  <SCORE.INTER.norm>
-0.846305

>  <SCORE.INTRA>
0

>  <SCORE.INTRA.DIHEDRAL>
0

>  <SCORE.INTRA.DIHEDRAL.0>
0

>  <SCORE.INTRA.POLAR>
0

>  <SCORE.INTRA.POLAR.0>
0

>  <SCORE.INTRA.REPUL>
0

>  <SCORE.INTRA.REPUL.0>
0

>  <SCORE.INTRA.SOLV>
0

>  <SCORE.INTRA.SOLV.lig_0>
-29.58

>  <SCORE.INTRA.VDW>
0

>  <SCORE.INTRA.VDW.0>
0

>  <SCORE.INTRA.norm>
0

>  <SCORE.RESTR>
0

>  <SCORE.RESTR.CAVITY>
0

>  <SCORE.RESTR.norm>
0

>  <SCORE.SYSTEM>
0

>  <SCORE.SYSTEM.CONST>
0

>  <SCORE.SYSTEM.DIHEDRAL>
0

>  <SCORE.SYSTEM.SOLV>
0

>  <SCORE.SYSTEM.norm>
0

>  <SCORE.heavy>
8

>  <SCORE.norm>
-0.846305

>  <RMSD>
3.203

$$$$
ligand
 OpenBabel02271912143D
libRbt.so/2013.1/901 2013/11/27
  8  8  0  0  0  0  0  0  0  0999 V2000
    9.8374   11.1006   -1.2892 C   0  0  0  0  0  0  0  0  0  0  0  0
   10.0464   12.3853   -1.0026 N   0  0  0  0  0  0  0  0  0  0  0  0
   10.3500   12.7428    0.2480 C   0  0  0  0  0  0  0  0  0  0  0  0
   10.4606   11.8044    1.2171 N   0  0  0  0  0  0  0  0  0  0  0  0
   10.2417   10.5132    0.9168 C   0  0  0  0  0  0  0  0  0  0  0  0
    9.9334   10.1554   -0.3394 N   0  0  0  0  0  0  0  0  0  0  0  0
   10.5723   14.1765    0.5307 N   0  0  0  0  0  0  0  0  0  0  0  0
    9.5331   10.7771   -2.5672 O   0  0  0  0  0  0  0  0  0  0  0  0
  1  2  1  0  0  0  0
  1  6  1  0  0  0  0
  1  8  2  0  0  0  0
  2  3  1  0  0  0  0
  3  4  2  0  0  0  0
  3  7  1  0  0  0  0
  4  5  1  0  0  0  0
  5  6  2  0  0  0  0
M  END
>  <CHROM.1>
10.10982783,11.70387677,-0.34134182,2.82237845,1.33407743,2.65636979

>  <Name>
ligand

>  <RI>
0

>  <Rbt.Current_Directory>
/home/itssahil/PROJECTS/Mol_Feturizer/Test_systems_manuscript/rnas/3la5

>  <Rbt.Executable>
rbdock ($Id: //depot/dev/client3/rdock/2013.1/src/exe/rbdock.cxx#4 $)

>  <Rbt.Library>
libRbt.so (2013.1, Build901 2013/11/27)

>  <Rbt.Parameter_File>
/export/apps/rDock/src/rDock_2013.1_src/data/scripts/dock_solv.prm

>  <Rbt.Receptor>
prm/blind_docking_100.prm

>  <SCORE>
-6.73286

>  <SCORE.INTER>
-6.73286

>  <SCORE.INTER.CONST>
1

>  <SCORE.INTER.POLAR>
0

>  <SCORE.INTER.ROT>
0

>  <SCORE.INTER.SOLV>
8.70456

>  <SCORE.INTER.VDW>
-10.9901

>  <SCORE.INTER.norm>
-0.841607

>  <SCORE.INTRA>
0

>  <SCORE.INTRA.DIHEDRAL>
0

>  <SCORE.INTRA.DIHEDRAL.0>
0

>  <SCORE.INTRA.POLAR>
0

>  <SCORE.INTRA.POLAR.0>
0

>  <SCORE.INTRA.REPUL>
0

>  <SCORE.INTRA.REPUL.0>
0

>  <SCORE.INTRA.SOLV>
0

>  <SCORE.INTRA.SOLV.lig_0>
-29.58

>  <SCORE.INTRA.VDW>
0

>  <SCORE.INTRA.VDW.0>
0

>  <SCORE.INTRA.norm>
0

>  <SCORE.RESTR>
0

>  <SCORE.RESTR.CAVITY>
0

>  <SCORE.RESTR.norm>
0

>  <SCORE.SYSTEM>
0

>  <SCORE.SYSTEM.CONST>
0

>  <SCORE.SYSTEM.DIHEDRAL>
0

>  <SCORE.SYSTEM.SOLV>
0

>  <SCORE.SYSTEM.norm>
0

>  <SCORE.heavy>
8

>  <SCORE.norm>
-0.841607

>  <RMSD>
3.204

$$$$
ligand
 OpenBabel02271912143D
libRbt.so/2013.1/901 2013/11/27
  8  8  0  0  0  0  0  0  0  0999 V2000
    9.8467   11.0988   -1.2725 C   0  0  0  0  0  0  0  0  0  0  0  0
   10.0890   12.3810   -1.0014 N   0  0  0  0  0  0  0  0  0  0  0  0
   10.3987   12.7462    0.2455 C   0  0  0  0  0  0  0  0  0  0  0  0
   10.4817   11.8176    1.2266 N   0  0  0  0  0  0  0  0  0  0  0  0
   10.2294   10.5289    0.9420 C   0  0  0  0  0  0  0  0  0  0  0  0
    9.9151   10.1635   -0.3105 N   0  0  0  0  0  0  0  0  0  0  0  0
   10.6581   14.1770    0.5107 N   0  0  0  0  0  0  0  0  0  0  0  0
    9.5373   10.7673   -2.5471 O   0  0  0  0  0  0  0  0  0  0  0  0
  1  2  1  0  0  0  0
  1  6  1  0  0  0  0
  1  8  2  0  0  0  0
  2  3  1  0  0  0  0
  3  4  2  0  0  0  0
  3  7  1  0  0  0  0
  4  5  1  0  0  0  0
  5  6  2  0  0  0  0
M  END
>  <CHROM.1>
10.13255122,11.70661297,-0.33144381,2.92320458,1.32285130,2.54582485

>  <Name>
ligand

>  <RI>
0

>  <Rbt.Current_Directory>
/home/itssahil/PROJECTS/Mol_Feturizer/Test_systems_manuscript/rnas/3la5

>  <Rbt.Executable>
rbdock ($Id: //depot/dev/client3/rdock/2013.1/src/exe/rbdock.cxx#4 $)

>  <Rbt.Library>
libRbt.so (2013.1, Build901 2013/11/27)

>  <Rbt.Parameter_File>
/export/apps/rDock/src/rDock_2013.1_src/data/scripts/dock_solv.prm

>  <Rbt.Receptor>
prm/pocket_docking_3.prm

>  <SCORE>
-6.72958

>  <SCORE.INTER>
-6.72958

>  <SCORE.INTER.CONST>
1

>  <SCORE.INTER.POLAR>
0

>  <SCORE.INTER.ROT>
0

>  <SCORE.INTER.SOLV>
8.81963

>  <SCORE.INTER.VDW>
-11.0263

>  <SCORE.INTER.norm>
-0.841197

>  <SCORE.INTRA>
0

>  <SCORE.INTRA.DIHEDRAL>
0

>  <SCORE.INTRA.DIHEDRAL.0>
0

>  <SCORE.INTRA.POLAR>
0

>  <SCORE.INTRA.POLAR.0>
0

>  <SCORE.INTRA.REPUL>
0

>  <SCORE.INTRA.REPUL.0>
0

>  <SCORE.INTRA.SOLV>
0

>  <SCORE.INTRA.SOLV.lig_0>
-29.58

>  <SCORE.INTRA.VDW>
0

>  <SCORE.INTRA.VDW.0>
0

>  <SCORE.INTRA.norm>
0

>  <SCORE.RESTR>
0

>  <SCORE.RESTR.CAVITY>
0

>  <SCORE.RESTR.norm>
0

>  <SCORE.SYSTEM>
0

>  <SCORE.SYSTEM.CONST>
0

>  <SCORE.SYSTEM.DIHEDRAL>
0

>  <SCORE.SYSTEM.SOLV>
0

>  <SCORE.SYSTEM.norm>
0

>  <SCORE.heavy>
8

>  <SCORE.norm>
-0.841197

>  <RMSD>
3.204

$$$$
ligand
 OpenBabel02271912143D
libRbt.so/2013.1/901 2013/11/27
  8  8  0  0  0  0  0  0  0  0999 V2000
    9.8176   11.0036   -1.2558 C   0  0  0  0  0  0  0  0  0  0  0  0
    9.9902   12.2912   -0.9581 N   0  0  0  0  0  0  0  0  0  0  0  0
   10.2979   12.6452    0.2925 C   0  0  0  0  0  0  0  0  0  0  0  0
   10.4493   11.7008    1.2502 N   0  0  0  0  0  0  0  0  0  0  0  0
   10.2668   10.4065    0.9389 C   0  0  0  0  0  0  0  0  0  0  0  0
    9.9544   10.0522   -0.3172 N   0  0  0  0  0  0  0  0  0  0  0  0
   10.4791   14.0821    0.5876 N   0  0  0  0  0  0  0  0  0  0  0  0
    9.5079   10.6838   -2.5334 O   0  0  0  0  0  0  0  0  0  0  0  0
  1  2  1  0  0  0  0
  1  6  1  0  0  0  0
  1  8  2  0  0  0  0
  2  3  1  0  0  0  0
  3  4  2  0  0  0  0
  3  7  1  0  0  0  0
  4  5  1  0  0  0  0
  5  6  2  0  0  0  0
M  END
>  <CHROM.1>
10.08278581,11.60534450,-0.30489877,2.68012352,1.33543884,2.80506484

>  <Name>
ligand

>  <RI>
0

>  <Rbt.Current_Directory>
/home/itssahil/PROJECTS/Mol_Feturizer/Test_systems_manuscript/rnas/3la5

>  <Rbt.Executable>
rbdock ($Id: //depot/dev/client3/rdock/2013.1/src/exe/rbdock.cxx#4 $)

>  <Rbt.Library>
libRbt.so (2013.1, Build901 2013/11/27)

>  <Rbt.Parameter_File>
/export/apps/rDock/src/rDock_2013.1_src/data/scripts/dock_solv.prm

>  <Rbt.Receptor>
prm/pocket_docking_3.prm

>  <SCORE>
-6.74974

>  <SCORE.INTER>
-6.74974

>  <SCORE.INTER.CONST>
1

>  <SCORE.INTER.POLAR>
0

>  <SCORE.INTER.ROT>
0

>  <SCORE.INTER.SOLV>
8.66143

>  <SCORE.INTER.VDW>
-10.987

>  <SCORE.INTER.norm>
-0.843718

>  <SCORE.INTRA>
0

>  <SCORE.INTRA.DIHEDRAL>
0

>  <SCORE.INTRA.DIHEDRAL.0>
0

>  <SCORE.INTRA.POLAR>
0

>  <SCORE.INTRA.POLAR.0>
0

>  <SCORE.INTRA.REPUL>
0

>  <SCORE.INTRA.REPUL.0>
0

>  <SCORE.INTRA.SOLV>
0

>  <SCORE.INTRA.SOLV.lig_0>
-29.58

>  <SCORE.INTRA.VDW>
0

>  <SCORE.INTRA.VDW.0>
0

>  <SCORE.INTRA.norm>
0

>  <SCORE.RESTR>
0

>  <SCORE.RESTR.CAVITY>
0

>  <SCORE.RESTR.norm>
0

>  <SCORE.SYSTEM>
0

>  <SCORE.SYSTEM.CONST>
0

>  <SCORE.SYSTEM.DIHEDRAL>
0

>  <SCORE.SYSTEM.SOLV>
0

>  <SCORE.SYSTEM.norm>
0

>  <SCORE.heavy>
8

>  <SCORE.norm>
-0.843718

>  <RMSD>
3.205

$$$$
ligand
 OpenBabel02271912143D
libRbt.so/2013.1/901 2013/11/27
  8  8  0  0  0  0  0  0  0  0999 V2000
    9.8577   11.1021   -1.2556 C   0  0  0  0  0  0  0  0  0  0  0  0
   10.0844   12.3882   -0.9893 N   0  0  0  0  0  0  0  0  0  0  0  0
   10.4358   12.7557    0.2457 C   0  0  0  0  0  0  0  0  0  0  0  0
   10.5765   11.8259    1.2192 N   0  0  0  0  0  0  0  0  0  0  0  0
   10.3394   10.5332    0.9397 C   0  0  0  0  0  0  0  0  0  0  0  0
    9.9832   10.1654   -0.3008 N   0  0  0  0  0  0  0  0  0  0  0  0
   10.6764   14.1906    0.5061 N   0  0  0  0  0  0  0  0  0  0  0  0
    9.5049   10.7683   -2.5184 O   0  0  0  0  0  0  0  0  0  0  0  0
  1  2  1  0  0  0  0
  1  6  1  0  0  0  0
  1  8  2  0  0  0  0
  2  3  1  0  0  0  0
  3  4  2  0  0  0  0
  3  7  1  0  0  0  0
  4  5  1  0  0  0  0
  5  6  2  0  0  0  0
M  END
>  <CHROM.1>
10.16819424,11.71268474,-0.32426863,2.77733033,1.29868963,2.69035609

>  <Name>
ligand

>  <RI>
0

>  <Rbt.Current_Directory>
/home/itssahil/PROJECTS/Mol_Feturizer/Test_systems_manuscript/rnas/3la5

>  <Rbt.Executable>
rbdock ($Id: //depot/dev/client3/rdock/2013.1/src/exe/rbdock.cxx#4 $)

>  <Rbt.Library>
libRbt.so (2013.1, Build901 2013/11/27)

>  <Rbt.Parameter_File>
/export/apps/rDock/src/rDock_2013.1_src/data/scripts/dock_solv.prm

>  <Rbt.Receptor>
prm/pocket_docking_7.prm

>  <SCORE>
-6.72745

>  <SCORE.INTER>
-6.72745

>  <SCORE.INTER.CONST>
1

>  <SCORE.INTER.POLAR>
0

>  <SCORE.INTER.ROT>
0

>  <SCORE.INTER.SOLV>
8.86009

>  <SCORE.INTER.VDW>
-11.0383

>  <SCORE.INTER.norm>
-0.840931

>  <SCORE.INTRA>
0

>  <SCORE.INTRA.DIHEDRAL>
0

>  <SCORE.INTRA.DIHEDRAL.0>
0

>  <SCORE.INTRA.POLAR>
0

>  <SCORE.INTRA.POLAR.0>
0

>  <SCORE.INTRA.REPUL>
0

>  <SCORE.INTRA.REPUL.0>
0

>  <SCORE.INTRA.SOLV>
0

>  <SCORE.INTRA.SOLV.lig_0>
-29.58

>  <SCORE.INTRA.VDW>
0

>  <SCORE.INTRA.VDW.0>
0

>  <SCORE.INTRA.norm>
0

>  <SCORE.RESTR>
0

>  <SCORE.RESTR.CAVITY>
0

>  <SCORE.RESTR.norm>
0

>  <SCORE.SYSTEM>
0

>  <SCORE.SYSTEM.CONST>
0

>  <SCORE.SYSTEM.DIHEDRAL>
0

>  <SCORE.SYSTEM.SOLV>
0

>  <SCORE.SYSTEM.norm>
0

>  <SCORE.heavy>
8

>  <SCORE.norm>
-0.840931

>  <RMSD>
3.205

$$$$
ligand
 OpenBabel02271912143D
libRbt.so/2013.1/901 2013/11/27
  8  8  0  0  0  0  0  0  0  0999 V2000
    9.8657   11.0928   -1.2503 C   0  0  0  0  0  0  0  0  0  0  0  0
   10.0734   12.3825   -0.9854 N   0  0  0  0  0  0  0  0  0  0  0  0
   10.4240   12.7560    0.2481 C   0  0  0  0  0  0  0  0  0  0  0  0
   10.5833   11.8289    1.2213 N   0  0  0  0  0  0  0  0  0  0  0  0
   10.3652   10.5325    0.9433 C   0  0  0  0  0  0  0  0  0  0  0  0
   10.0097   10.1587   -0.2956 N   0  0  0  0  0  0  0  0  0  0  0  0
   10.6433   14.1946    0.5070 N   0  0  0  0  0  0  0  0  0  0  0  0
    9.5130   10.7531   -2.5115 O   0  0  0  0  0  0  0  0  0  0  0  0
  1  2  1  0  0  0  0
  1  6  1  0  0  0  0
  1  8  2  0  0  0  0
  2  3  1  0  0  0  0
  3  4  2  0  0  0  0
  3  7  1  0  0  0  0
  4  5  1  0  0  0  0
  5  6  2  0  0  0  0
M  END
>  <CHROM.1>
10.17046160,11.70863839,-0.32043618,2.71781005,1.30137405,2.74730882

>  <Name>
ligand

>  <RI>
0

>  <Rbt.Current_Directory>
/home/itssahil/PROJECTS/Mol_Feturizer/Test_systems_manuscript/rnas/3la5

>  <Rbt.Executable>
rbdock ($Id: //depot/dev/client3/rdock/2013.1/src/exe/rbdock.cxx#4 $)

>  <Rbt.Library>
libRbt.so (2013.1, Build901 2013/11/27)

>  <Rbt.Parameter_File>
/export/apps/rDock/src/rDock_2013.1_src/data/scripts/dock_solv.prm

>  <Rbt.Receptor>
prm/pocket_docking_6.prm

>  <SCORE>
-6.72308

>  <SCORE.INTER>
-6.72308

>  <SCORE.INTER.CONST>
1

>  <SCORE.INTER.POLAR>
0

>  <SCORE.INTER.ROT>
0

>  <SCORE.INTER.SOLV>
8.79779

>  <SCORE.INTER.VDW>
-11.0146

>  <SCORE.INTER.norm>
-0.840385

>  <SCORE.INTRA>
0

>  <SCORE.INTRA.DIHEDRAL>
0

>  <SCORE.INTRA.DIHEDRAL.0>
0

>  <SCORE.INTRA.POLAR>
0

>  <SCORE.INTRA.POLAR.0>
0

>  <SCORE.INTRA.REPUL>
0

>  <SCORE.INTRA.REPUL.0>
0

>  <SCORE.INTRA.SOLV>
0

>  <SCORE.INTRA.SOLV.lig_0>
-29.58

>  <SCORE.INTRA.VDW>
0

>  <SCORE.INTRA.VDW.0>
0

>  <SCORE.INTRA.norm>
0

>  <SCORE.RESTR>
0

>  <SCORE.RESTR.CAVITY>
0

>  <SCORE.RESTR.norm>
0

>  <SCORE.SYSTEM>
0

>  <SCORE.SYSTEM.CONST>
0

>  <SCORE.SYSTEM.DIHEDRAL>
0

>  <SCORE.SYSTEM.SOLV>
0

>  <SCORE.SYSTEM.norm>
0

>  <SCORE.heavy>
8

>  <SCORE.norm>
-0.840385

>  <RMSD>
3.206

$$$$
ligand
 OpenBabel02271912143D
libRbt.so/2013.1/901 2013/11/27
  8  8  0  0  0  0  0  0  0  0999 V2000
    9.8482   10.9836   -1.2458 C   0  0  0  0  0  0  0  0  0  0  0  0
    9.9929   12.2751   -0.9503 N   0  0  0  0  0  0  0  0  0  0  0  0
   10.3219   12.6362    0.2928 C   0  0  0  0  0  0  0  0  0  0  0  0
   10.5231   11.6954    1.2448 N   0  0  0  0  0  0  0  0  0  0  0  0
   10.3684   10.3969    0.9360 C   0  0  0  0  0  0  0  0  0  0  0  0
   10.0345   10.0354   -0.3125 N   0  0  0  0  0  0  0  0  0  0  0  0
   10.4710   14.0773    0.5857 N   0  0  0  0  0  0  0  0  0  0  0  0
    9.5155   10.6567   -2.5158 O   0  0  0  0  0  0  0  0  0  0  0  0
  1  2  1  0  0  0  0
  1  6  1  0  0  0  0
  1  8  2  0  0  0  0
  2  3  1  0  0  0  0
  3  4  2  0  0  0  0
  3  7  1  0  0  0  0
  4  5  1  0  0  0  0
  5  6  2  0  0  0  0
M  END
>  <CHROM.1>
10.12054659,11.59145654,-0.30079327,2.54282374,1.31858152,2.93965811

>  <Name>
ligand

>  <RI>
0

>  <Rbt.Current_Directory>
/home/itssahil/PROJECTS/Mol_Feturizer/Test_systems_manuscript/rnas/3la5

>  <Rbt.Executable>
rbdock ($Id: //depot/dev/client3/rdock/2013.1/src/exe/rbdock.cxx#4 $)

>  <Rbt.Library>
libRbt.so (2013.1, Build901 2013/11/27)

>  <Rbt.Parameter_File>
/export/apps/rDock/src/rDock_2013.1_src/data/scripts/dock_solv.prm

>  <Rbt.Receptor>
prm/pocket_docking_8.prm

>  <SCORE>
-6.74344

>  <SCORE.INTER>
-6.74344

>  <SCORE.INTER.CONST>
1

>  <SCORE.INTER.POLAR>
0

>  <SCORE.INTER.ROT>
0

>  <SCORE.INTER.SOLV>
8.65607

>  <SCORE.INTER.VDW>
-10.981

>  <SCORE.INTER.norm>
-0.84293

>  <SCORE.INTRA>
0

>  <SCORE.INTRA.DIHEDRAL>
0

>  <SCORE.INTRA.DIHEDRAL.0>
0

>  <SCORE.INTRA.POLAR>
0

>  <SCORE.INTRA.POLAR.0>
0

>  <SCORE.INTRA.REPUL>
0

>  <SCORE.INTRA.REPUL.0>
0

>  <SCORE.INTRA.SOLV>
0

>  <SCORE.INTRA.SOLV.lig_0>
-29.58

>  <SCORE.INTRA.VDW>
0

>  <SCORE.INTRA.VDW.0>
0

>  <SCORE.INTRA.norm>
0

>  <SCORE.RESTR>
0

>  <SCORE.RESTR.CAVITY>
0

>  <SCORE.RESTR.norm>
0

>  <SCORE.SYSTEM>
0

>  <SCORE.SYSTEM.CONST>
0

>  <SCORE.SYSTEM.DIHEDRAL>
0

>  <SCORE.SYSTEM.SOLV>
0

>  <SCORE.SYSTEM.norm>
0

>  <SCORE.heavy>
8

>  <SCORE.norm>
-0.84293

>  <RMSD>
3.206

$$$$
ligand
 OpenBabel02271912143D
libRbt.so/2013.1/901 2013/11/27
  8  8  0  0  0  0  0  0  0  0999 V2000
    9.8873   11.0649   -1.2343 C   0  0  0  0  0  0  0  0  0  0  0  0
   10.0997   12.3578   -0.9901 N   0  0  0  0  0  0  0  0  0  0  0  0
   10.4394   12.7512    0.2402 C   0  0  0  0  0  0  0  0  0  0  0  0
   10.5828   11.8407    1.2314 N   0  0  0  0  0  0  0  0  0  0  0  0
   10.3601   10.5409    0.9741 C   0  0  0  0  0  0  0  0  0  0  0  0
   10.0156   10.1470   -0.2618 N   0  0  0  0  0  0  0  0  0  0  0  0
   10.6643   14.1929    0.4759 N   0  0  0  0  0  0  0  0  0  0  0  0
    9.5460   10.7047   -2.4930 O   0  0  0  0  0  0  0  0  0  0  0  0
  1  2  1  0  0  0  0
  1  6  1  0  0  0  0
  1  8  2  0  0  0  0
  2  3  1  0  0  0  0
  3  4  2  0  0  0  0
  3  7  1  0  0  0  0
  4  5  1  0  0  0  0
  5  6  2  0  0  0  0
M  END
>  <CHROM.1>
10.18571706,11.69539703,-0.31231429,2.75454281,1.30878195,2.69409446

>  <Name>
ligand

>  <RI>
0

>  <Rbt.Current_Directory>
/home/itssahil/PROJECTS/Mol_Feturizer/Test_systems_manuscript/rnas/3la5

>  <Rbt.Executable>
rbdock ($Id: //depot/dev/client3/rdock/2013.1/src/exe/rbdock.cxx#4 $)

>  <Rbt.Library>
libRbt.so (2013.1, Build901 2013/11/27)

>  <Rbt.Parameter_File>
/export/apps/rDock/src/rDock_2013.1_src/data/scripts/dock_solv.prm

>  <Rbt.Receptor>
prm/pocket_docking_3.prm

>  <SCORE>
-6.73012

>  <SCORE.INTER>
-6.73012

>  <SCORE.INTER.CONST>
1

>  <SCORE.INTER.POLAR>
0

>  <SCORE.INTER.ROT>
0

>  <SCORE.INTER.SOLV>
8.82977

>  <SCORE.INTER.VDW>
-11.03

>  <SCORE.INTER.norm>
-0.841265

>  <SCORE.INTRA>
0

>  <SCORE.INTRA.DIHEDRAL>
0

>  <SCORE.INTRA.DIHEDRAL.0>
0

>  <SCORE.INTRA.POLAR>
0

>  <SCORE.INTRA.POLAR.0>
0

>  <SCORE.INTRA.REPUL>
0

>  <SCORE.INTRA.REPUL.0>
0

>  <SCORE.INTRA.SOLV>
0

>  <SCORE.INTRA.SOLV.lig_0>
-29.58

>  <SCORE.INTRA.VDW>
0

>  <SCORE.INTRA.VDW.0>
0

>  <SCORE.INTRA.norm>
0

>  <SCORE.RESTR>
0

>  <SCORE.RESTR.CAVITY>
0

>  <SCORE.RESTR.norm>
0

>  <SCORE.SYSTEM>
0

>  <SCORE.SYSTEM.CONST>
0

>  <SCORE.SYSTEM.DIHEDRAL>
0

>  <SCORE.SYSTEM.SOLV>
0

>  <SCORE.SYSTEM.norm>
0

>  <SCORE.heavy>
8

>  <SCORE.norm>
-0.841265

>  <RMSD>
3.215

$$$$
ligand
 OpenBabel02271912143D
libRbt.so/2013.1/901 2013/11/27
  8  8  0  0  0  0  0  0  0  0999 V2000
    9.8711   11.0608   -1.2218 C   0  0  0  0  0  0  0  0  0  0  0  0
   10.0757   12.3564   -0.9853 N   0  0  0  0  0  0  0  0  0  0  0  0
   10.4231   12.7580    0.2402 C   0  0  0  0  0  0  0  0  0  0  0  0
   10.5821   11.8532    1.2342 N   0  0  0  0  0  0  0  0  0  0  0  0
   10.3671   10.5505    0.9847 C   0  0  0  0  0  0  0  0  0  0  0  0
   10.0149   10.1484   -0.2463 N   0  0  0  0  0  0  0  0  0  0  0  0
   10.6390   14.2025    0.4674 N   0  0  0  0  0  0  0  0  0  0  0  0
    9.5216   10.6923   -2.4758 O   0  0  0  0  0  0  0  0  0  0  0  0
  1  2  1  0  0  0  0
  1  6  1  0  0  0  0
  1  8  2  0  0  0  0
  2  3  1  0  0  0  0
  3  4  2  0  0  0  0
  3  7  1  0  0  0  0
  4  5  1  0  0  0  0
  5  6  2  0  0  0  0
M  END
>  <CHROM.1>
10.17269611,11.69778060,-0.30531811,2.71402304,1.30399296,2.72866661

>  <Name>
ligand

>  <RI>
0

>  <Rbt.Current_Directory>
/home/itssahil/PROJECTS/Mol_Feturizer/Test_systems_manuscript/rnas/3la5

>  <Rbt.Executable>
rbdock ($Id: //depot/dev/client3/rdock/2013.1/src/exe/rbdock.cxx#4 $)

>  <Rbt.Library>
libRbt.so (2013.1, Build901 2013/11/27)

>  <Rbt.Parameter_File>
/export/apps/rDock/src/rDock_2013.1_src/data/scripts/dock_solv.prm

>  <Rbt.Receptor>
prm/pocket_docking_3.prm

>  <SCORE>
-6.71258

>  <SCORE.INTER>
-6.71258

>  <SCORE.INTER.CONST>
1

>  <SCORE.INTER.POLAR>
0

>  <SCORE.INTER.ROT>
0

>  <SCORE.INTER.SOLV>
8.80207

>  <SCORE.INTER.VDW>
-11.0091

>  <SCORE.INTER.norm>
-0.839072

>  <SCORE.INTRA>
0

>  <SCORE.INTRA.DIHEDRAL>
0

>  <SCORE.INTRA.DIHEDRAL.0>
0

>  <SCORE.INTRA.POLAR>
0

>  <SCORE.INTRA.POLAR.0>
0

>  <SCORE.INTRA.REPUL>
0

>  <SCORE.INTRA.REPUL.0>
0

>  <SCORE.INTRA.SOLV>
0

>  <SCORE.INTRA.SOLV.lig_0>
-29.58

>  <SCORE.INTRA.VDW>
0

>  <SCORE.INTRA.VDW.0>
0

>  <SCORE.INTRA.norm>
0

>  <SCORE.RESTR>
0

>  <SCORE.RESTR.CAVITY>
0

>  <SCORE.RESTR.norm>
0

>  <SCORE.SYSTEM>
0

>  <SCORE.SYSTEM.CONST>
0

>  <SCORE.SYSTEM.DIHEDRAL>
0

>  <SCORE.SYSTEM.SOLV>
0

>  <SCORE.SYSTEM.norm>
0

>  <SCORE.heavy>
8

>  <SCORE.norm>
-0.839072

>  <RMSD>
3.220

$$$$
ligand
 OpenBabel02271912143D
libRbt.so/2013.1/901 2013/11/27
  8  8  0  0  0  0  0  0  0  0999 V2000
    9.3195   10.3599   -1.3735 C   0  0  0  0  0  0  0  0  0  0  0  0
    9.4285   10.6150   -0.0698 N   0  0  0  0  0  0  0  0  0  0  0  0
   10.0800   11.7073    0.3379 C   0  0  0  0  0  0  0  0  0  0  0  0
   10.6139   12.5600   -0.5676 N   0  0  0  0  0  0  0  0  0  0  0  0
   10.5025   12.2886   -1.8789 C   0  0  0  0  0  0  0  0  0  0  0  0
    9.8505   11.1891   -2.2874 N   0  0  0  0  0  0  0  0  0  0  0  0
   10.1843   11.9574    1.7909 N   0  0  0  0  0  0  0  0  0  0  0  0
    8.6515    9.2446   -1.7479 O   0  0  0  0  0  0  0  0  0  0  0  0
  1  2  1  0  0  0  0
  1  6  1  0  0  0  0
  1  8  2  0  0  0  0
  2  3  1  0  0  0  0
  3  4  2  0  0  0  0
  3  7  1  0  0  0  0
  4  5  1  0  0  0  0
  5  6  2  0  0  0  0
M  END
>  <CHROM.1>
9.79945076,11.19169390,-0.72971863,2.26575646,-1.02625660,-1.62344936

>  <Name>
ligand

>  <RI>
0

>  <Rbt.Current_Directory>
/home/itssahil/PROJECTS/Mol_Feturizer/Test_systems_manuscript/rnas/3la5

>  <Rbt.Executable>
rbdock ($Id: //depot/dev/client3/rdock/2013.1/src/exe/rbdock.cxx#4 $)

>  <Rbt.Library>
libRbt.so (2013.1, Build901 2013/11/27)

>  <Rbt.Parameter_File>
/export/apps/rDock/src/rDock_2013.1_src/data/scripts/dock_solv.prm

>  <Rbt.Receptor>
prm/pocket_docking_3.prm

>  <SCORE>
-7.69603

>  <SCORE.INTER>
-7.85147

>  <SCORE.INTER.CONST>
1

>  <SCORE.INTER.POLAR>
0

>  <SCORE.INTER.ROT>
0

>  <SCORE.INTER.SOLV>
8.69095

>  <SCORE.INTER.VDW>
-11.7313

>  <SCORE.INTER.norm>
-0.981434

>  <SCORE.INTRA>
0

>  <SCORE.INTRA.DIHEDRAL>
0

>  <SCORE.INTRA.DIHEDRAL.0>
0

>  <SCORE.INTRA.POLAR>
0

>  <SCORE.INTRA.POLAR.0>
0

>  <SCORE.INTRA.REPUL>
0

>  <SCORE.INTRA.REPUL.0>
0

>  <SCORE.INTRA.SOLV>
0

>  <SCORE.INTRA.SOLV.lig_0>
-29.58

>  <SCORE.INTRA.VDW>
0

>  <SCORE.INTRA.VDW.0>
0

>  <SCORE.INTRA.norm>
0

>  <SCORE.RESTR>
0.155442

>  <SCORE.RESTR.CAVITY>
0.155442

>  <SCORE.RESTR.norm>
0.0194303

>  <SCORE.SYSTEM>
0

>  <SCORE.SYSTEM.CONST>
0

>  <SCORE.SYSTEM.DIHEDRAL>
0

>  <SCORE.SYSTEM.SOLV>
0

>  <SCORE.SYSTEM.norm>
0

>  <SCORE.heavy>
8

>  <SCORE.norm>
-0.962003

>  <RMSD>
3.258

$$$$
ligand
 OpenBabel02271912143D
libRbt.so/2013.1/901 2013/11/27
  8  8  0  0  0  0  0  0  0  0999 V2000
   10.1436    9.7101   -1.4448 C   0  0  0  0  0  0  0  0  0  0  0  0
   10.1877   10.1163   -0.1762 N   0  0  0  0  0  0  0  0  0  0  0  0
   10.1176   11.4205    0.1033 C   0  0  0  0  0  0  0  0  0  0  0  0
    9.9867   12.3251   -0.8950 N   0  0  0  0  0  0  0  0  0  0  0  0
    9.9494   11.9035   -2.1702 C   0  0  0  0  0  0  0  0  0  0  0  0
   10.0232   10.5931   -2.4501 N   0  0  0  0  0  0  0  0  0  0  0  0
   10.1726   11.8355    1.5208 N   0  0  0  0  0  0  0  0  0  0  0  0
   10.2162    8.3812   -1.6883 O   0  0  0  0  0  0  0  0  0  0  0  0
  1  2  1  0  0  0  0
  1  6  1  0  0  0  0
  1  8  2  0  0  0  0
  2  3  1  0  0  0  0
  3  4  2  0  0  0  0
  3  7  1  0  0  0  0
  4  5  1  0  0  0  0
  5  6  2  0  0  0  0
M  END
>  <CHROM.1>
10.10340556,10.72883567,-0.89960189,-1.44055596,-1.47996007,0.86001999

>  <Name>
ligand

>  <RI>
0

>  <Rbt.Current_Directory>
/home/itssahil/PROJECTS/Mol_Feturizer/Test_systems_manuscript/rnas/3la5

>  <Rbt.Executable>
rbdock ($Id: //depot/dev/client3/rdock/2013.1/src/exe/rbdock.cxx#4 $)

>  <Rbt.Library>
libRbt.so (2013.1, Build901 2013/11/27)

>  <Rbt.Parameter_File>
/export/apps/rDock/src/rDock_2013.1_src/data/scripts/dock_solv.prm

>  <Rbt.Receptor>
prm/pocket_docking_4.prm

>  <SCORE>
-8.15679

>  <SCORE.INTER>
-8.15679

>  <SCORE.INTER.CONST>
1

>  <SCORE.INTER.POLAR>
0

>  <SCORE.INTER.ROT>
0

>  <SCORE.INTER.SOLV>
7.67725

>  <SCORE.INTER.VDW>
-11.5969

>  <SCORE.INTER.norm>
-1.0196

>  <SCORE.INTRA>
0

>  <SCORE.INTRA.DIHEDRAL>
0

>  <SCORE.INTRA.DIHEDRAL.0>
0

>  <SCORE.INTRA.POLAR>
0

>  <SCORE.INTRA.POLAR.0>
0

>  <SCORE.INTRA.REPUL>
0

>  <SCORE.INTRA.REPUL.0>
0

>  <SCORE.INTRA.SOLV>
0

>  <SCORE.INTRA.SOLV.lig_0>
-29.58

>  <SCORE.INTRA.VDW>
0

>  <SCORE.INTRA.VDW.0>
0

>  <SCORE.INTRA.norm>
0

>  <SCORE.RESTR>
0

>  <SCORE.RESTR.CAVITY>
0

>  <SCORE.RESTR.norm>
0

>  <SCORE.SYSTEM>
0

>  <SCORE.SYSTEM.CONST>
0

>  <SCORE.SYSTEM.DIHEDRAL>
0

>  <SCORE.SYSTEM.SOLV>
0

>  <SCORE.SYSTEM.norm>
0

>  <SCORE.heavy>
8

>  <SCORE.norm>
-1.0196

>  <RMSD>
3.413

$$$$
ligand
 OpenBabel02271912143D
libRbt.so/2013.1/901 2013/11/27
  8  8  0  0  0  0  0  0  0  0999 V2000
    9.2780   10.1389   -1.5007 C   0  0  0  0  0  0  0  0  0  0  0  0
    9.4142   10.4166   -0.2042 N   0  0  0  0  0  0  0  0  0  0  0  0
   10.0017   11.5563    0.1697 C   0  0  0  0  0  0  0  0  0  0  0  0
   10.4430   12.4330   -0.7623 N   0  0  0  0  0  0  0  0  0  0  0  0
   10.3053   12.1389   -2.0661 C   0  0  0  0  0  0  0  0  0  0  0  0
    9.7178   10.9919   -2.4407 N   0  0  0  0  0  0  0  0  0  0  0  0
   10.1387   11.8304    1.6157 N   0  0  0  0  0  0  0  0  0  0  0  0
    8.6768    8.9755   -1.8405 O   0  0  0  0  0  0  0  0  0  0  0  0
  1  2  1  0  0  0  0
  1  6  1  0  0  0  0
  1  8  2  0  0  0  0
  2  3  1  0  0  0  0
  3  4  2  0  0  0  0
  3  7  1  0  0  0  0
  4  5  1  0  0  0  0
  5  6  2  0  0  0  0
M  END
>  <CHROM.1>
9.72085847,11.00965870,-0.88232137,2.33382188,-1.09689999,-1.57474901

>  <Name>
ligand

>  <RI>
0

>  <Rbt.Current_Directory>
/home/itssahil/PROJECTS/Mol_Feturizer/Test_systems_manuscript/rnas/3la5

>  <Rbt.Executable>
rbdock ($Id: //depot/dev/client3/rdock/2013.1/src/exe/rbdock.cxx#4 $)

>  <Rbt.Library>
libRbt.so (2013.1, Build901 2013/11/27)

>  <Rbt.Parameter_File>
/export/apps/rDock/src/rDock_2013.1_src/data/scripts/dock_solv.prm

>  <Rbt.Receptor>
prm/pocket_docking_4.prm

>  <SCORE>
-8.58856

>  <SCORE.INTER>
-8.58856

>  <SCORE.INTER.CONST>
1

>  <SCORE.INTER.POLAR>
0

>  <SCORE.INTER.ROT>
0

>  <SCORE.INTER.SOLV>
8.5074

>  <SCORE.INTER.VDW>
-12.1615

>  <SCORE.INTER.norm>
-1.07357

>  <SCORE.INTRA>
0

>  <SCORE.INTRA.DIHEDRAL>
0

>  <SCORE.INTRA.DIHEDRAL.0>
0

>  <SCORE.INTRA.POLAR>
0

>  <SCORE.INTRA.POLAR.0>
0

>  <SCORE.INTRA.REPUL>
0

>  <SCORE.INTRA.REPUL.0>
0

>  <SCORE.INTRA.SOLV>
0

>  <SCORE.INTRA.SOLV.lig_0>
-29.58

>  <SCORE.INTRA.VDW>
0

>  <SCORE.INTRA.VDW.0>
0

>  <SCORE.INTRA.norm>
0

>  <SCORE.RESTR>
0

>  <SCORE.RESTR.CAVITY>
0

>  <SCORE.RESTR.norm>
0

>  <SCORE.SYSTEM>
0

>  <SCORE.SYSTEM.CONST>
0

>  <SCORE.SYSTEM.DIHEDRAL>
0

>  <SCORE.SYSTEM.SOLV>
0

>  <SCORE.SYSTEM.norm>
0

>  <SCORE.heavy>
8

>  <SCORE.norm>
-1.07357

>  <RMSD>
3.414

$$$$
ligand
 OpenBabel02271912143D
libRbt.so/2013.1/901 2013/11/27
  8  8  0  0  0  0  0  0  0  0999 V2000
    9.2674   10.1394   -1.4946 C   0  0  0  0  0  0  0  0  0  0  0  0
    9.3896   10.4248   -0.1985 N   0  0  0  0  0  0  0  0  0  0  0  0
    9.9743   11.5661    0.1750 C   0  0  0  0  0  0  0  0  0  0  0  0
   10.4269   12.4366   -0.7574 N   0  0  0  0  0  0  0  0  0  0  0  0
   10.3033   12.1347   -2.0608 C   0  0  0  0  0  0  0  0  0  0  0  0
    9.7186   10.9862   -2.4349 N   0  0  0  0  0  0  0  0  0  0  0  0
   10.0956   11.8489    1.6207 N   0  0  0  0  0  0  0  0  0  0  0  0
    8.6686    8.9746   -1.8340 O   0  0  0  0  0  0  0  0  0  0  0  0
  1  2  1  0  0  0  0
  1  6  1  0  0  0  0
  1  8  2  0  0  0  0
  2  3  1  0  0  0  0
  3  4  2  0  0  0  0
  3  7  1  0  0  0  0
  4  5  1  0  0  0  0
  5  6  2  0  0  0  0
M  END
>  <CHROM.1>
9.70443352,11.01340959,-0.87672193,2.30962640,-1.09553767,-1.60237087

>  <Name>
ligand

>  <RI>
0

>  <Rbt.Current_Directory>
/home/itssahil/PROJECTS/Mol_Feturizer/Test_systems_manuscript/rnas/3la5

>  <Rbt.Executable>
rbdock ($Id: //depot/dev/client3/rdock/2013.1/src/exe/rbdock.cxx#4 $)

>  <Rbt.Library>
libRbt.so (2013.1, Build901 2013/11/27)

>  <Rbt.Parameter_File>
/export/apps/rDock/src/rDock_2013.1_src/data/scripts/dock_solv.prm

>  <Rbt.Receptor>
prm/pocket_docking_5.prm

>  <SCORE>
-8.58086

>  <SCORE.INTER>
-8.58086

>  <SCORE.INTER.CONST>
1

>  <SCORE.INTER.POLAR>
0

>  <SCORE.INTER.ROT>
0

>  <SCORE.INTER.SOLV>
8.51397

>  <SCORE.INTER.VDW>
-12.1586

>  <SCORE.INTER.norm>
-1.07261

>  <SCORE.INTRA>
0

>  <SCORE.INTRA.DIHEDRAL>
0

>  <SCORE.INTRA.DIHEDRAL.0>
0

>  <SCORE.INTRA.POLAR>
0

>  <SCORE.INTRA.POLAR.0>
0

>  <SCORE.INTRA.REPUL>
0

>  <SCORE.INTRA.REPUL.0>
0

>  <SCORE.INTRA.SOLV>
0

>  <SCORE.INTRA.SOLV.lig_0>
-29.58

>  <SCORE.INTRA.VDW>
0

>  <SCORE.INTRA.VDW.0>
0

>  <SCORE.INTRA.norm>
0

>  <SCORE.RESTR>
0

>  <SCORE.RESTR.CAVITY>
0

>  <SCORE.RESTR.norm>
0

>  <SCORE.SYSTEM>
0

>  <SCORE.SYSTEM.CONST>
0

>  <SCORE.SYSTEM.DIHEDRAL>
0

>  <SCORE.SYSTEM.SOLV>
0

>  <SCORE.SYSTEM.norm>
0

>  <SCORE.heavy>
8

>  <SCORE.norm>
-1.07261

>  <RMSD>
3.416

$$$$
ligand
 OpenBabel02271912143D
libRbt.so/2013.1/901 2013/11/27
  8  8  0  0  0  0  0  0  0  0999 V2000
   10.1501    9.7062   -1.4573 C   0  0  0  0  0  0  0  0  0  0  0  0
   10.2022   10.1091   -0.1879 N   0  0  0  0  0  0  0  0  0  0  0  0
   10.1337   11.4125    0.0955 C   0  0  0  0  0  0  0  0  0  0  0  0
    9.9964   12.3198   -0.8995 N   0  0  0  0  0  0  0  0  0  0  0  0
    9.9511   11.9015   -2.1756 C   0  0  0  0  0  0  0  0  0  0  0  0
   10.0233   10.5919   -2.4594 N   0  0  0  0  0  0  0  0  0  0  0  0
   10.1975   11.8238    1.5138 N   0  0  0  0  0  0  0  0  0  0  0  0
   10.2214    8.3780   -1.7047 O   0  0  0  0  0  0  0  0  0  0  0  0
  1  2  1  0  0  0  0
  1  6  1  0  0  0  0
  1  8  2  0  0  0  0
  2  3  1  0  0  0  0
  3  4  2  0  0  0  0
  3  7  1  0  0  0  0
  4  5  1  0  0  0  0
  5  6  2  0  0  0  0
M  END
>  <CHROM.1>
10.11324272,10.72350847,-0.90912415,-1.48970670,-1.47564436,0.81373869

>  <Name>
ligand

>  <RI>
0

>  <Rbt.Current_Directory>
/home/itssahil/PROJECTS/Mol_Feturizer/Test_systems_manuscript/rnas/3la5

>  <Rbt.Executable>
rbdock ($Id: //depot/dev/client3/rdock/2013.1/src/exe/rbdock.cxx#4 $)

>  <Rbt.Library>
libRbt.so (2013.1, Build901 2013/11/27)

>  <Rbt.Parameter_File>
/export/apps/rDock/src/rDock_2013.1_src/data/scripts/dock_solv.prm

>  <Rbt.Receptor>
prm/pocket_docking_4.prm

>  <SCORE>
-8.17892

>  <SCORE.INTER>
-8.17892

>  <SCORE.INTER.CONST>
1

>  <SCORE.INTER.POLAR>
0

>  <SCORE.INTER.ROT>
0

>  <SCORE.INTER.SOLV>
7.65669

>  <SCORE.INTER.VDW>
-11.6048

>  <SCORE.INTER.norm>
-1.02236

>  <SCORE.INTRA>
0

>  <SCORE.INTRA.DIHEDRAL>
0

>  <SCORE.INTRA.DIHEDRAL.0>
0

>  <SCORE.INTRA.POLAR>
0

>  <SCORE.INTRA.POLAR.0>
0

>  <SCORE.INTRA.REPUL>
0

>  <SCORE.INTRA.REPUL.0>
0

>  <SCORE.INTRA.SOLV>
0

>  <SCORE.INTRA.SOLV.lig_0>
-29.58

>  <SCORE.INTRA.VDW>
0

>  <SCORE.INTRA.VDW.0>
0

>  <SCORE.INTRA.norm>
0

>  <SCORE.RESTR>
0

>  <SCORE.RESTR.CAVITY>
0

>  <SCORE.RESTR.norm>
0

>  <SCORE.SYSTEM>
0

>  <SCORE.SYSTEM.CONST>
0

>  <SCORE.SYSTEM.DIHEDRAL>
0

>  <SCORE.SYSTEM.SOLV>
0

>  <SCORE.SYSTEM.norm>
0

>  <SCORE.heavy>
8

>  <SCORE.norm>
-1.02236

>  <RMSD>
3.418

$$$$
ligand
 OpenBabel02271912143D
libRbt.so/2013.1/901 2013/11/27
  8  8  0  0  0  0  0  0  0  0999 V2000
   10.1526    9.7093   -1.4450 C   0  0  0  0  0  0  0  0  0  0  0  0
   10.1640   10.1248   -0.1786 N   0  0  0  0  0  0  0  0  0  0  0  0
   10.0742   11.4301    0.0898 C   0  0  0  0  0  0  0  0  0  0  0  0
    9.9563   12.3263   -0.9176 N   0  0  0  0  0  0  0  0  0  0  0  0
    9.9520   11.8955   -2.1903 C   0  0  0  0  0  0  0  0  0  0  0  0
   10.0457   10.5840   -2.4590 N   0  0  0  0  0  0  0  0  0  0  0  0
   10.0930   11.8555    1.5052 N   0  0  0  0  0  0  0  0  0  0  0  0
   10.2444    8.3796   -1.6772 O   0  0  0  0  0  0  0  0  0  0  0  0
  1  2  1  0  0  0  0
  1  6  1  0  0  0  0
  1  8  2  0  0  0  0
  2  3  1  0  0  0  0
  3  4  2  0  0  0  0
  3  7  1  0  0  0  0
  4  5  1  0  0  0  0
  5  6  2  0  0  0  0
M  END
>  <CHROM.1>
10.08963955,10.73134484,-0.90815557,-1.16428953,-1.48347069,1.12811962

>  <Name>
ligand

>  <RI>
0

>  <Rbt.Current_Directory>
/home/itssahil/PROJECTS/Mol_Feturizer/Test_systems_manuscript/rnas/3la5

>  <Rbt.Executable>
rbdock ($Id: //depot/dev/client3/rdock/2013.1/src/exe/rbdock.cxx#4 $)

>  <Rbt.Library>
libRbt.so (2013.1, Build901 2013/11/27)

>  <Rbt.Parameter_File>
/export/apps/rDock/src/rDock_2013.1_src/data/scripts/dock_solv.prm

>  <Rbt.Receptor>
prm/pocket_docking_4.prm

>  <SCORE>
-8.06701

>  <SCORE.INTER>
-8.06701

>  <SCORE.INTER.CONST>
1

>  <SCORE.INTER.POLAR>
0

>  <SCORE.INTER.ROT>
0

>  <SCORE.INTER.SOLV>
7.68853

>  <SCORE.INTER.VDW>
-11.5409

>  <SCORE.INTER.norm>
-1.00838

>  <SCORE.INTRA>
0

>  <SCORE.INTRA.DIHEDRAL>
0

>  <SCORE.INTRA.DIHEDRAL.0>
0

>  <SCORE.INTRA.POLAR>
0

>  <SCORE.INTRA.POLAR.0>
0

>  <SCORE.INTRA.REPUL>
0

>  <SCORE.INTRA.REPUL.0>
0

>  <SCORE.INTRA.SOLV>
0

>  <SCORE.INTRA.SOLV.lig_0>
-29.58

>  <SCORE.INTRA.VDW>
0

>  <SCORE.INTRA.VDW.0>
0

>  <SCORE.INTRA.norm>
0

>  <SCORE.RESTR>
0

>  <SCORE.RESTR.CAVITY>
0

>  <SCORE.RESTR.norm>
0

>  <SCORE.SYSTEM>
0

>  <SCORE.SYSTEM.CONST>
0

>  <SCORE.SYSTEM.DIHEDRAL>
0

>  <SCORE.SYSTEM.SOLV>
0

>  <SCORE.SYSTEM.norm>
0

>  <SCORE.heavy>
8

>  <SCORE.norm>
-1.00838

>  <RMSD>
3.419

$$$$
ligand
 OpenBabel02271912143D
libRbt.so/2013.1/901 2013/11/27
  8  8  0  0  0  0  0  0  0  0999 V2000
    9.2945   10.1215   -1.5075 C   0  0  0  0  0  0  0  0  0  0  0  0
    9.4084   10.4159   -0.2126 N   0  0  0  0  0  0  0  0  0  0  0  0
    9.9811   11.5647    0.1564 C   0  0  0  0  0  0  0  0  0  0  0  0
   10.4300   12.4336   -0.7793 N   0  0  0  0  0  0  0  0  0  0  0  0
   10.3148   12.1227   -2.0814 C   0  0  0  0  0  0  0  0  0  0  0  0
    9.7421   10.9666   -2.4510 N   0  0  0  0  0  0  0  0  0  0  0  0
   10.0935   11.8573    1.6008 N   0  0  0  0  0  0  0  0  0  0  0  0
    8.7077    8.9493   -1.8424 O   0  0  0  0  0  0  0  0  0  0  0  0
  1  2  1  0  0  0  0
  1  6  1  0  0  0  0
  1  8  2  0  0  0  0
  2  3  1  0  0  0  0
  3  4  2  0  0  0  0
  3  7  1  0  0  0  0
  4  5  1  0  0  0  0
  5  6  2  0  0  0  0
M  END
>  <CHROM.1>
9.72085741,11.00316101,-0.89309074,2.29925781,-1.10440022,-1.61770281

>  <Name>
ligand

>  <RI>
0

>  <Rbt.Current_Directory>
/home/itssahil/PROJECTS/Mol_Feturizer/Test_systems_manuscript/rnas/3la5

>  <Rbt.Executable>
rbdock ($Id: //depot/dev/client3/rdock/2013.1/src/exe/rbdock.cxx#4 $)

>  <Rbt.Library>
libRbt.so (2013.1, Build901 2013/11/27)

>  <Rbt.Parameter_File>
/export/apps/rDock/src/rDock_2013.1_src/data/scripts/dock_solv.prm

>  <Rbt.Receptor>
prm/pocket_docking_4.prm

>  <SCORE>
-8.58017

>  <SCORE.INTER>
-8.58017

>  <SCORE.INTER.CONST>
1

>  <SCORE.INTER.POLAR>
0

>  <SCORE.INTER.ROT>
0

>  <SCORE.INTER.SOLV>
8.43093

>  <SCORE.INTER.VDW>
-12.1304

>  <SCORE.INTER.norm>
-1.07252

>  <SCORE.INTRA>
0

>  <SCORE.INTRA.DIHEDRAL>
0

>  <SCORE.INTRA.DIHEDRAL.0>
0

>  <SCORE.INTRA.POLAR>
0

>  <SCORE.INTRA.POLAR.0>
0

>  <SCORE.INTRA.REPUL>
0

>  <SCORE.INTRA.REPUL.0>
0

>  <SCORE.INTRA.SOLV>
0

>  <SCORE.INTRA.SOLV.lig_0>
-29.58

>  <SCORE.INTRA.VDW>
0

>  <SCORE.INTRA.VDW.0>
0

>  <SCORE.INTRA.norm>
0

>  <SCORE.RESTR>
0

>  <SCORE.RESTR.CAVITY>
0

>  <SCORE.RESTR.norm>
0

>  <SCORE.SYSTEM>
0

>  <SCORE.SYSTEM.CONST>
0

>  <SCORE.SYSTEM.DIHEDRAL>
0

>  <SCORE.SYSTEM.SOLV>
0

>  <SCORE.SYSTEM.norm>
0

>  <SCORE.heavy>
8

>  <SCORE.norm>
-1.07252

>  <RMSD>
3.425

$$$$
ligand
 OpenBabel02271912143D
libRbt.so/2013.1/901 2013/11/27
  8  8  0  0  0  0  0  0  0  0999 V2000
    9.2949   10.1160   -1.5213 C   0  0  0  0  0  0  0  0  0  0  0  0
    9.4086   10.3989   -0.2238 N   0  0  0  0  0  0  0  0  0  0  0  0
    9.9712   11.5495    0.1552 C   0  0  0  0  0  0  0  0  0  0  0  0
   10.4099   12.4316   -0.7729 N   0  0  0  0  0  0  0  0  0  0  0  0
   10.2950   12.1322   -2.0778 C   0  0  0  0  0  0  0  0  0  0  0  0
    9.7326   10.9744   -2.4574 N   0  0  0  0  0  0  0  0  0  0  0  0
   10.0837   11.8292    1.6022 N   0  0  0  0  0  0  0  0  0  0  0  0
    8.7186    8.9416   -1.8663 O   0  0  0  0  0  0  0  0  0  0  0  0
  1  2  1  0  0  0  0
  1  6  1  0  0  0  0
  1  8  2  0  0  0  0
  2  3  1  0  0  0  0
  3  4  2  0  0  0  0
  3  7  1  0  0  0  0
  4  5  1  0  0  0  0
  5  6  2  0  0  0  0
M  END
>  <CHROM.1>
9.71415128,10.99570126,-0.89916828,2.30284145,-1.11397244,-1.60483764

>  <Name>
ligand

>  <RI>
0

>  <Rbt.Current_Directory>
/home/itssahil/PROJECTS/Mol_Feturizer/Test_systems_manuscript/rnas/3la5

>  <Rbt.Executable>
rbdock ($Id: //depot/dev/client3/rdock/2013.1/src/exe/rbdock.cxx#4 $)

>  <Rbt.Library>
libRbt.so (2013.1, Build901 2013/11/27)

>  <Rbt.Parameter_File>
/export/apps/rDock/src/rDock_2013.1_src/data/scripts/dock_solv.prm

>  <Rbt.Receptor>
prm/pocket_docking_5.prm

>  <SCORE>
-8.59391

>  <SCORE.INTER>
-8.59391

>  <SCORE.INTER.CONST>
1

>  <SCORE.INTER.POLAR>
0

>  <SCORE.INTER.ROT>
0

>  <SCORE.INTER.SOLV>
8.45496

>  <SCORE.INTER.VDW>
-12.1476

>  <SCORE.INTER.norm>
-1.07424

>  <SCORE.INTRA>
0

>  <SCORE.INTRA.DIHEDRAL>
0

>  <SCORE.INTRA.DIHEDRAL.0>
0

>  <SCORE.INTRA.POLAR>
0

>  <SCORE.INTRA.POLAR.0>
0

>  <SCORE.INTRA.REPUL>
0

>  <SCORE.INTRA.REPUL.0>
0

>  <SCORE.INTRA.SOLV>
0

>  <SCORE.INTRA.SOLV.lig_0>
-29.58

>  <SCORE.INTRA.VDW>
0

>  <SCORE.INTRA.VDW.0>
0

>  <SCORE.INTRA.norm>
0

>  <SCORE.RESTR>
0

>  <SCORE.RESTR.CAVITY>
0

>  <SCORE.RESTR.norm>
0

>  <SCORE.SYSTEM>
0

>  <SCORE.SYSTEM.CONST>
0

>  <SCORE.SYSTEM.DIHEDRAL>
0

>  <SCORE.SYSTEM.SOLV>
0

>  <SCORE.SYSTEM.norm>
0

>  <SCORE.heavy>
8

>  <SCORE.norm>
-1.07424

>  <RMSD>
3.429

$$$$
ligand
 OpenBabel02271912143D
libRbt.so/2013.1/901 2013/11/27
  8  8  0  0  0  0  0  0  0  0999 V2000
    9.2810   10.1166   -1.5029 C   0  0  0  0  0  0  0  0  0  0  0  0
    9.4125   10.4106   -0.2096 N   0  0  0  0  0  0  0  0  0  0  0  0
    9.9854   11.5617    0.1519 C   0  0  0  0  0  0  0  0  0  0  0  0
   10.4168   12.4332   -0.7895 N   0  0  0  0  0  0  0  0  0  0  0  0
   10.2840   12.1227   -2.0900 C   0  0  0  0  0  0  0  0  0  0  0  0
    9.7111   10.9644   -2.4521 N   0  0  0  0  0  0  0  0  0  0  0  0
   10.1175   11.8538    1.5948 N   0  0  0  0  0  0  0  0  0  0  0  0
    8.6946    8.9421   -1.8300 O   0  0  0  0  0  0  0  0  0  0  0  0
  1  2  1  0  0  0  0
  1  6  1  0  0  0  0
  1  8  2  0  0  0  0
  2  3  1  0  0  0  0
  3  4  2  0  0  0  0
  3  7  1  0  0  0  0
  4  5  1  0  0  0  0
  5  6  2  0  0  0  0
M  END
>  <CHROM.1>
9.71240841,10.99978377,-0.89406236,2.33143607,-1.10928836,-1.58820281

>  <Name>
ligand

>  <RI>
0

>  <Rbt.Current_Directory>
/home/itssahil/PROJECTS/Mol_Feturizer/Test_systems_manuscript/rnas/3la5

>  <Rbt.Executable>
rbdock ($Id: //depot/dev/client3/rdock/2013.1/src/exe/rbdock.cxx#4 $)

>  <Rbt.Library>
libRbt.so (2013.1, Build901 2013/11/27)

>  <Rbt.Parameter_File>
/export/apps/rDock/src/rDock_2013.1_src/data/scripts/dock_solv.prm

>  <Rbt.Receptor>
prm/pocket_docking_8.prm

>  <SCORE>
-8.59362

>  <SCORE.INTER>
-8.59362

>  <SCORE.INTER.CONST>
1

>  <SCORE.INTER.POLAR>
0

>  <SCORE.INTER.ROT>
0

>  <SCORE.INTER.SOLV>
8.42811

>  <SCORE.INTER.VDW>
-12.1384

>  <SCORE.INTER.norm>
-1.0742

>  <SCORE.INTRA>
0

>  <SCORE.INTRA.DIHEDRAL>
0

>  <SCORE.INTRA.DIHEDRAL.0>
0

>  <SCORE.INTRA.POLAR>
0

>  <SCORE.INTRA.POLAR.0>
0

>  <SCORE.INTRA.REPUL>
0

>  <SCORE.INTRA.REPUL.0>
0

>  <SCORE.INTRA.SOLV>
0

>  <SCORE.INTRA.SOLV.lig_0>
-29.58

>  <SCORE.INTRA.VDW>
0

>  <SCORE.INTRA.VDW.0>
0

>  <SCORE.INTRA.norm>
0

>  <SCORE.RESTR>
0

>  <SCORE.RESTR.CAVITY>
0

>  <SCORE.RESTR.norm>
0

>  <SCORE.SYSTEM>
0

>  <SCORE.SYSTEM.CONST>
0

>  <SCORE.SYSTEM.DIHEDRAL>
0

>  <SCORE.SYSTEM.SOLV>
0

>  <SCORE.SYSTEM.norm>
0

>  <SCORE.heavy>
8

>  <SCORE.norm>
-1.0742

>  <RMSD>
3.429

$$$$
ligand
 OpenBabel02271912143D
libRbt.so/2013.1/901 2013/11/27
  8  8  0  0  0  0  0  0  0  0999 V2000
   10.1393    9.7052   -1.4741 C   0  0  0  0  0  0  0  0  0  0  0  0
   10.1711   10.1107   -0.2048 N   0  0  0  0  0  0  0  0  0  0  0  0
   10.0972   11.4147    0.0747 C   0  0  0  0  0  0  0  0  0  0  0  0
    9.9749   12.3197   -0.9242 N   0  0  0  0  0  0  0  0  0  0  0  0
    9.9500   11.8989   -2.2000 C   0  0  0  0  0  0  0  0  0  0  0  0
   10.0276   10.5887   -2.4799 N   0  0  0  0  0  0  0  0  0  0  0  0
   10.1385   11.8289    1.4930 N   0  0  0  0  0  0  0  0  0  0  0  0
   10.2153    8.3765   -1.7176 O   0  0  0  0  0  0  0  0  0  0  0  0
  1  2  1  0  0  0  0
  1  6  1  0  0  0  0
  1  8  2  0  0  0  0
  2  3  1  0  0  0  0
  3  4  2  0  0  0  0
  3  7  1  0  0  0  0
  4  5  1  0  0  0  0
  5  6  2  0  0  0  0
M  END
>  <CHROM.1>
10.09305770,10.72355825,-0.92866383,-1.35025675,-1.48508464,0.95055499

>  <Name>
ligand

>  <RI>
0

>  <Rbt.Current_Directory>
/home/itssahil/PROJECTS/Mol_Feturizer/Test_systems_manuscript/rnas/3la5

>  <Rbt.Executable>
rbdock ($Id: //depot/dev/client3/rdock/2013.1/src/exe/rbdock.cxx#4 $)

>  <Rbt.Library>
libRbt.so (2013.1, Build901 2013/11/27)

>  <Rbt.Parameter_File>
/export/apps/rDock/src/rDock_2013.1_src/data/scripts/dock_solv.prm

>  <Rbt.Receptor>
prm/pocket_docking_4.prm

>  <SCORE>
-8.14089

>  <SCORE.INTER>
-8.14121

>  <SCORE.INTER.CONST>
1

>  <SCORE.INTER.POLAR>
0

>  <SCORE.INTER.ROT>
0

>  <SCORE.INTER.SOLV>
7.65777

>  <SCORE.INTER.VDW>
-11.5801

>  <SCORE.INTER.norm>
-1.01765

>  <SCORE.INTRA>
0

>  <SCORE.INTRA.DIHEDRAL>
0

>  <SCORE.INTRA.DIHEDRAL.0>
0

>  <SCORE.INTRA.POLAR>
0

>  <SCORE.INTRA.POLAR.0>
0

>  <SCORE.INTRA.REPUL>
0

>  <SCORE.INTRA.REPUL.0>
0

>  <SCORE.INTRA.SOLV>
0

>  <SCORE.INTRA.SOLV.lig_0>
-29.58

>  <SCORE.INTRA.VDW>
0

>  <SCORE.INTRA.VDW.0>
0

>  <SCORE.INTRA.norm>
0

>  <SCORE.RESTR>
0.000327444

>  <SCORE.RESTR.CAVITY>
0.000327444

>  <SCORE.RESTR.norm>
4.09306e-05

>  <SCORE.SYSTEM>
0

>  <SCORE.SYSTEM.CONST>
0

>  <SCORE.SYSTEM.DIHEDRAL>
0

>  <SCORE.SYSTEM.SOLV>
0

>  <SCORE.SYSTEM.norm>
0

>  <SCORE.heavy>
8

>  <SCORE.norm>
-1.01761

>  <RMSD>
3.432

$$$$
ligand
 OpenBabel02271912143D
libRbt.so/2013.1/901 2013/11/27
  8  8  0  0  0  0  0  0  0  0999 V2000
    9.2747   10.1120   -1.5050 C   0  0  0  0  0  0  0  0  0  0  0  0
    9.4184   10.4042   -0.2126 N   0  0  0  0  0  0  0  0  0  0  0  0
    9.9940   11.5551    0.1451 C   0  0  0  0  0  0  0  0  0  0  0  0
   10.4157   12.4283   -0.7992 N   0  0  0  0  0  0  0  0  0  0  0  0
   10.2706   12.1197   -2.0988 C   0  0  0  0  0  0  0  0  0  0  0  0
    9.6951   10.9615   -2.4571 N   0  0  0  0  0  0  0  0  0  0  0  0
   10.1398   11.8452    1.5871 N   0  0  0  0  0  0  0  0  0  0  0  0
    8.6860    8.9376   -1.8283 O   0  0  0  0  0  0  0  0  0  0  0  0
  1  2  1  0  0  0  0
  1  6  1  0  0  0  0
  1  8  2  0  0  0  0
  2  3  1  0  0  0  0
  3  4  2  0  0  0  0
  3  7  1  0  0  0  0
  4  5  1  0  0  0  0
  5  6  2  0  0  0  0
M  END
>  <CHROM.1>
9.71133446,10.99454736,-0.89905939,2.35309123,-1.11005365,-1.56731201

>  <Name>
ligand

>  <RI>
0

>  <Rbt.Current_Directory>
/home/itssahil/PROJECTS/Mol_Feturizer/Test_systems_manuscript/rnas/3la5

>  <Rbt.Executable>
rbdock ($Id: //depot/dev/client3/rdock/2013.1/src/exe/rbdock.cxx#4 $)

>  <Rbt.Library>
libRbt.so (2013.1, Build901 2013/11/27)

>  <Rbt.Parameter_File>
/export/apps/rDock/src/rDock_2013.1_src/data/scripts/dock_solv.prm

>  <Rbt.Receptor>
prm/pocket_docking_4.prm

>  <SCORE>
-8.61719

>  <SCORE.INTER>
-8.61719

>  <SCORE.INTER.CONST>
1

>  <SCORE.INTER.POLAR>
0

>  <SCORE.INTER.ROT>
0

>  <SCORE.INTER.SOLV>
8.42339

>  <SCORE.INTER.VDW>
-12.1526

>  <SCORE.INTER.norm>
-1.07715

>  <SCORE.INTRA>
0

>  <SCORE.INTRA.DIHEDRAL>
0

>  <SCORE.INTRA.DIHEDRAL.0>
0

>  <SCORE.INTRA.POLAR>
0

>  <SCORE.INTRA.POLAR.0>
0

>  <SCORE.INTRA.REPUL>
0

>  <SCORE.INTRA.REPUL.0>
0

>  <SCORE.INTRA.SOLV>
0

>  <SCORE.INTRA.SOLV.lig_0>
-29.58

>  <SCORE.INTRA.VDW>
0

>  <SCORE.INTRA.VDW.0>
0

>  <SCORE.INTRA.norm>
0

>  <SCORE.RESTR>
0

>  <SCORE.RESTR.CAVITY>
0

>  <SCORE.RESTR.norm>
0

>  <SCORE.SYSTEM>
0

>  <SCORE.SYSTEM.CONST>
0

>  <SCORE.SYSTEM.DIHEDRAL>
0

>  <SCORE.SYSTEM.SOLV>
0

>  <SCORE.SYSTEM.norm>
0

>  <SCORE.heavy>
8

>  <SCORE.norm>
-1.07715

>  <RMSD>
3.433

$$$$
ligand
 OpenBabel02271912143D
libRbt.so/2013.1/901 2013/11/27
  8  8  0  0  0  0  0  0  0  0999 V2000
    9.2527   10.1317   -1.5118 C   0  0  0  0  0  0  0  0  0  0  0  0
    9.2919   10.4305   -0.2134 N   0  0  0  0  0  0  0  0  0  0  0  0
    9.8445   11.5796    0.1842 C   0  0  0  0  0  0  0  0  0  0  0  0
   10.3483   12.4445   -0.7268 N   0  0  0  0  0  0  0  0  0  0  0  0
   10.3082   12.1293   -2.0323 C   0  0  0  0  0  0  0  0  0  0  0  0
    9.7557   10.9729   -2.4306 N   0  0  0  0  0  0  0  0  0  0  0  0
    9.8735   11.8771    1.6318 N   0  0  0  0  0  0  0  0  0  0  0  0
    8.6841    8.9594   -1.8761 O   0  0  0  0  0  0  0  0  0  0  0  0
  1  2  1  0  0  0  0
  1  6  1  0  0  0  0
  1  8  2  0  0  0  0
  2  3  1  0  0  0  0
  3  4  2  0  0  0  0
  3  7  1  0  0  0  0
  4  5  1  0  0  0  0
  5  6  2  0  0  0  0
M  END
>  <CHROM.1>
9.64438634,11.01487033,-0.87664653,2.17243640,-1.09657686,-1.73421966

>  <Name>
ligand

>  <RI>
0

>  <Rbt.Current_Directory>
/home/itssahil/PROJECTS/Mol_Feturizer/Test_systems_manuscript/rnas/3la5

>  <Rbt.Executable>
rbdock ($Id: //depot/dev/client3/rdock/2013.1/src/exe/rbdock.cxx#4 $)

>  <Rbt.Library>
libRbt.so (2013.1, Build901 2013/11/27)

>  <Rbt.Parameter_File>
/export/apps/rDock/src/rDock_2013.1_src/data/scripts/dock_solv.prm

>  <Rbt.Receptor>
prm/pocket_docking_6.prm

>  <SCORE>
-8.5759

>  <SCORE.INTER>
-8.5759

>  <SCORE.INTER.CONST>
1

>  <SCORE.INTER.POLAR>
0

>  <SCORE.INTER.ROT>
0

>  <SCORE.INTER.SOLV>
8.72396

>  <SCORE.INTER.VDW>
-12.2253

>  <SCORE.INTER.norm>
-1.07199

>  <SCORE.INTRA>
0

>  <SCORE.INTRA.DIHEDRAL>
0

>  <SCORE.INTRA.DIHEDRAL.0>
0

>  <SCORE.INTRA.POLAR>
0

>  <SCORE.INTRA.POLAR.0>
0

>  <SCORE.INTRA.REPUL>
0

>  <SCORE.INTRA.REPUL.0>
0

>  <SCORE.INTRA.SOLV>
0

>  <SCORE.INTRA.SOLV.lig_0>
-29.58

>  <SCORE.INTRA.VDW>
0

>  <SCORE.INTRA.VDW.0>
0

>  <SCORE.INTRA.norm>
0

>  <SCORE.RESTR>
0

>  <SCORE.RESTR.CAVITY>
0

>  <SCORE.RESTR.norm>
0

>  <SCORE.SYSTEM>
0

>  <SCORE.SYSTEM.CONST>
0

>  <SCORE.SYSTEM.DIHEDRAL>
0

>  <SCORE.SYSTEM.SOLV>
0

>  <SCORE.SYSTEM.norm>
0

>  <SCORE.heavy>
8

>  <SCORE.norm>
-1.07199

>  <RMSD>
3.433

$$$$
ligand
 OpenBabel02271912143D
libRbt.so/2013.1/901 2013/11/27
  8  8  0  0  0  0  0  0  0  0999 V2000
    9.2722   10.1113   -1.5099 C   0  0  0  0  0  0  0  0  0  0  0  0
    9.4138   10.3989   -0.2162 N   0  0  0  0  0  0  0  0  0  0  0  0
    9.9900   11.5480    0.1465 C   0  0  0  0  0  0  0  0  0  0  0  0
   10.4143   12.4240   -0.7941 N   0  0  0  0  0  0  0  0  0  0  0  0
   10.2713   12.1199   -2.0950 C   0  0  0  0  0  0  0  0  0  0  0  0
    9.6952   10.9636   -2.4583 N   0  0  0  0  0  0  0  0  0  0  0  0
   10.1334   11.8331    1.5897 N   0  0  0  0  0  0  0  0  0  0  0  0
    8.6828    8.9386   -1.8382 O   0  0  0  0  0  0  0  0  0  0  0  0
  1  2  1  0  0  0  0
  1  6  1  0  0  0  0
  1  8  2  0  0  0  0
  2  3  1  0  0  0  0
  3  4  2  0  0  0  0
  3  7  1  0  0  0  0
  4  5  1  0  0  0  0
  5  6  2  0  0  0  0
M  END
>  <CHROM.1>
9.70860984,10.99132776,-0.90011282,2.34891595,-1.10899524,-1.56766329

>  <Name>
ligand

>  <RI>
0

>  <Rbt.Current_Directory>
/home/itssahil/PROJECTS/Mol_Feturizer/Test_systems_manuscript/rnas/3la5

>  <Rbt.Executable>
rbdock ($Id: //depot/dev/client3/rdock/2013.1/src/exe/rbdock.cxx#4 $)

>  <Rbt.Library>
libRbt.so (2013.1, Build901 2013/11/27)

>  <Rbt.Parameter_File>
/export/apps/rDock/src/rDock_2013.1_src/data/scripts/dock_solv.prm

>  <Rbt.Receptor>
prm/blind_docking_80.prm

>  <SCORE>
-8.61724

>  <SCORE.INTER>
-8.61724

>  <SCORE.INTER.CONST>
1

>  <SCORE.INTER.POLAR>
0

>  <SCORE.INTER.ROT>
0

>  <SCORE.INTER.SOLV>
8.44711

>  <SCORE.INTER.VDW>
-12.1605

>  <SCORE.INTER.norm>
-1.07715

>  <SCORE.INTRA>
0

>  <SCORE.INTRA.DIHEDRAL>
0

>  <SCORE.INTRA.DIHEDRAL.0>
0

>  <SCORE.INTRA.POLAR>
0

>  <SCORE.INTRA.POLAR.0>
0

>  <SCORE.INTRA.REPUL>
0

>  <SCORE.INTRA.REPUL.0>
0

>  <SCORE.INTRA.SOLV>
0

>  <SCORE.INTRA.SOLV.lig_0>
-29.58

>  <SCORE.INTRA.VDW>
0

>  <SCORE.INTRA.VDW.0>
0

>  <SCORE.INTRA.norm>
0

>  <SCORE.RESTR>
0

>  <SCORE.RESTR.CAVITY>
0

>  <SCORE.RESTR.norm>
0

>  <SCORE.SYSTEM>
0

>  <SCORE.SYSTEM.CONST>
0

>  <SCORE.SYSTEM.DIHEDRAL>
0

>  <SCORE.SYSTEM.SOLV>
0

>  <SCORE.SYSTEM.norm>
0

>  <SCORE.heavy>
8

>  <SCORE.norm>
-1.07715

>  <RMSD>
3.434

$$$$
ligand
 OpenBabel02271912143D
libRbt.so/2013.1/901 2013/11/27
  8  8  0  0  0  0  0  0  0  0999 V2000
    9.2730   10.1114   -1.5065 C   0  0  0  0  0  0  0  0  0  0  0  0
    9.4190   10.4022   -0.2140 N   0  0  0  0  0  0  0  0  0  0  0  0
    9.9951   11.5529    0.1438 C   0  0  0  0  0  0  0  0  0  0  0  0
   10.4147   12.4273   -0.8002 N   0  0  0  0  0  0  0  0  0  0  0  0
   10.2672   12.1200   -2.1000 C   0  0  0  0  0  0  0  0  0  0  0  0
    9.6913   10.9621   -2.4585 N   0  0  0  0  0  0  0  0  0  0  0  0
   10.1435   11.8413    1.5859 N   0  0  0  0  0  0  0  0  0  0  0  0
    8.6839    8.9372   -1.8300 O   0  0  0  0  0  0  0  0  0  0  0  0
  1  2  1  0  0  0  0
  1  6  1  0  0  0  0
  1  8  2  0  0  0  0
  2  3  1  0  0  0  0
  3  4  2  0  0  0  0
  3  7  1  0  0  0  0
  4  5  1  0  0  0  0
  5  6  2  0  0  0  0
M  END
>  <CHROM.1>
9.71050364,10.99340958,-0.90040195,2.35738239,-1.11029338,-1.56234588

>  <Name>
ligand

>  <RI>
0

>  <Rbt.Current_Directory>
/home/itssahil/PROJECTS/Mol_Feturizer/Test_systems_manuscript/rnas/3la5

>  <Rbt.Executable>
rbdock ($Id: //depot/dev/client3/rdock/2013.1/src/exe/rbdock.cxx#4 $)

>  <Rbt.Library>
libRbt.so (2013.1, Build901 2013/11/27)

>  <Rbt.Parameter_File>
/export/apps/rDock/src/rDock_2013.1_src/data/scripts/dock_solv.prm

>  <Rbt.Receptor>
prm/blind_docking_80.prm

>  <SCORE>
-8.61474

>  <SCORE.INTER>
-8.61474

>  <SCORE.INTER.CONST>
1

>  <SCORE.INTER.POLAR>
0

>  <SCORE.INTER.ROT>
0

>  <SCORE.INTER.SOLV>
8.42793

>  <SCORE.INTER.VDW>
-12.1525

>  <SCORE.INTER.norm>
-1.07684

>  <SCORE.INTRA>
0

>  <SCORE.INTRA.DIHEDRAL>
0

>  <SCORE.INTRA.DIHEDRAL.0>
0

>  <SCORE.INTRA.POLAR>
0

>  <SCORE.INTRA.POLAR.0>
0

>  <SCORE.INTRA.REPUL>
0

>  <SCORE.INTRA.REPUL.0>
0

>  <SCORE.INTRA.SOLV>
0

>  <SCORE.INTRA.SOLV.lig_0>
-29.58

>  <SCORE.INTRA.VDW>
0

>  <SCORE.INTRA.VDW.0>
0

>  <SCORE.INTRA.norm>
0

>  <SCORE.RESTR>
0

>  <SCORE.RESTR.CAVITY>
0

>  <SCORE.RESTR.norm>
0

>  <SCORE.SYSTEM>
0

>  <SCORE.SYSTEM.CONST>
0

>  <SCORE.SYSTEM.DIHEDRAL>
0

>  <SCORE.SYSTEM.SOLV>
0

>  <SCORE.SYSTEM.norm>
0

>  <SCORE.heavy>
8

>  <SCORE.norm>
-1.07684

>  <RMSD>
3.434

$$$$
ligand
 OpenBabel02271912143D
libRbt.so/2013.1/901 2013/11/27
  8  8  0  0  0  0  0  0  0  0999 V2000
   10.1348    9.7112   -1.4753 C   0  0  0  0  0  0  0  0  0  0  0  0
   10.2200   10.1282   -0.2123 N   0  0  0  0  0  0  0  0  0  0  0  0
   10.1591   11.4348    0.0582 C   0  0  0  0  0  0  0  0  0  0  0  0
    9.9959   12.3309   -0.9429 N   0  0  0  0  0  0  0  0  0  0  0  0
    9.9173   11.8984   -2.2127 C   0  0  0  0  0  0  0  0  0  0  0  0
    9.9819   10.5857   -2.4836 N   0  0  0  0  0  0  0  0  0  0  0  0
   10.2600   11.8618    1.4696 N   0  0  0  0  0  0  0  0  0  0  0  0
   10.1994    8.3803   -1.7097 O   0  0  0  0  0  0  0  0  0  0  0  0
  1  2  1  0  0  0  0
  1  6  1  0  0  0  0
  1  8  2  0  0  0  0
  2  3  1  0  0  0  0
  3  4  2  0  0  0  0
  3  7  1  0  0  0  0
  4  5  1  0  0  0  0
  5  6  2  0  0  0  0
M  END
>  <CHROM.1>
10.11235095,10.73455755,-0.93776270,-1.65723357,-1.45619016,0.63594585

>  <Name>
ligand

>  <RI>
0

>  <Rbt.Current_Directory>
/home/itssahil/PROJECTS/Mol_Feturizer/Test_systems_manuscript/rnas/3la5

>  <Rbt.Executable>
rbdock ($Id: //depot/dev/client3/rdock/2013.1/src/exe/rbdock.cxx#4 $)

>  <Rbt.Library>
libRbt.so (2013.1, Build901 2013/11/27)

>  <Rbt.Parameter_File>
/export/apps/rDock/src/rDock_2013.1_src/data/scripts/dock_solv.prm

>  <Rbt.Receptor>
prm/pocket_docking_4.prm

>  <SCORE>
-8.16511

>  <SCORE.INTER>
-8.16511

>  <SCORE.INTER.CONST>
1

>  <SCORE.INTER.POLAR>
0

>  <SCORE.INTER.ROT>
0

>  <SCORE.INTER.SOLV>
7.52185

>  <SCORE.INTER.VDW>
-11.5507

>  <SCORE.INTER.norm>
-1.02064

>  <SCORE.INTRA>
0

>  <SCORE.INTRA.DIHEDRAL>
0

>  <SCORE.INTRA.DIHEDRAL.0>
0

>  <SCORE.INTRA.POLAR>
0

>  <SCORE.INTRA.POLAR.0>
0

>  <SCORE.INTRA.REPUL>
0

>  <SCORE.INTRA.REPUL.0>
0

>  <SCORE.INTRA.SOLV>
0

>  <SCORE.INTRA.SOLV.lig_0>
-29.58

>  <SCORE.INTRA.VDW>
0

>  <SCORE.INTRA.VDW.0>
0

>  <SCORE.INTRA.norm>
0

>  <SCORE.RESTR>
0

>  <SCORE.RESTR.CAVITY>
0

>  <SCORE.RESTR.norm>
0

>  <SCORE.SYSTEM>
0

>  <SCORE.SYSTEM.CONST>
0

>  <SCORE.SYSTEM.DIHEDRAL>
0

>  <SCORE.SYSTEM.SOLV>
0

>  <SCORE.SYSTEM.norm>
0

>  <SCORE.heavy>
8

>  <SCORE.norm>
-1.02064

>  <RMSD>
3.434

$$$$
ligand
 OpenBabel02271912143D
libRbt.so/2013.1/901 2013/11/27
  8  8  0  0  0  0  0  0  0  0999 V2000
   10.1380    9.7065   -1.4811 C   0  0  0  0  0  0  0  0  0  0  0  0
   10.1866   10.1116   -0.2123 N   0  0  0  0  0  0  0  0  0  0  0  0
   10.1231   11.4158    0.0683 C   0  0  0  0  0  0  0  0  0  0  0  0
    9.9942   12.3218   -0.9289 N   0  0  0  0  0  0  0  0  0  0  0  0
    9.9524   11.9014   -2.2044 C   0  0  0  0  0  0  0  0  0  0  0  0
   10.0196   10.5909   -2.4855 N   0  0  0  0  0  0  0  0  0  0  0  0
   10.1829   11.8295    1.4861 N   0  0  0  0  0  0  0  0  0  0  0  0
   10.2040    8.3775   -1.7258 O   0  0  0  0  0  0  0  0  0  0  0  0
  1  2  1  0  0  0  0
  1  6  1  0  0  0  0
  1  8  2  0  0  0  0
  2  3  1  0  0  0  0
  3  4  2  0  0  0  0
  3  7  1  0  0  0  0
  4  5  1  0  0  0  0
  5  6  2  0  0  0  0
M  END
>  <CHROM.1>
10.10360625,10.72499858,-0.93503654,-1.49187308,-1.48197161,0.80969314

>  <Name>
ligand

>  <RI>
0

>  <Rbt.Current_Directory>
/home/itssahil/PROJECTS/Mol_Feturizer/Test_systems_manuscript/rnas/3la5

>  <Rbt.Executable>
rbdock ($Id: //depot/dev/client3/rdock/2013.1/src/exe/rbdock.cxx#4 $)

>  <Rbt.Library>
libRbt.so (2013.1, Build901 2013/11/27)

>  <Rbt.Parameter_File>
/export/apps/rDock/src/rDock_2013.1_src/data/scripts/dock_solv.prm

>  <Rbt.Receptor>
prm/pocket_docking_4.prm

>  <SCORE>
-8.13024

>  <SCORE.INTER>
-8.13024

>  <SCORE.INTER.CONST>
1

>  <SCORE.INTER.POLAR>
0

>  <SCORE.INTER.ROT>
0

>  <SCORE.INTER.SOLV>
7.61123

>  <SCORE.INTER.VDW>
-11.5572

>  <SCORE.INTER.norm>
-1.01628

>  <SCORE.INTRA>
0

>  <SCORE.INTRA.DIHEDRAL>
0

>  <SCORE.INTRA.DIHEDRAL.0>
0

>  <SCORE.INTRA.POLAR>
0

>  <SCORE.INTRA.POLAR.0>
0

>  <SCORE.INTRA.REPUL>
0

>  <SCORE.INTRA.REPUL.0>
0

>  <SCORE.INTRA.SOLV>
0

>  <SCORE.INTRA.SOLV.lig_0>
-29.58

>  <SCORE.INTRA.VDW>
0

>  <SCORE.INTRA.VDW.0>
0

>  <SCORE.INTRA.norm>
0

>  <SCORE.RESTR>
0

>  <SCORE.RESTR.CAVITY>
0

>  <SCORE.RESTR.norm>
0

>  <SCORE.SYSTEM>
0

>  <SCORE.SYSTEM.CONST>
0

>  <SCORE.SYSTEM.DIHEDRAL>
0

>  <SCORE.SYSTEM.SOLV>
0

>  <SCORE.SYSTEM.norm>
0

>  <SCORE.heavy>
8

>  <SCORE.norm>
-1.01628

>  <RMSD>
3.434

$$$$
ligand
 OpenBabel02271912143D
libRbt.so/2013.1/901 2013/11/27
  8  8  0  0  0  0  0  0  0  0999 V2000
    9.2725   10.1067   -1.5018 C   0  0  0  0  0  0  0  0  0  0  0  0
    9.4159   10.4005   -0.2097 N   0  0  0  0  0  0  0  0  0  0  0  0
    9.9868   11.5541    0.1467 C   0  0  0  0  0  0  0  0  0  0  0  0
   10.4040   12.4284   -0.7985 N   0  0  0  0  0  0  0  0  0  0  0  0
   10.2593   12.1182   -2.0978 C   0  0  0  0  0  0  0  0  0  0  0  0
    9.6885   10.9573   -2.4548 N   0  0  0  0  0  0  0  0  0  0  0  0
   10.1325   11.8458    1.5884 N   0  0  0  0  0  0  0  0  0  0  0  0
    8.6885    8.9296   -1.8238 O   0  0  0  0  0  0  0  0  0  0  0  0
  1  2  1  0  0  0  0
  1  6  1  0  0  0  0
  1  8  2  0  0  0  0
  2  3  1  0  0  0  0
  3  4  2  0  0  0  0
  3  7  1  0  0  0  0
  4  5  1  0  0  0  0
  5  6  2  0  0  0  0
M  END
>  <CHROM.1>
9.70574607,10.99158938,-0.89680970,2.35482574,-1.11432972,-1.56648720

>  <Name>
ligand

>  <RI>
0

>  <Rbt.Current_Directory>
/home/itssahil/PROJECTS/Mol_Feturizer/Test_systems_manuscript/rnas/3la5

>  <Rbt.Executable>
rbdock ($Id: //depot/dev/client3/rdock/2013.1/src/exe/rbdock.cxx#4 $)

>  <Rbt.Library>
libRbt.so (2013.1, Build901 2013/11/27)

>  <Rbt.Parameter_File>
/export/apps/rDock/src/rDock_2013.1_src/data/scripts/dock_solv.prm

>  <Rbt.Receptor>
prm/blind_docking_40.prm

>  <SCORE>
-8.61826

>  <SCORE.INTER>
-8.61826

>  <SCORE.INTER.CONST>
1

>  <SCORE.INTER.POLAR>
0

>  <SCORE.INTER.ROT>
0

>  <SCORE.INTER.SOLV>
8.42515

>  <SCORE.INTER.VDW>
-12.1539

>  <SCORE.INTER.norm>
-1.07728

>  <SCORE.INTRA>
0

>  <SCORE.INTRA.DIHEDRAL>
0

>  <SCORE.INTRA.DIHEDRAL.0>
0

>  <SCORE.INTRA.POLAR>
0

>  <SCORE.INTRA.POLAR.0>
0

>  <SCORE.INTRA.REPUL>
0

>  <SCORE.INTRA.REPUL.0>
0

>  <SCORE.INTRA.SOLV>
0

>  <SCORE.INTRA.SOLV.lig_0>
-29.58

>  <SCORE.INTRA.VDW>
0

>  <SCORE.INTRA.VDW.0>
0

>  <SCORE.INTRA.norm>
0

>  <SCORE.RESTR>
0

>  <SCORE.RESTR.CAVITY>
0

>  <SCORE.RESTR.norm>
0

>  <SCORE.SYSTEM>
0

>  <SCORE.SYSTEM.CONST>
0

>  <SCORE.SYSTEM.DIHEDRAL>
0

>  <SCORE.SYSTEM.SOLV>
0

>  <SCORE.SYSTEM.norm>
0

>  <SCORE.heavy>
8

>  <SCORE.norm>
-1.07728

>  <RMSD>
3.435

$$$$
ligand
 OpenBabel02271912143D
libRbt.so/2013.1/901 2013/11/27
  8  8  0  0  0  0  0  0  0  0999 V2000
    9.2724   10.1100   -1.5060 C   0  0  0  0  0  0  0  0  0  0  0  0
    9.4136   10.4017   -0.2132 N   0  0  0  0  0  0  0  0  0  0  0  0
    9.9875   11.5531    0.1459 C   0  0  0  0  0  0  0  0  0  0  0  0
   10.4098   12.4272   -0.7972 N   0  0  0  0  0  0  0  0  0  0  0  0
   10.2673   12.1189   -2.0973 C   0  0  0  0  0  0  0  0  0  0  0  0
    9.6935   10.9603   -2.4570 N   0  0  0  0  0  0  0  0  0  0  0  0
   10.1305   11.8427    1.5883 N   0  0  0  0  0  0  0  0  0  0  0  0
    8.6854    8.9351   -1.8307 O   0  0  0  0  0  0  0  0  0  0  0  0
  1  2  1  0  0  0  0
  1  6  1  0  0  0  0
  1  8  2  0  0  0  0
  2  3  1  0  0  0  0
  3  4  2  0  0  0  0
  3  7  1  0  0  0  0
  4  5  1  0  0  0  0
  5  6  2  0  0  0  0
M  END
>  <CHROM.1>
9.70709987,10.99269399,-0.89893107,2.34926838,-1.11108323,-1.57032316

>  <Name>
ligand

>  <RI>
0

>  <Rbt.Current_Directory>
/home/itssahil/PROJECTS/Mol_Feturizer/Test_systems_manuscript/rnas/3la5

>  <Rbt.Executable>
rbdock ($Id: //depot/dev/client3/rdock/2013.1/src/exe/rbdock.cxx#4 $)

>  <Rbt.Library>
libRbt.so (2013.1, Build901 2013/11/27)

>  <Rbt.Parameter_File>
/export/apps/rDock/src/rDock_2013.1_src/data/scripts/dock_solv.prm

>  <Rbt.Receptor>
prm/blind_docking_80.prm

>  <SCORE>
-8.62016

>  <SCORE.INTER>
-8.62016

>  <SCORE.INTER.CONST>
1

>  <SCORE.INTER.POLAR>
0

>  <SCORE.INTER.ROT>
0

>  <SCORE.INTER.SOLV>
8.43314

>  <SCORE.INTER.VDW>
-12.1578

>  <SCORE.INTER.norm>
-1.07752

>  <SCORE.INTRA>
0

>  <SCORE.INTRA.DIHEDRAL>
0

>  <SCORE.INTRA.DIHEDRAL.0>
0

>  <SCORE.INTRA.POLAR>
0

>  <SCORE.INTRA.POLAR.0>
0

>  <SCORE.INTRA.REPUL>
0

>  <SCORE.INTRA.REPUL.0>
0

>  <SCORE.INTRA.SOLV>
0

>  <SCORE.INTRA.SOLV.lig_0>
-29.58

>  <SCORE.INTRA.VDW>
0

>  <SCORE.INTRA.VDW.0>
0

>  <SCORE.INTRA.norm>
0

>  <SCORE.RESTR>
0

>  <SCORE.RESTR.CAVITY>
0

>  <SCORE.RESTR.norm>
0

>  <SCORE.SYSTEM>
0

>  <SCORE.SYSTEM.CONST>
0

>  <SCORE.SYSTEM.DIHEDRAL>
0

>  <SCORE.SYSTEM.SOLV>
0

>  <SCORE.SYSTEM.norm>
0

>  <SCORE.heavy>
8

>  <SCORE.norm>
-1.07752

>  <RMSD>
3.435

$$$$
ligand
 OpenBabel02271912143D
libRbt.so/2013.1/901 2013/11/27
  8  8  0  0  0  0  0  0  0  0999 V2000
    9.2763   10.1063   -1.5056 C   0  0  0  0  0  0  0  0  0  0  0  0
    9.4137   10.4012   -0.2131 N   0  0  0  0  0  0  0  0  0  0  0  0
    9.9878   11.5528    0.1449 C   0  0  0  0  0  0  0  0  0  0  0  0
   10.4143   12.4239   -0.7992 N   0  0  0  0  0  0  0  0  0  0  0  0
   10.2755   12.1124   -2.0989 C   0  0  0  0  0  0  0  0  0  0  0  0
    9.7015   10.9535   -2.4575 N   0  0  0  0  0  0  0  0  0  0  0  0
   10.1266   11.8460    1.5869 N   0  0  0  0  0  0  0  0  0  0  0  0
    8.6888    8.9313   -1.8291 O   0  0  0  0  0  0  0  0  0  0  0  0
  1  2  1  0  0  0  0
  1  6  1  0  0  0  0
  1  8  2  0  0  0  0
  2  3  1  0  0  0  0
  3  4  2  0  0  0  0
  3  7  1  0  0  0  0
  4  5  1  0  0  0  0
  5  6  2  0  0  0  0
M  END
>  <CHROM.1>
9.71010667,10.99003272,-0.89942376,2.34209299,-1.10980680,-1.57936810

>  <Name>
ligand

>  <RI>
0

>  <Rbt.Current_Directory>
/home/itssahil/PROJECTS/Mol_Feturizer/Test_systems_manuscript/rnas/3la5

>  <Rbt.Executable>
rbdock ($Id: //depot/dev/client3/rdock/2013.1/src/exe/rbdock.cxx#4 $)

>  <Rbt.Library>
libRbt.so (2013.1, Build901 2013/11/27)

>  <Rbt.Parameter_File>
/export/apps/rDock/src/rDock_2013.1_src/data/scripts/dock_solv.prm

>  <Rbt.Receptor>
prm/blind_docking_20.prm

>  <SCORE>
-8.62448

>  <SCORE.INTER>
-8.62448

>  <SCORE.INTER.CONST>
1

>  <SCORE.INTER.POLAR>
0

>  <SCORE.INTER.ROT>
0

>  <SCORE.INTER.SOLV>
8.42512

>  <SCORE.INTER.VDW>
-12.158

>  <SCORE.INTER.norm>
-1.07806

>  <SCORE.INTRA>
0

>  <SCORE.INTRA.DIHEDRAL>
0

>  <SCORE.INTRA.DIHEDRAL.0>
0

>  <SCORE.INTRA.POLAR>
0

>  <SCORE.INTRA.POLAR.0>
0

>  <SCORE.INTRA.REPUL>
0

>  <SCORE.INTRA.REPUL.0>
0

>  <SCORE.INTRA.SOLV>
0

>  <SCORE.INTRA.SOLV.lig_0>
-29.58

>  <SCORE.INTRA.VDW>
0

>  <SCORE.INTRA.VDW.0>
0

>  <SCORE.INTRA.norm>
0

>  <SCORE.RESTR>
0

>  <SCORE.RESTR.CAVITY>
0

>  <SCORE.RESTR.norm>
0

>  <SCORE.SYSTEM>
0

>  <SCORE.SYSTEM.CONST>
0

>  <SCORE.SYSTEM.DIHEDRAL>
0

>  <SCORE.SYSTEM.SOLV>
0

>  <SCORE.SYSTEM.norm>
0

>  <SCORE.heavy>
8

>  <SCORE.norm>
-1.07806

>  <RMSD>
3.436

$$$$
ligand
 OpenBabel02271912143D
libRbt.so/2013.1/901 2013/11/27
  8  8  0  0  0  0  0  0  0  0999 V2000
    9.2801   10.1052   -1.5064 C   0  0  0  0  0  0  0  0  0  0  0  0
    9.4152   10.4020   -0.2141 N   0  0  0  0  0  0  0  0  0  0  0  0
    9.9881   11.5544    0.1433 C   0  0  0  0  0  0  0  0  0  0  0  0
   10.4157   12.4244   -0.8013 N   0  0  0  0  0  0  0  0  0  0  0  0
   10.2793   12.1111   -2.1007 C   0  0  0  0  0  0  0  0  0  0  0  0
    9.7065   10.9515   -2.4587 N   0  0  0  0  0  0  0  0  0  0  0  0
   10.1243   11.8496    1.5852 N   0  0  0  0  0  0  0  0  0  0  0  0
    8.6939    8.9294   -1.8294 O   0  0  0  0  0  0  0  0  0  0  0  0
  1  2  1  0  0  0  0
  1  6  1  0  0  0  0
  1  8  2  0  0  0  0
  2  3  1  0  0  0  0
  3  4  2  0  0  0  0
  3  7  1  0  0  0  0
  4  5  1  0  0  0  0
  5  6  2  0  0  0  0
M  END
>  <CHROM.1>
9.71246073,10.99002912,-0.90073153,2.33824755,-1.11036207,-1.58414390

>  <Name>
ligand

>  <RI>
0

>  <Rbt.Current_Directory>
/home/itssahil/PROJECTS/Mol_Feturizer/Test_systems_manuscript/rnas/3la5

>  <Rbt.Executable>
rbdock ($Id: //depot/dev/client3/rdock/2013.1/src/exe/rbdock.cxx#4 $)

>  <Rbt.Library>
libRbt.so (2013.1, Build901 2013/11/27)

>  <Rbt.Parameter_File>
/export/apps/rDock/src/rDock_2013.1_src/data/scripts/dock_solv.prm

>  <Rbt.Receptor>
prm/pocket_docking_6.prm

>  <SCORE>
-8.62263

>  <SCORE.INTER>
-8.62263

>  <SCORE.INTER.CONST>
1

>  <SCORE.INTER.POLAR>
0

>  <SCORE.INTER.ROT>
0

>  <SCORE.INTER.SOLV>
8.41434

>  <SCORE.INTER.VDW>
-12.1532

>  <SCORE.INTER.norm>
-1.07783

>  <SCORE.INTRA>
0

>  <SCORE.INTRA.DIHEDRAL>
0

>  <SCORE.INTRA.DIHEDRAL.0>
0

>  <SCORE.INTRA.POLAR>
0

>  <SCORE.INTRA.POLAR.0>
0

>  <SCORE.INTRA.REPUL>
0

>  <SCORE.INTRA.REPUL.0>
0

>  <SCORE.INTRA.SOLV>
0

>  <SCORE.INTRA.SOLV.lig_0>
-29.58

>  <SCORE.INTRA.VDW>
0

>  <SCORE.INTRA.VDW.0>
0

>  <SCORE.INTRA.norm>
0

>  <SCORE.RESTR>
0

>  <SCORE.RESTR.CAVITY>
0

>  <SCORE.RESTR.norm>
0

>  <SCORE.SYSTEM>
0

>  <SCORE.SYSTEM.CONST>
0

>  <SCORE.SYSTEM.DIHEDRAL>
0

>  <SCORE.SYSTEM.SOLV>
0

>  <SCORE.SYSTEM.norm>
0

>  <SCORE.heavy>
8

>  <SCORE.norm>
-1.07783

>  <RMSD>
3.436

$$$$
ligand
 OpenBabel02271912143D
libRbt.so/2013.1/901 2013/11/27
  8  8  0  0  0  0  0  0  0  0999 V2000
    9.2787   10.1071   -1.5088 C   0  0  0  0  0  0  0  0  0  0  0  0
    9.4117   10.4024   -0.2159 N   0  0  0  0  0  0  0  0  0  0  0  0
    9.9867   11.5530    0.1437 C   0  0  0  0  0  0  0  0  0  0  0  0
   10.4186   12.4227   -0.7992 N   0  0  0  0  0  0  0  0  0  0  0  0
   10.2843   12.1109   -2.0992 C   0  0  0  0  0  0  0  0  0  0  0  0
    9.7093   10.9530   -2.4594 N   0  0  0  0  0  0  0  0  0  0  0  0
   10.1205   11.8467    1.5861 N   0  0  0  0  0  0  0  0  0  0  0  0
    8.6902    8.9331   -1.8340 O   0  0  0  0  0  0  0  0  0  0  0  0
  1  2  1  0  0  0  0
  1  6  1  0  0  0  0
  1  8  2  0  0  0  0
  2  3  1  0  0  0  0
  3  4  2  0  0  0  0
  3  7  1  0  0  0  0
  4  5  1  0  0  0  0
  5  6  2  0  0  0  0
M  END
>  <CHROM.1>
9.71196026,10.99027098,-0.90140293,2.33340896,-1.10775243,-1.58765317

>  <Name>
ligand

>  <RI>
0

>  <Rbt.Current_Directory>
/home/itssahil/PROJECTS/Mol_Feturizer/Test_systems_manuscript/rnas/3la5

>  <Rbt.Executable>
rbdock ($Id: //depot/dev/client3/rdock/2013.1/src/exe/rbdock.cxx#4 $)

>  <Rbt.Library>
libRbt.so (2013.1, Build901 2013/11/27)

>  <Rbt.Parameter_File>
/export/apps/rDock/src/rDock_2013.1_src/data/scripts/dock_solv.prm

>  <Rbt.Receptor>
prm/pocket_docking_8.prm

>  <SCORE>
-8.62342

>  <SCORE.INTER>
-8.62342

>  <SCORE.INTER.CONST>
1

>  <SCORE.INTER.POLAR>
0

>  <SCORE.INTER.ROT>
0

>  <SCORE.INTER.SOLV>
8.42578

>  <SCORE.INTER.VDW>
-12.1575

>  <SCORE.INTER.norm>
-1.07793

>  <SCORE.INTRA>
0

>  <SCORE.INTRA.DIHEDRAL>
0

>  <SCORE.INTRA.DIHEDRAL.0>
0

>  <SCORE.INTRA.POLAR>
0

>  <SCORE.INTRA.POLAR.0>
0

>  <SCORE.INTRA.REPUL>
0

>  <SCORE.INTRA.REPUL.0>
0

>  <SCORE.INTRA.SOLV>
0

>  <SCORE.INTRA.SOLV.lig_0>
-29.58

>  <SCORE.INTRA.VDW>
0

>  <SCORE.INTRA.VDW.0>
0

>  <SCORE.INTRA.norm>
0

>  <SCORE.RESTR>
0

>  <SCORE.RESTR.CAVITY>
0

>  <SCORE.RESTR.norm>
0

>  <SCORE.SYSTEM>
0

>  <SCORE.SYSTEM.CONST>
0

>  <SCORE.SYSTEM.DIHEDRAL>
0

>  <SCORE.SYSTEM.SOLV>
0

>  <SCORE.SYSTEM.norm>
0

>  <SCORE.heavy>
8

>  <SCORE.norm>
-1.07793

>  <RMSD>
3.436

$$$$
ligand
 OpenBabel02271912143D
libRbt.so/2013.1/901 2013/11/27
  8  8  0  0  0  0  0  0  0  0999 V2000
    9.2741   10.1084   -1.5098 C   0  0  0  0  0  0  0  0  0  0  0  0
    9.4141   10.3996   -0.2167 N   0  0  0  0  0  0  0  0  0  0  0  0
    9.9889   11.5502    0.1434 C   0  0  0  0  0  0  0  0  0  0  0  0
   10.4134   12.4240   -0.7991 N   0  0  0  0  0  0  0  0  0  0  0  0
   10.2720   12.1162   -2.0994 C   0  0  0  0  0  0  0  0  0  0  0  0
    9.6973   10.9584   -2.4601 N   0  0  0  0  0  0  0  0  0  0  0  0
   10.1305   11.8393    1.5860 N   0  0  0  0  0  0  0  0  0  0  0  0
    8.6861    8.9342   -1.8355 O   0  0  0  0  0  0  0  0  0  0  0  0
  1  2  1  0  0  0  0
  1  6  1  0  0  0  0
  1  8  2  0  0  0  0
  2  3  1  0  0  0  0
  3  4  2  0  0  0  0
  3  7  1  0  0  0  0
  4  5  1  0  0  0  0
  5  6  2  0  0  0  0
M  END
>  <CHROM.1>
9.70908742,10.99042415,-0.90197378,2.34657239,-1.10988293,-1.57249140

>  <Name>
ligand

>  <RI>
0

>  <Rbt.Current_Directory>
/home/itssahil/PROJECTS/Mol_Feturizer/Test_systems_manuscript/rnas/3la5

>  <Rbt.Executable>
rbdock ($Id: //depot/dev/client3/rdock/2013.1/src/exe/rbdock.cxx#4 $)

>  <Rbt.Library>
libRbt.so (2013.1, Build901 2013/11/27)

>  <Rbt.Parameter_File>
/export/apps/rDock/src/rDock_2013.1_src/data/scripts/dock_solv.prm

>  <Rbt.Receptor>
prm/pocket_docking_8.prm

>  <SCORE>
-8.62067

>  <SCORE.INTER>
-8.62067

>  <SCORE.INTER.CONST>
1

>  <SCORE.INTER.POLAR>
0

>  <SCORE.INTER.ROT>
0

>  <SCORE.INTER.SOLV>
8.43217

>  <SCORE.INTER.VDW>
-12.1578

>  <SCORE.INTER.norm>
-1.07758

>  <SCORE.INTRA>
0

>  <SCORE.INTRA.DIHEDRAL>
0

>  <SCORE.INTRA.DIHEDRAL.0>
0

>  <SCORE.INTRA.POLAR>
0

>  <SCORE.INTRA.POLAR.0>
0

>  <SCORE.INTRA.REPUL>
0

>  <SCORE.INTRA.REPUL.0>
0

>  <SCORE.INTRA.SOLV>
0

>  <SCORE.INTRA.SOLV.lig_0>
-29.58

>  <SCORE.INTRA.VDW>
0

>  <SCORE.INTRA.VDW.0>
0

>  <SCORE.INTRA.norm>
0

>  <SCORE.RESTR>
0

>  <SCORE.RESTR.CAVITY>
0

>  <SCORE.RESTR.norm>
0

>  <SCORE.SYSTEM>
0

>  <SCORE.SYSTEM.CONST>
0

>  <SCORE.SYSTEM.DIHEDRAL>
0

>  <SCORE.SYSTEM.SOLV>
0

>  <SCORE.SYSTEM.norm>
0

>  <SCORE.heavy>
8

>  <SCORE.norm>
-1.07758

>  <RMSD>
3.436

$$$$
ligand
 OpenBabel02271912143D
libRbt.so/2013.1/901 2013/11/27
  8  8  0  0  0  0  0  0  0  0999 V2000
    9.2792   10.1052   -1.5085 C   0  0  0  0  0  0  0  0  0  0  0  0
    9.4136   10.4017   -0.2160 N   0  0  0  0  0  0  0  0  0  0  0  0
    9.9879   11.5532    0.1420 C   0  0  0  0  0  0  0  0  0  0  0  0
   10.4177   12.4226   -0.8022 N   0  0  0  0  0  0  0  0  0  0  0  0
   10.2820   12.1096   -2.1018 C   0  0  0  0  0  0  0  0  0  0  0  0
    9.7078   10.9508   -2.4603 N   0  0  0  0  0  0  0  0  0  0  0  0
   10.1233   11.8482    1.5840 N   0  0  0  0  0  0  0  0  0  0  0  0
    8.6914    8.9304   -1.8320 O   0  0  0  0  0  0  0  0  0  0  0  0
  1  2  1  0  0  0  0
  1  6  1  0  0  0  0
  1  8  2  0  0  0  0
  2  3  1  0  0  0  0
  3  4  2  0  0  0  0
  3  7  1  0  0  0  0
  4  5  1  0  0  0  0
  5  6  2  0  0  0  0
M  END
>  <CHROM.1>
9.71236796,10.98934157,-0.90232143,2.33625071,-1.10876695,-1.58590153

>  <Name>
ligand

>  <RI>
0

>  <Rbt.Current_Directory>
/home/itssahil/PROJECTS/Mol_Feturizer/Test_systems_manuscript/rnas/3la5

>  <Rbt.Executable>
rbdock ($Id: //depot/dev/client3/rdock/2013.1/src/exe/rbdock.cxx#4 $)

>  <Rbt.Library>
libRbt.so (2013.1, Build901 2013/11/27)

>  <Rbt.Parameter_File>
/export/apps/rDock/src/rDock_2013.1_src/data/scripts/dock_solv.prm

>  <Rbt.Receptor>
prm/blind_docking_20.prm

>  <SCORE>
-8.62327

>  <SCORE.INTER>
-8.62327

>  <SCORE.INTER.CONST>
1

>  <SCORE.INTER.POLAR>
0

>  <SCORE.INTER.ROT>
0

>  <SCORE.INTER.SOLV>
8.4179

>  <SCORE.INTER.VDW>
-12.1548

>  <SCORE.INTER.norm>
-1.07791

>  <SCORE.INTRA>
0

>  <SCORE.INTRA.DIHEDRAL>
0

>  <SCORE.INTRA.DIHEDRAL.0>
0

>  <SCORE.INTRA.POLAR>
0

>  <SCORE.INTRA.POLAR.0>
0

>  <SCORE.INTRA.REPUL>
0

>  <SCORE.INTRA.REPUL.0>
0

>  <SCORE.INTRA.SOLV>
0

>  <SCORE.INTRA.SOLV.lig_0>
-29.58

>  <SCORE.INTRA.VDW>
0

>  <SCORE.INTRA.VDW.0>
0

>  <SCORE.INTRA.norm>
0

>  <SCORE.RESTR>
0

>  <SCORE.RESTR.CAVITY>
0

>  <SCORE.RESTR.norm>
0

>  <SCORE.SYSTEM>
0

>  <SCORE.SYSTEM.CONST>
0

>  <SCORE.SYSTEM.DIHEDRAL>
0

>  <SCORE.SYSTEM.SOLV>
0

>  <SCORE.SYSTEM.norm>
0

>  <SCORE.heavy>
8

>  <SCORE.norm>
-1.07791

>  <RMSD>
3.437

$$$$
ligand
 OpenBabel02271912143D
libRbt.so/2013.1/901 2013/11/27
  8  8  0  0  0  0  0  0  0  0999 V2000
    9.2804   10.1124   -1.5148 C   0  0  0  0  0  0  0  0  0  0  0  0
    9.4061   10.4090   -0.2215 N   0  0  0  0  0  0  0  0  0  0  0  0
    9.9800   11.5596    0.1402 C   0  0  0  0  0  0  0  0  0  0  0  0
   10.4181   12.4279   -0.8011 N   0  0  0  0  0  0  0  0  0  0  0  0
   10.2910   12.1148   -2.1016 C   0  0  0  0  0  0  0  0  0  0  0  0
    9.7172   10.9570   -2.4639 N   0  0  0  0  0  0  0  0  0  0  0  0
   10.1057   11.8546    1.5830 N   0  0  0  0  0  0  0  0  0  0  0  0
    8.6928    8.9386   -1.8422 O   0  0  0  0  0  0  0  0  0  0  0  0
  1  2  1  0  0  0  0
  1  6  1  0  0  0  0
  1  8  2  0  0  0  0
  2  3  1  0  0  0  0
  3  4  2  0  0  0  0
  3  7  1  0  0  0  0
  4  5  1  0  0  0  0
  5  6  2  0  0  0  0
M  END
>  <CHROM.1>
9.71083054,10.99591615,-0.90588298,2.32051796,-1.10679396,-1.60023714

>  <Name>
ligand

>  <RI>
0

>  <Rbt.Current_Directory>
/home/itssahil/PROJECTS/Mol_Feturizer/Test_systems_manuscript/rnas/3la5

>  <Rbt.Executable>
rbdock ($Id: //depot/dev/client3/rdock/2013.1/src/exe/rbdock.cxx#4 $)

>  <Rbt.Library>
libRbt.so (2013.1, Build901 2013/11/27)

>  <Rbt.Parameter_File>
/export/apps/rDock/src/rDock_2013.1_src/data/scripts/dock_solv.prm

>  <Rbt.Receptor>
prm/blind_docking_60.prm

>  <SCORE>
-8.61885

>  <SCORE.INTER>
-8.61885

>  <SCORE.INTER.CONST>
1

>  <SCORE.INTER.POLAR>
0

>  <SCORE.INTER.ROT>
0

>  <SCORE.INTER.SOLV>
8.42248

>  <SCORE.INTER.VDW>
-12.1534

>  <SCORE.INTER.norm>
-1.07736

>  <SCORE.INTRA>
0

>  <SCORE.INTRA.DIHEDRAL>
0

>  <SCORE.INTRA.DIHEDRAL.0>
0

>  <SCORE.INTRA.POLAR>
0

>  <SCORE.INTRA.POLAR.0>
0

>  <SCORE.INTRA.REPUL>
0

>  <SCORE.INTRA.REPUL.0>
0

>  <SCORE.INTRA.SOLV>
0

>  <SCORE.INTRA.SOLV.lig_0>
-29.58

>  <SCORE.INTRA.VDW>
0

>  <SCORE.INTRA.VDW.0>
0

>  <SCORE.INTRA.norm>
0

>  <SCORE.RESTR>
0

>  <SCORE.RESTR.CAVITY>
0

>  <SCORE.RESTR.norm>
0

>  <SCORE.SYSTEM>
0

>  <SCORE.SYSTEM.CONST>
0

>  <SCORE.SYSTEM.DIHEDRAL>
0

>  <SCORE.SYSTEM.SOLV>
0

>  <SCORE.SYSTEM.norm>
0

>  <SCORE.heavy>
8

>  <SCORE.norm>
-1.07736

>  <RMSD>
3.437

$$$$
ligand
 OpenBabel02271912143D
libRbt.so/2013.1/901 2013/11/27
  8  8  0  0  0  0  0  0  0  0999 V2000
    9.2789   10.1104   -1.5163 C   0  0  0  0  0  0  0  0  0  0  0  0
    9.4184   10.4018   -0.2232 N   0  0  0  0  0  0  0  0  0  0  0  0
   10.0016   11.5482    0.1370 C   0  0  0  0  0  0  0  0  0  0  0  0
   10.4351   12.4176   -0.8054 N   0  0  0  0  0  0  0  0  0  0  0  0
   10.2940   12.1097   -2.1056 C   0  0  0  0  0  0  0  0  0  0  0  0
    9.7109   10.9561   -2.4665 N   0  0  0  0  0  0  0  0  0  0  0  0
   10.1426   11.8375    1.5796 N   0  0  0  0  0  0  0  0  0  0  0  0
    8.6822    8.9407   -1.8421 O   0  0  0  0  0  0  0  0  0  0  0  0
  1  2  1  0  0  0  0
  1  6  1  0  0  0  0
  1  8  2  0  0  0  0
  2  3  1  0  0  0  0
  3  4  2  0  0  0  0
  3  7  1  0  0  0  0
  4  5  1  0  0  0  0
  5  6  2  0  0  0  0
M  END
>  <CHROM.1>
9.71960318,10.98957508,-0.90837746,2.34195567,-1.10191223,-1.57757397

>  <Name>
ligand

>  <RI>
0

>  <Rbt.Current_Directory>
/home/itssahil/PROJECTS/Mol_Feturizer/Test_systems_manuscript/rnas/3la5

>  <Rbt.Executable>
rbdock ($Id: //depot/dev/client3/rdock/2013.1/src/exe/rbdock.cxx#4 $)

>  <Rbt.Library>
libRbt.so (2013.1, Build901 2013/11/27)

>  <Rbt.Parameter_File>
/export/apps/rDock/src/rDock_2013.1_src/data/scripts/dock_solv.prm

>  <Rbt.Receptor>
prm/blind_docking_80.prm

>  <SCORE>
-8.61307

>  <SCORE.INTER>
-8.61307

>  <SCORE.INTER.CONST>
1

>  <SCORE.INTER.POLAR>
0

>  <SCORE.INTER.ROT>
0

>  <SCORE.INTER.SOLV>
8.42031

>  <SCORE.INTER.VDW>
-12.1488

>  <SCORE.INTER.norm>
-1.07663

>  <SCORE.INTRA>
0

>  <SCORE.INTRA.DIHEDRAL>
0

>  <SCORE.INTRA.DIHEDRAL.0>
0

>  <SCORE.INTRA.POLAR>
0

>  <SCORE.INTRA.POLAR.0>
0

>  <SCORE.INTRA.REPUL>
0

>  <SCORE.INTRA.REPUL.0>
0

>  <SCORE.INTRA.SOLV>
0

>  <SCORE.INTRA.SOLV.lig_0>
-29.58

>  <SCORE.INTRA.VDW>
0

>  <SCORE.INTRA.VDW.0>
0

>  <SCORE.INTRA.norm>
0

>  <SCORE.RESTR>
0

>  <SCORE.RESTR.CAVITY>
0

>  <SCORE.RESTR.norm>
0

>  <SCORE.SYSTEM>
0

>  <SCORE.SYSTEM.CONST>
0

>  <SCORE.SYSTEM.DIHEDRAL>
0

>  <SCORE.SYSTEM.SOLV>
0

>  <SCORE.SYSTEM.norm>
0

>  <SCORE.heavy>
8

>  <SCORE.norm>
-1.07663

>  <RMSD>
3.437

$$$$
ligand
 OpenBabel02271912143D
libRbt.so/2013.1/901 2013/11/27
  8  8  0  0  0  0  0  0  0  0999 V2000
    9.2302   10.1219   -1.4948 C   0  0  0  0  0  0  0  0  0  0  0  0
    9.3691   10.4200   -0.2032 N   0  0  0  0  0  0  0  0  0  0  0  0
    9.9721   11.5577    0.1517 C   0  0  0  0  0  0  0  0  0  0  0  0
   10.4264   12.4120   -0.7947 N   0  0  0  0  0  0  0  0  0  0  0  0
   10.2858   12.0974   -2.0934 C   0  0  0  0  0  0  0  0  0  0  0  0
    9.6827   10.9525   -2.4489 N   0  0  0  0  0  0  0  0  0  0  0  0
   10.1116   11.8547    1.5929 N   0  0  0  0  0  0  0  0  0  0  0  0
    8.6132    8.9614   -1.8153 O   0  0  0  0  0  0  0  0  0  0  0  0
  1  2  1  0  0  0  0
  1  6  1  0  0  0  0
  1  8  2  0  0  0  0
  2  3  1  0  0  0  0
  3  4  2  0  0  0  0
  3  7  1  0  0  0  0
  4  5  1  0  0  0  0
  5  6  2  0  0  0  0
M  END
>  <CHROM.1>
9.68459386,10.99699680,-0.89106849,2.33199407,-1.08296177,-1.59359651

>  <Name>
ligand

>  <RI>
0

>  <Rbt.Current_Directory>
/home/itssahil/PROJECTS/Mol_Feturizer/Test_systems_manuscript/rnas/3la5

>  <Rbt.Executable>
rbdock ($Id: //depot/dev/client3/rdock/2013.1/src/exe/rbdock.cxx#4 $)

>  <Rbt.Library>
libRbt.so (2013.1, Build901 2013/11/27)

>  <Rbt.Parameter_File>
/export/apps/rDock/src/rDock_2013.1_src/data/scripts/dock_solv.prm

>  <Rbt.Receptor>
prm/pocket_docking_4.prm

>  <SCORE>
-8.56812

>  <SCORE.INTER>
-8.56812

>  <SCORE.INTER.CONST>
1

>  <SCORE.INTER.POLAR>
0

>  <SCORE.INTER.ROT>
0

>  <SCORE.INTER.SOLV>
8.53153

>  <SCORE.INTER.VDW>
-12.1559

>  <SCORE.INTER.norm>
-1.07101

>  <SCORE.INTRA>
0

>  <SCORE.INTRA.DIHEDRAL>
0

>  <SCORE.INTRA.DIHEDRAL.0>
0

>  <SCORE.INTRA.POLAR>
0

>  <SCORE.INTRA.POLAR.0>
0

>  <SCORE.INTRA.REPUL>
0

>  <SCORE.INTRA.REPUL.0>
0

>  <SCORE.INTRA.SOLV>
0

>  <SCORE.INTRA.SOLV.lig_0>
-29.58

>  <SCORE.INTRA.VDW>
0

>  <SCORE.INTRA.VDW.0>
0

>  <SCORE.INTRA.norm>
0

>  <SCORE.RESTR>
0

>  <SCORE.RESTR.CAVITY>
0

>  <SCORE.RESTR.norm>
0

>  <SCORE.SYSTEM>
0

>  <SCORE.SYSTEM.CONST>
0

>  <SCORE.SYSTEM.DIHEDRAL>
0

>  <SCORE.SYSTEM.SOLV>
0

>  <SCORE.SYSTEM.norm>
0

>  <SCORE.heavy>
8

>  <SCORE.norm>
-1.07101

>  <RMSD>
3.437

$$$$
ligand
 OpenBabel02271912143D
libRbt.so/2013.1/901 2013/11/27
  8  8  0  0  0  0  0  0  0  0999 V2000
    9.2706   10.1112   -1.5088 C   0  0  0  0  0  0  0  0  0  0  0  0
    9.4147   10.4032   -0.2164 N   0  0  0  0  0  0  0  0  0  0  0  0
    9.9875   11.5556    0.1412 C   0  0  0  0  0  0  0  0  0  0  0  0
   10.4057   12.4304   -0.8031 N   0  0  0  0  0  0  0  0  0  0  0  0
   10.2602   12.1218   -2.1027 C   0  0  0  0  0  0  0  0  0  0  0  0
    9.6876   10.9622   -2.4609 N   0  0  0  0  0  0  0  0  0  0  0  0
   10.1338   11.8455    1.5832 N   0  0  0  0  0  0  0  0  0  0  0  0
    8.6848    8.9352   -1.8319 O   0  0  0  0  0  0  0  0  0  0  0  0
  1  2  1  0  0  0  0
  1  6  1  0  0  0  0
  1  8  2  0  0  0  0
  2  3  1  0  0  0  0
  3  4  2  0  0  0  0
  3  7  1  0  0  0  0
  4  5  1  0  0  0  0
  5  6  2  0  0  0  0
M  END
>  <CHROM.1>
9.70530044,10.99467803,-0.90288599,2.35533537,-1.11285105,-1.56490932

>  <Name>
ligand

>  <RI>
0

>  <Rbt.Current_Directory>
/home/itssahil/PROJECTS/Mol_Feturizer/Test_systems_manuscript/rnas/3la5

>  <Rbt.Executable>
rbdock ($Id: //depot/dev/client3/rdock/2013.1/src/exe/rbdock.cxx#4 $)

>  <Rbt.Library>
libRbt.so (2013.1, Build901 2013/11/27)

>  <Rbt.Parameter_File>
/export/apps/rDock/src/rDock_2013.1_src/data/scripts/dock_solv.prm

>  <Rbt.Receptor>
prm/pocket_docking_8.prm

>  <SCORE>
-8.61409

>  <SCORE.INTER>
-8.61409

>  <SCORE.INTER.CONST>
1

>  <SCORE.INTER.POLAR>
0

>  <SCORE.INTER.ROT>
0

>  <SCORE.INTER.SOLV>
8.42349

>  <SCORE.INTER.VDW>
-12.1506

>  <SCORE.INTER.norm>
-1.07676

>  <SCORE.INTRA>
0

>  <SCORE.INTRA.DIHEDRAL>
0

>  <SCORE.INTRA.DIHEDRAL.0>
0

>  <SCORE.INTRA.POLAR>
0

>  <SCORE.INTRA.POLAR.0>
0

>  <SCORE.INTRA.REPUL>
0

>  <SCORE.INTRA.REPUL.0>
0

>  <SCORE.INTRA.SOLV>
0

>  <SCORE.INTRA.SOLV.lig_0>
-29.58

>  <SCORE.INTRA.VDW>
0

>  <SCORE.INTRA.VDW.0>
0

>  <SCORE.INTRA.norm>
0

>  <SCORE.RESTR>
0

>  <SCORE.RESTR.CAVITY>
0

>  <SCORE.RESTR.norm>
0

>  <SCORE.SYSTEM>
0

>  <SCORE.SYSTEM.CONST>
0

>  <SCORE.SYSTEM.DIHEDRAL>
0

>  <SCORE.SYSTEM.SOLV>
0

>  <SCORE.SYSTEM.norm>
0

>  <SCORE.heavy>
8

>  <SCORE.norm>
-1.07676

>  <RMSD>
3.437

$$$$
ligand
 OpenBabel02271912143D
libRbt.so/2013.1/901 2013/11/27
  8  8  0  0  0  0  0  0  0  0999 V2000
    9.2854   10.1025   -1.5145 C   0  0  0  0  0  0  0  0  0  0  0  0
    9.4137   10.3975   -0.2211 N   0  0  0  0  0  0  0  0  0  0  0  0
    9.9898   11.5469    0.1409 C   0  0  0  0  0  0  0  0  0  0  0  0
   10.4274   12.4157   -0.8001 N   0  0  0  0  0  0  0  0  0  0  0  0
   10.2977   12.1042   -2.1007 C   0  0  0  0  0  0  0  0  0  0  0  0
    9.7217   10.9476   -2.4634 N   0  0  0  0  0  0  0  0  0  0  0  0
   10.1183   11.8402    1.5839 N   0  0  0  0  0  0  0  0  0  0  0  0
    8.6957    8.9298   -1.8422 O   0  0  0  0  0  0  0  0  0  0  0  0
  1  2  1  0  0  0  0
  1  6  1  0  0  0  0
  1  8  2  0  0  0  0
  2  3  1  0  0  0  0
  3  4  2  0  0  0  0
  3  7  1  0  0  0  0
  4  5  1  0  0  0  0
  5  6  2  0  0  0  0
M  END
>  <CHROM.1>
9.71806923,10.98475802,-0.90532398,2.32441046,-1.10553751,-1.59563241

>  <Name>
ligand

>  <RI>
0

>  <Rbt.Current_Directory>
/home/itssahil/PROJECTS/Mol_Feturizer/Test_systems_manuscript/rnas/3la5

>  <Rbt.Executable>
rbdock ($Id: //depot/dev/client3/rdock/2013.1/src/exe/rbdock.cxx#4 $)

>  <Rbt.Library>
libRbt.so (2013.1, Build901 2013/11/27)

>  <Rbt.Parameter_File>
/export/apps/rDock/src/rDock_2013.1_src/data/scripts/dock_solv.prm

>  <Rbt.Receptor>
prm/blind_docking_80.prm

>  <SCORE>
-8.61323

>  <SCORE.INTER>
-8.61323

>  <SCORE.INTER.CONST>
1

>  <SCORE.INTER.POLAR>
0

>  <SCORE.INTER.ROT>
0

>  <SCORE.INTER.SOLV>
8.42222

>  <SCORE.INTER.VDW>
-12.1496

>  <SCORE.INTER.norm>
-1.07665

>  <SCORE.INTRA>
0

>  <SCORE.INTRA.DIHEDRAL>
0

>  <SCORE.INTRA.DIHEDRAL.0>
0

>  <SCORE.INTRA.POLAR>
0

>  <SCORE.INTRA.POLAR.0>
0

>  <SCORE.INTRA.REPUL>
0

>  <SCORE.INTRA.REPUL.0>
0

>  <SCORE.INTRA.SOLV>
0

>  <SCORE.INTRA.SOLV.lig_0>
-29.58

>  <SCORE.INTRA.VDW>
0

>  <SCORE.INTRA.VDW.0>
0

>  <SCORE.INTRA.norm>
0

>  <SCORE.RESTR>
0

>  <SCORE.RESTR.CAVITY>
0

>  <SCORE.RESTR.norm>
0

>  <SCORE.SYSTEM>
0

>  <SCORE.SYSTEM.CONST>
0

>  <SCORE.SYSTEM.DIHEDRAL>
0

>  <SCORE.SYSTEM.SOLV>
0

>  <SCORE.SYSTEM.norm>
0

>  <SCORE.heavy>
8

>  <SCORE.norm>
-1.07665

>  <RMSD>
3.438

$$$$
ligand
 OpenBabel02271912143D
libRbt.so/2013.1/901 2013/11/27
  8  8  0  0  0  0  0  0  0  0999 V2000
    9.2751   10.1167   -1.5019 C   0  0  0  0  0  0  0  0  0  0  0  0
    9.4051   10.4274   -0.2124 N   0  0  0  0  0  0  0  0  0  0  0  0
    9.9803   11.5817    0.1349 C   0  0  0  0  0  0  0  0  0  0  0  0
   10.4153   12.4398   -0.8172 N   0  0  0  0  0  0  0  0  0  0  0  0
   10.2838   12.1125   -2.1138 C   0  0  0  0  0  0  0  0  0  0  0  0
    9.7087   10.9509   -2.4615 N   0  0  0  0  0  0  0  0  0  0  0  0
   10.1108   11.8924    1.5741 N   0  0  0  0  0  0  0  0  0  0  0  0
    8.6863    8.9394   -1.8146 O   0  0  0  0  0  0  0  0  0  0  0  0
  1  2  1  0  0  0  0
  1  6  1  0  0  0  0
  1  8  2  0  0  0  0
  2  3  1  0  0  0  0
  3  4  2  0  0  0  0
  3  7  1  0  0  0  0
  4  5  1  0  0  0  0
  5  6  2  0  0  0  0
M  END
>  <CHROM.1>
9.70760681,11.00677078,-0.90405955,2.32796872,-1.10684199,-1.60443516

>  <Name>
ligand

>  <RI>
0

>  <Rbt.Current_Directory>
/home/itssahil/PROJECTS/Mol_Feturizer/Test_systems_manuscript/rnas/3la5

>  <Rbt.Executable>
rbdock ($Id: //depot/dev/client3/rdock/2013.1/src/exe/rbdock.cxx#4 $)

>  <Rbt.Library>
libRbt.so (2013.1, Build901 2013/11/27)

>  <Rbt.Parameter_File>
/export/apps/rDock/src/rDock_2013.1_src/data/scripts/dock_solv.prm

>  <Rbt.Receptor>
prm/pocket_docking_4.prm

>  <SCORE>
-8.58903

>  <SCORE.INTER>
-8.58903

>  <SCORE.INTER.CONST>
1

>  <SCORE.INTER.POLAR>
0

>  <SCORE.INTER.ROT>
0

>  <SCORE.INTER.SOLV>
8.37692

>  <SCORE.INTER.VDW>
-12.1183

>  <SCORE.INTER.norm>
-1.07363

>  <SCORE.INTRA>
0

>  <SCORE.INTRA.DIHEDRAL>
0

>  <SCORE.INTRA.DIHEDRAL.0>
0

>  <SCORE.INTRA.POLAR>
0

>  <SCORE.INTRA.POLAR.0>
0

>  <SCORE.INTRA.REPUL>
0

>  <SCORE.INTRA.REPUL.0>
0

>  <SCORE.INTRA.SOLV>
0

>  <SCORE.INTRA.SOLV.lig_0>
-29.58

>  <SCORE.INTRA.VDW>
0

>  <SCORE.INTRA.VDW.0>
0

>  <SCORE.INTRA.norm>
0

>  <SCORE.RESTR>
0

>  <SCORE.RESTR.CAVITY>
0

>  <SCORE.RESTR.norm>
0

>  <SCORE.SYSTEM>
0

>  <SCORE.SYSTEM.CONST>
0

>  <SCORE.SYSTEM.DIHEDRAL>
0

>  <SCORE.SYSTEM.SOLV>
0

>  <SCORE.SYSTEM.norm>
0

>  <SCORE.heavy>
8

>  <SCORE.norm>
-1.07363

>  <RMSD>
3.438

$$$$
ligand
 OpenBabel02271912143D
libRbt.so/2013.1/901 2013/11/27
  8  8  0  0  0  0  0  0  0  0999 V2000
    9.2749   10.1056   -1.5089 C   0  0  0  0  0  0  0  0  0  0  0  0
    9.4121   10.4007   -0.2164 N   0  0  0  0  0  0  0  0  0  0  0  0
    9.9868   11.5520    0.1415 C   0  0  0  0  0  0  0  0  0  0  0  0
   10.4140   12.4227   -0.8027 N   0  0  0  0  0  0  0  0  0  0  0  0
   10.2755   12.1110   -2.1023 C   0  0  0  0  0  0  0  0  0  0  0  0
    9.7008   10.9524   -2.4608 N   0  0  0  0  0  0  0  0  0  0  0  0
   10.1253   11.8454    1.5835 N   0  0  0  0  0  0  0  0  0  0  0  0
    8.6868    8.9309   -1.8324 O   0  0  0  0  0  0  0  0  0  0  0  0
  1  2  1  0  0  0  0
  1  6  1  0  0  0  0
  1  8  2  0  0  0  0
  2  3  1  0  0  0  0
  3  4  2  0  0  0  0
  3  7  1  0  0  0  0
  4  5  1  0  0  0  0
  5  6  2  0  0  0  0
M  END
>  <CHROM.1>
9.70903933,10.98920979,-0.90279725,2.34140952,-1.10921541,-1.58015892

>  <Name>
ligand

>  <RI>
0

>  <Rbt.Current_Directory>
/home/itssahil/PROJECTS/Mol_Feturizer/Test_systems_manuscript/rnas/3la5

>  <Rbt.Executable>
rbdock ($Id: //depot/dev/client3/rdock/2013.1/src/exe/rbdock.cxx#4 $)

>  <Rbt.Library>
libRbt.so (2013.1, Build901 2013/11/27)

>  <Rbt.Parameter_File>
/export/apps/rDock/src/rDock_2013.1_src/data/scripts/dock_solv.prm

>  <Rbt.Receptor>
prm/pocket_docking_5.prm

>  <SCORE>
-8.62486

>  <SCORE.INTER>
-8.62486

>  <SCORE.INTER.CONST>
1

>  <SCORE.INTER.POLAR>
0

>  <SCORE.INTER.ROT>
0

>  <SCORE.INTER.SOLV>
8.42497

>  <SCORE.INTER.VDW>
-12.1582

>  <SCORE.INTER.norm>
-1.07811

>  <SCORE.INTRA>
0

>  <SCORE.INTRA.DIHEDRAL>
0

>  <SCORE.INTRA.DIHEDRAL.0>
0

>  <SCORE.INTRA.POLAR>
0

>  <SCORE.INTRA.POLAR.0>
0

>  <SCORE.INTRA.REPUL>
0

>  <SCORE.INTRA.REPUL.0>
0

>  <SCORE.INTRA.SOLV>
0

>  <SCORE.INTRA.SOLV.lig_0>
-29.58

>  <SCORE.INTRA.VDW>
0

>  <SCORE.INTRA.VDW.0>
0

>  <SCORE.INTRA.norm>
0

>  <SCORE.RESTR>
0

>  <SCORE.RESTR.CAVITY>
0

>  <SCORE.RESTR.norm>
0

>  <SCORE.SYSTEM>
0

>  <SCORE.SYSTEM.CONST>
0

>  <SCORE.SYSTEM.DIHEDRAL>
0

>  <SCORE.SYSTEM.SOLV>
0

>  <SCORE.SYSTEM.norm>
0

>  <SCORE.heavy>
8

>  <SCORE.norm>
-1.07811

>  <RMSD>
3.438

$$$$
ligand
 OpenBabel02271912143D
libRbt.so/2013.1/901 2013/11/27
  8  8  0  0  0  0  0  0  0  0999 V2000
    9.2769   10.1048   -1.5084 C   0  0  0  0  0  0  0  0  0  0  0  0
    9.4123   10.4007   -0.2159 N   0  0  0  0  0  0  0  0  0  0  0  0
    9.9866   11.5522    0.1421 C   0  0  0  0  0  0  0  0  0  0  0  0
   10.4151   12.4223   -0.8020 N   0  0  0  0  0  0  0  0  0  0  0  0
   10.2783   12.1099   -2.1016 C   0  0  0  0  0  0  0  0  0  0  0  0
    9.7042   10.9512   -2.4603 N   0  0  0  0  0  0  0  0  0  0  0  0
   10.1232   11.8464    1.5841 N   0  0  0  0  0  0  0  0  0  0  0  0
    8.6893    8.9299   -1.8321 O   0  0  0  0  0  0  0  0  0  0  0  0
  1  2  1  0  0  0  0
  1  6  1  0  0  0  0
  1  8  2  0  0  0  0
  2  3  1  0  0  0  0
  3  4  2  0  0  0  0
  3  7  1  0  0  0  0
  4  5  1  0  0  0  0
  5  6  2  0  0  0  0
M  END
>  <CHROM.1>
9.71025670,10.98881233,-0.90223487,2.33837435,-1.10919084,-1.58344899

>  <Name>
ligand

>  <RI>
0

>  <Rbt.Current_Directory>
/home/itssahil/PROJECTS/Mol_Feturizer/Test_systems_manuscript/rnas/3la5

>  <Rbt.Executable>
rbdock ($Id: //depot/dev/client3/rdock/2013.1/src/exe/rbdock.cxx#4 $)

>  <Rbt.Library>
libRbt.so (2013.1, Build901 2013/11/27)

>  <Rbt.Parameter_File>
/export/apps/rDock/src/rDock_2013.1_src/data/scripts/dock_solv.prm

>  <Rbt.Receptor>
prm/pocket_docking_6.prm

>  <SCORE>
-8.62472

>  <SCORE.INTER>
-8.62472

>  <SCORE.INTER.CONST>
1

>  <SCORE.INTER.POLAR>
0

>  <SCORE.INTER.ROT>
0

>  <SCORE.INTER.SOLV>
8.42283

>  <SCORE.INTER.VDW>
-12.1574

>  <SCORE.INTER.norm>
-1.07809

>  <SCORE.INTRA>
0

>  <SCORE.INTRA.DIHEDRAL>
0

>  <SCORE.INTRA.DIHEDRAL.0>
0

>  <SCORE.INTRA.POLAR>
0

>  <SCORE.INTRA.POLAR.0>
0

>  <SCORE.INTRA.REPUL>
0

>  <SCORE.INTRA.REPUL.0>
0

>  <SCORE.INTRA.SOLV>
0

>  <SCORE.INTRA.SOLV.lig_0>
-29.58

>  <SCORE.INTRA.VDW>
0

>  <SCORE.INTRA.VDW.0>
0

>  <SCORE.INTRA.norm>
0

>  <SCORE.RESTR>
0

>  <SCORE.RESTR.CAVITY>
0

>  <SCORE.RESTR.norm>
0

>  <SCORE.SYSTEM>
0

>  <SCORE.SYSTEM.CONST>
0

>  <SCORE.SYSTEM.DIHEDRAL>
0

>  <SCORE.SYSTEM.SOLV>
0

>  <SCORE.SYSTEM.norm>
0

>  <SCORE.heavy>
8

>  <SCORE.norm>
-1.07809

>  <RMSD>
3.438

$$$$
ligand
 OpenBabel02271912143D
libRbt.so/2013.1/901 2013/11/27
  8  8  0  0  0  0  0  0  0  0999 V2000
    9.2786   10.0989   -1.5047 C   0  0  0  0  0  0  0  0  0  0  0  0
    9.4183   10.3960   -0.2130 N   0  0  0  0  0  0  0  0  0  0  0  0
    9.9913   11.5490    0.1420 C   0  0  0  0  0  0  0  0  0  0  0  0
   10.4142   12.4194   -0.8043 N   0  0  0  0  0  0  0  0  0  0  0  0
   10.2731   12.1058   -2.1032 C   0  0  0  0  0  0  0  0  0  0  0  0
    9.7002   10.9455   -2.4588 N   0  0  0  0  0  0  0  0  0  0  0  0
   10.1328   11.8446    1.5833 N   0  0  0  0  0  0  0  0  0  0  0  0
    8.6924    8.9224   -1.8252 O   0  0  0  0  0  0  0  0  0  0  0  0
  1  2  1  0  0  0  0
  1  6  1  0  0  0  0
  1  8  2  0  0  0  0
  2  3  1  0  0  0  0
  3  4  2  0  0  0  0
  3  7  1  0  0  0  0
  4  5  1  0  0  0  0
  5  6  2  0  0  0  0
M  END
>  <CHROM.1>
9.71225263,10.98424507,-0.90081849,2.34703213,-1.11152603,-1.57640357

>  <Name>
ligand

>  <RI>
0

>  <Rbt.Current_Directory>
/home/itssahil/PROJECTS/Mol_Feturizer/Test_systems_manuscript/rnas/3la5

>  <Rbt.Executable>
rbdock ($Id: //depot/dev/client3/rdock/2013.1/src/exe/rbdock.cxx#4 $)

>  <Rbt.Library>
libRbt.so (2013.1, Build901 2013/11/27)

>  <Rbt.Parameter_File>
/export/apps/rDock/src/rDock_2013.1_src/data/scripts/dock_solv.prm

>  <Rbt.Receptor>
prm/pocket_docking_8.prm

>  <SCORE>
-8.59716

>  <SCORE.INTER>
-8.59716

>  <SCORE.INTER.CONST>
1

>  <SCORE.INTER.POLAR>
0

>  <SCORE.INTER.ROT>
0

>  <SCORE.INTER.SOLV>
8.41197

>  <SCORE.INTER.VDW>
-12.1354

>  <SCORE.INTER.norm>
-1.07464

>  <SCORE.INTRA>
0

>  <SCORE.INTRA.DIHEDRAL>
0

>  <SCORE.INTRA.DIHEDRAL.0>
0

>  <SCORE.INTRA.POLAR>
0

>  <SCORE.INTRA.POLAR.0>
0

>  <SCORE.INTRA.REPUL>
0

>  <SCORE.INTRA.REPUL.0>
0

>  <SCORE.INTRA.SOLV>
0

>  <SCORE.INTRA.SOLV.lig_0>
-29.58

>  <SCORE.INTRA.VDW>
0

>  <SCORE.INTRA.VDW.0>
0

>  <SCORE.INTRA.norm>
0

>  <SCORE.RESTR>
0

>  <SCORE.RESTR.CAVITY>
0

>  <SCORE.RESTR.norm>
0

>  <SCORE.SYSTEM>
0

>  <SCORE.SYSTEM.CONST>
0

>  <SCORE.SYSTEM.DIHEDRAL>
0

>  <SCORE.SYSTEM.SOLV>
0

>  <SCORE.SYSTEM.norm>
0

>  <SCORE.heavy>
8

>  <SCORE.norm>
-1.07464

>  <RMSD>
3.438

$$$$
ligand
 OpenBabel02271912143D
libRbt.so/2013.1/901 2013/11/27
  8  8  0  0  0  0  0  0  0  0999 V2000
    9.2751   10.1059   -1.5113 C   0  0  0  0  0  0  0  0  0  0  0  0
    9.4147   10.4002   -0.2189 N   0  0  0  0  0  0  0  0  0  0  0  0
    9.9898   11.5515    0.1386 C   0  0  0  0  0  0  0  0  0  0  0  0
   10.4149   12.4228   -0.8059 N   0  0  0  0  0  0  0  0  0  0  0  0
   10.2739   12.1120   -2.1054 C   0  0  0  0  0  0  0  0  0  0  0  0
    9.6989   10.9534   -2.4635 N   0  0  0  0  0  0  0  0  0  0  0  0
   10.1311   11.8440    1.5805 N   0  0  0  0  0  0  0  0  0  0  0  0
    8.6868    8.9311   -1.8344 O   0  0  0  0  0  0  0  0  0  0  0  0
  1  2  1  0  0  0  0
  1  6  1  0  0  0  0
  1  8  2  0  0  0  0
  2  3  1  0  0  0  0
  3  4  2  0  0  0  0
  3  7  1  0  0  0  0
  4  5  1  0  0  0  0
  5  6  2  0  0  0  0
M  END
>  <CHROM.1>
9.71015274,10.98924408,-0.90549841,2.34586025,-1.10954984,-1.57555268

>  <Name>
ligand

>  <RI>
0

>  <Rbt.Current_Directory>
/home/itssahil/PROJECTS/Mol_Feturizer/Test_systems_manuscript/rnas/3la5

>  <Rbt.Executable>
rbdock ($Id: //depot/dev/client3/rdock/2013.1/src/exe/rbdock.cxx#4 $)

>  <Rbt.Library>
libRbt.so (2013.1, Build901 2013/11/27)

>  <Rbt.Parameter_File>
/export/apps/rDock/src/rDock_2013.1_src/data/scripts/dock_solv.prm

>  <Rbt.Receptor>
prm/blind_docking_100.prm

>  <SCORE>
-8.62201

>  <SCORE.INTER>
-8.62201

>  <SCORE.INTER.CONST>
1

>  <SCORE.INTER.POLAR>
0

>  <SCORE.INTER.ROT>
0

>  <SCORE.INTER.SOLV>
8.41876

>  <SCORE.INTER.VDW>
-12.1543

>  <SCORE.INTER.norm>
-1.07775

>  <SCORE.INTRA>
0

>  <SCORE.INTRA.DIHEDRAL>
0

>  <SCORE.INTRA.DIHEDRAL.0>
0

>  <SCORE.INTRA.POLAR>
0

>  <SCORE.INTRA.POLAR.0>
0

>  <SCORE.INTRA.REPUL>
0

>  <SCORE.INTRA.REPUL.0>
0

>  <SCORE.INTRA.SOLV>
0

>  <SCORE.INTRA.SOLV.lig_0>
-29.58

>  <SCORE.INTRA.VDW>
0

>  <SCORE.INTRA.VDW.0>
0

>  <SCORE.INTRA.norm>
0

>  <SCORE.RESTR>
0

>  <SCORE.RESTR.CAVITY>
0

>  <SCORE.RESTR.norm>
0

>  <SCORE.SYSTEM>
0

>  <SCORE.SYSTEM.CONST>
0

>  <SCORE.SYSTEM.DIHEDRAL>
0

>  <SCORE.SYSTEM.SOLV>
0

>  <SCORE.SYSTEM.norm>
0

>  <SCORE.heavy>
8

>  <SCORE.norm>
-1.07775

>  <RMSD>
3.439

$$$$
ligand
 OpenBabel02271912143D
libRbt.so/2013.1/901 2013/11/27
  8  8  0  0  0  0  0  0  0  0999 V2000
    9.2741   10.1076   -1.5115 C   0  0  0  0  0  0  0  0  0  0  0  0
    9.4106   10.4023   -0.2188 N   0  0  0  0  0  0  0  0  0  0  0  0
    9.9859   11.5531    0.1398 C   0  0  0  0  0  0  0  0  0  0  0  0
   10.4145   12.4236   -0.8039 N   0  0  0  0  0  0  0  0  0  0  0  0
   10.2767   12.1124   -2.1037 C   0  0  0  0  0  0  0  0  0  0  0  0
    9.7015   10.9543   -2.4629 N   0  0  0  0  0  0  0  0  0  0  0  0
   10.1236   11.8461    1.5820 N   0  0  0  0  0  0  0  0  0  0  0  0
    8.6854    8.9334   -1.8356 O   0  0  0  0  0  0  0  0  0  0  0  0
  1  2  1  0  0  0  0
  1  6  1  0  0  0  0
  1  8  2  0  0  0  0
  2  3  1  0  0  0  0
  3  4  2  0  0  0  0
  3  7  1  0  0  0  0
  4  5  1  0  0  0  0
  5  6  2  0  0  0  0
M  END
>  <CHROM.1>
9.70851716,10.99075371,-0.90482851,2.33975982,-1.10843628,-1.58143142

>  <Name>
ligand

>  <RI>
0

>  <Rbt.Current_Directory>
/home/itssahil/PROJECTS/Mol_Feturizer/Test_systems_manuscript/rnas/3la5

>  <Rbt.Executable>
rbdock ($Id: //depot/dev/client3/rdock/2013.1/src/exe/rbdock.cxx#4 $)

>  <Rbt.Library>
libRbt.so (2013.1, Build901 2013/11/27)

>  <Rbt.Parameter_File>
/export/apps/rDock/src/rDock_2013.1_src/data/scripts/dock_solv.prm

>  <Rbt.Receptor>
prm/pocket_docking_4.prm

>  <SCORE>
-8.62375

>  <SCORE.INTER>
-8.62375

>  <SCORE.INTER.CONST>
1

>  <SCORE.INTER.POLAR>
0

>  <SCORE.INTER.ROT>
0

>  <SCORE.INTER.SOLV>
8.42582

>  <SCORE.INTER.VDW>
-12.1578

>  <SCORE.INTER.norm>
-1.07797

>  <SCORE.INTRA>
0

>  <SCORE.INTRA.DIHEDRAL>
0

>  <SCORE.INTRA.DIHEDRAL.0>
0

>  <SCORE.INTRA.POLAR>
0

>  <SCORE.INTRA.POLAR.0>
0

>  <SCORE.INTRA.REPUL>
0

>  <SCORE.INTRA.REPUL.0>
0

>  <SCORE.INTRA.SOLV>
0

>  <SCORE.INTRA.SOLV.lig_0>
-29.58

>  <SCORE.INTRA.VDW>
0

>  <SCORE.INTRA.VDW.0>
0

>  <SCORE.INTRA.norm>
0

>  <SCORE.RESTR>
0

>  <SCORE.RESTR.CAVITY>
0

>  <SCORE.RESTR.norm>
0

>  <SCORE.SYSTEM>
0

>  <SCORE.SYSTEM.CONST>
0

>  <SCORE.SYSTEM.DIHEDRAL>
0

>  <SCORE.SYSTEM.SOLV>
0

>  <SCORE.SYSTEM.norm>
0

>  <SCORE.heavy>
8

>  <SCORE.norm>
-1.07797

>  <RMSD>
3.439

$$$$
ligand
 OpenBabel02271912143D
libRbt.so/2013.1/901 2013/11/27
  8  8  0  0  0  0  0  0  0  0999 V2000
    9.2745   10.1137   -1.5060 C   0  0  0  0  0  0  0  0  0  0  0  0
    9.4053   10.4200   -0.2155 N   0  0  0  0  0  0  0  0  0  0  0  0
    9.9816   11.5726    0.1354 C   0  0  0  0  0  0  0  0  0  0  0  0
   10.4171   12.4334   -0.8141 N   0  0  0  0  0  0  0  0  0  0  0  0
   10.2849   12.1105   -2.1116 C   0  0  0  0  0  0  0  0  0  0  0  0
    9.7086   10.9506   -2.4630 N   0  0  0  0  0  0  0  0  0  0  0  0
   10.1129   11.8785    1.5755 N   0  0  0  0  0  0  0  0  0  0  0  0
    8.6845    8.9379   -1.8223 O   0  0  0  0  0  0  0  0  0  0  0  0
  1  2  1  0  0  0  0
  1  6  1  0  0  0  0
  1  8  2  0  0  0  0
  2  3  1  0  0  0  0
  3  4  2  0  0  0  0
  3  7  1  0  0  0  0
  4  5  1  0  0  0  0
  5  6  2  0  0  0  0
M  END
>  <CHROM.1>
9.70803788,11.00131615,-0.90537730,2.32880870,-1.10591694,-1.60040880

>  <Name>
ligand

>  <RI>
0

>  <Rbt.Current_Directory>
/home/itssahil/PROJECTS/Mol_Feturizer/Test_systems_manuscript/rnas/3la5

>  <Rbt.Executable>
rbdock ($Id: //depot/dev/client3/rdock/2013.1/src/exe/rbdock.cxx#4 $)

>  <Rbt.Library>
libRbt.so (2013.1, Build901 2013/11/27)

>  <Rbt.Parameter_File>
/export/apps/rDock/src/rDock_2013.1_src/data/scripts/dock_solv.prm

>  <Rbt.Receptor>
prm/pocket_docking_4.prm

>  <SCORE>
-8.59086

>  <SCORE.INTER>
-8.59086

>  <SCORE.INTER.CONST>
1

>  <SCORE.INTER.POLAR>
0

>  <SCORE.INTER.ROT>
0

>  <SCORE.INTER.SOLV>
8.39336

>  <SCORE.INTER.VDW>
-12.125

>  <SCORE.INTER.norm>
-1.07386

>  <SCORE.INTRA>
0

>  <SCORE.INTRA.DIHEDRAL>
0

>  <SCORE.INTRA.DIHEDRAL.0>
0

>  <SCORE.INTRA.POLAR>
0

>  <SCORE.INTRA.POLAR.0>
0

>  <SCORE.INTRA.REPUL>
0

>  <SCORE.INTRA.REPUL.0>
0

>  <SCORE.INTRA.SOLV>
0

>  <SCORE.INTRA.SOLV.lig_0>
-29.58

>  <SCORE.INTRA.VDW>
0

>  <SCORE.INTRA.VDW.0>
0

>  <SCORE.INTRA.norm>
0

>  <SCORE.RESTR>
0

>  <SCORE.RESTR.CAVITY>
0

>  <SCORE.RESTR.norm>
0

>  <SCORE.SYSTEM>
0

>  <SCORE.SYSTEM.CONST>
0

>  <SCORE.SYSTEM.DIHEDRAL>
0

>  <SCORE.SYSTEM.SOLV>
0

>  <SCORE.SYSTEM.norm>
0

>  <SCORE.heavy>
8

>  <SCORE.norm>
-1.07386

>  <RMSD>
3.439

$$$$
ligand
 OpenBabel02271912143D
libRbt.so/2013.1/901 2013/11/27
  8  8  0  0  0  0  0  0  0  0999 V2000
    9.2780   10.1063   -1.5107 C   0  0  0  0  0  0  0  0  0  0  0  0
    9.4135   10.4033   -0.2185 N   0  0  0  0  0  0  0  0  0  0  0  0
    9.9883   11.5549    0.1385 C   0  0  0  0  0  0  0  0  0  0  0  0
   10.4173   12.4239   -0.8063 N   0  0  0  0  0  0  0  0  0  0  0  0
   10.2804   12.1104   -2.1057 C   0  0  0  0  0  0  0  0  0  0  0  0
    9.7057   10.9516   -2.4633 N   0  0  0  0  0  0  0  0  0  0  0  0
   10.1249   11.8503    1.5803 N   0  0  0  0  0  0  0  0  0  0  0  0
    8.6898    8.9314   -1.8333 O   0  0  0  0  0  0  0  0  0  0  0  0
  1  2  1  0  0  0  0
  1  6  1  0  0  0  0
  1  8  2  0  0  0  0
  2  3  1  0  0  0  0
  3  4  2  0  0  0  0
  3  7  1  0  0  0  0
  4  5  1  0  0  0  0
  5  6  2  0  0  0  0
M  END
>  <CHROM.1>
9.71171613,10.99064802,-0.90529777,2.33827103,-1.10872278,-1.58445591

>  <Name>
ligand

>  <RI>
0

>  <Rbt.Current_Directory>
/home/itssahil/PROJECTS/Mol_Feturizer/Test_systems_manuscript/rnas/3la5

>  <Rbt.Executable>
rbdock ($Id: //depot/dev/client3/rdock/2013.1/src/exe/rbdock.cxx#4 $)

>  <Rbt.Library>
libRbt.so (2013.1, Build901 2013/11/27)

>  <Rbt.Parameter_File>
/export/apps/rDock/src/rDock_2013.1_src/data/scripts/dock_solv.prm

>  <Rbt.Receptor>
prm/pocket_docking_7.prm

>  <SCORE>
-8.62245

>  <SCORE.INTER>
-8.62245

>  <SCORE.INTER.CONST>
1

>  <SCORE.INTER.POLAR>
0

>  <SCORE.INTER.ROT>
0

>  <SCORE.INTER.SOLV>
8.41246

>  <SCORE.INTER.VDW>
-12.1525

>  <SCORE.INTER.norm>
-1.07781

>  <SCORE.INTRA>
0

>  <SCORE.INTRA.DIHEDRAL>
0

>  <SCORE.INTRA.DIHEDRAL.0>
0

>  <SCORE.INTRA.POLAR>
0

>  <SCORE.INTRA.POLAR.0>
0

>  <SCORE.INTRA.REPUL>
0

>  <SCORE.INTRA.REPUL.0>
0

>  <SCORE.INTRA.SOLV>
0

>  <SCORE.INTRA.SOLV.lig_0>
-29.58

>  <SCORE.INTRA.VDW>
0

>  <SCORE.INTRA.VDW.0>
0

>  <SCORE.INTRA.norm>
0

>  <SCORE.RESTR>
0

>  <SCORE.RESTR.CAVITY>
0

>  <SCORE.RESTR.norm>
0

>  <SCORE.SYSTEM>
0

>  <SCORE.SYSTEM.CONST>
0

>  <SCORE.SYSTEM.DIHEDRAL>
0

>  <SCORE.SYSTEM.SOLV>
0

>  <SCORE.SYSTEM.norm>
0

>  <SCORE.heavy>
8

>  <SCORE.norm>
-1.07781

>  <RMSD>
3.439

$$$$
ligand
 OpenBabel02271912143D
libRbt.so/2013.1/901 2013/11/27
  8  8  0  0  0  0  0  0  0  0999 V2000
    9.2758   10.1048   -1.5089 C   0  0  0  0  0  0  0  0  0  0  0  0
    9.4111   10.4031   -0.2170 N   0  0  0  0  0  0  0  0  0  0  0  0
    9.9860   11.5549    0.1390 C   0  0  0  0  0  0  0  0  0  0  0  0
   10.4155   12.4229   -0.8066 N   0  0  0  0  0  0  0  0  0  0  0  0
   10.2789   12.1080   -2.1057 C   0  0  0  0  0  0  0  0  0  0  0  0
    9.7040   10.9490   -2.4623 N   0  0  0  0  0  0  0  0  0  0  0  0
   10.1223   11.8518    1.5805 N   0  0  0  0  0  0  0  0  0  0  0  0
    8.6875    8.9297   -1.8305 O   0  0  0  0  0  0  0  0  0  0  0  0
  1  2  1  0  0  0  0
  1  6  1  0  0  0  0
  1  8  2  0  0  0  0
  2  3  1  0  0  0  0
  3  4  2  0  0  0  0
  3  7  1  0  0  0  0
  4  5  1  0  0  0  0
  5  6  2  0  0  0  0
M  END
>  <CHROM.1>
9.70963280,10.98968237,-0.90430564,2.33766777,-1.10847154,-1.58602499

>  <Name>
ligand

>  <RI>
0

>  <Rbt.Current_Directory>
/home/itssahil/PROJECTS/Mol_Feturizer/Test_systems_manuscript/rnas/3la5

>  <Rbt.Executable>
rbdock ($Id: //depot/dev/client3/rdock/2013.1/src/exe/rbdock.cxx#4 $)

>  <Rbt.Library>
libRbt.so (2013.1, Build901 2013/11/27)

>  <Rbt.Parameter_File>
/export/apps/rDock/src/rDock_2013.1_src/data/scripts/dock_solv.prm

>  <Rbt.Receptor>
prm/pocket_docking_8.prm

>  <SCORE>
-8.62598

>  <SCORE.INTER>
-8.62598

>  <SCORE.INTER.CONST>
1

>  <SCORE.INTER.POLAR>
0

>  <SCORE.INTER.ROT>
0

>  <SCORE.INTER.SOLV>
8.4156

>  <SCORE.INTER.VDW>
-12.1559

>  <SCORE.INTER.norm>
-1.07825

>  <SCORE.INTRA>
0

>  <SCORE.INTRA.DIHEDRAL>
0

>  <SCORE.INTRA.DIHEDRAL.0>
0

>  <SCORE.INTRA.POLAR>
0

>  <SCORE.INTRA.POLAR.0>
0

>  <SCORE.INTRA.REPUL>
0

>  <SCORE.INTRA.REPUL.0>
0

>  <SCORE.INTRA.SOLV>
0

>  <SCORE.INTRA.SOLV.lig_0>
-29.58

>  <SCORE.INTRA.VDW>
0

>  <SCORE.INTRA.VDW.0>
0

>  <SCORE.INTRA.norm>
0

>  <SCORE.RESTR>
0

>  <SCORE.RESTR.CAVITY>
0

>  <SCORE.RESTR.norm>
0

>  <SCORE.SYSTEM>
0

>  <SCORE.SYSTEM.CONST>
0

>  <SCORE.SYSTEM.DIHEDRAL>
0

>  <SCORE.SYSTEM.SOLV>
0

>  <SCORE.SYSTEM.norm>
0

>  <SCORE.heavy>
8

>  <SCORE.norm>
-1.07825

>  <RMSD>
3.439

$$$$
ligand
 OpenBabel02271912143D
libRbt.so/2013.1/901 2013/11/27
  8  8  0  0  0  0  0  0  0  0999 V2000
    9.2731   10.1051   -1.5100 C   0  0  0  0  0  0  0  0  0  0  0  0
    9.4121   10.4012   -0.2179 N   0  0  0  0  0  0  0  0  0  0  0  0
    9.9845   11.5542    0.1384 C   0  0  0  0  0  0  0  0  0  0  0  0
   10.4076   12.4255   -0.8070 N   0  0  0  0  0  0  0  0  0  0  0  0
   10.2673   12.1129   -2.1062 C   0  0  0  0  0  0  0  0  0  0  0  0
    9.6950   10.9526   -2.4631 N   0  0  0  0  0  0  0  0  0  0  0  0
   10.1250   11.8486    1.5800 N   0  0  0  0  0  0  0  0  0  0  0  0
    8.6875    8.9287   -1.8318 O   0  0  0  0  0  0  0  0  0  0  0  0
  1  2  1  0  0  0  0
  1  6  1  0  0  0  0
  1  8  2  0  0  0  0
  2  3  1  0  0  0  0
  3  4  2  0  0  0  0
  3  7  1  0  0  0  0
  4  5  1  0  0  0  0
  5  6  2  0  0  0  0
M  END
>  <CHROM.1>
9.70617784,10.99016977,-0.90510688,2.34575013,-1.11184221,-1.57674198

>  <Name>
ligand

>  <RI>
0

>  <Rbt.Current_Directory>
/home/itssahil/PROJECTS/Mol_Feturizer/Test_systems_manuscript/rnas/3la5

>  <Rbt.Executable>
rbdock ($Id: //depot/dev/client3/rdock/2013.1/src/exe/rbdock.cxx#4 $)

>  <Rbt.Library>
libRbt.so (2013.1, Build901 2013/11/27)

>  <Rbt.Parameter_File>
/export/apps/rDock/src/rDock_2013.1_src/data/scripts/dock_solv.prm

>  <Rbt.Receptor>
prm/blind_docking_80.prm

>  <SCORE>
-8.62302

>  <SCORE.INTER>
-8.62302

>  <SCORE.INTER.CONST>
1

>  <SCORE.INTER.POLAR>
0

>  <SCORE.INTER.ROT>
0

>  <SCORE.INTER.SOLV>
8.41742

>  <SCORE.INTER.VDW>
-12.1545

>  <SCORE.INTER.norm>
-1.07788

>  <SCORE.INTRA>
0

>  <SCORE.INTRA.DIHEDRAL>
0

>  <SCORE.INTRA.DIHEDRAL.0>
0

>  <SCORE.INTRA.POLAR>
0

>  <SCORE.INTRA.POLAR.0>
0

>  <SCORE.INTRA.REPUL>
0

>  <SCORE.INTRA.REPUL.0>
0

>  <SCORE.INTRA.SOLV>
0

>  <SCORE.INTRA.SOLV.lig_0>
-29.58

>  <SCORE.INTRA.VDW>
0

>  <SCORE.INTRA.VDW.0>
0

>  <SCORE.INTRA.norm>
0

>  <SCORE.RESTR>
0

>  <SCORE.RESTR.CAVITY>
0

>  <SCORE.RESTR.norm>
0

>  <SCORE.SYSTEM>
0

>  <SCORE.SYSTEM.CONST>
0

>  <SCORE.SYSTEM.DIHEDRAL>
0

>  <SCORE.SYSTEM.SOLV>
0

>  <SCORE.SYSTEM.norm>
0

>  <SCORE.heavy>
8

>  <SCORE.norm>
-1.07788

>  <RMSD>
3.440

$$$$
ligand
 OpenBabel02271912143D
libRbt.so/2013.1/901 2013/11/27
  8  8  0  0  0  0  0  0  0  0999 V2000
    9.2765   10.1051   -1.5124 C   0  0  0  0  0  0  0  0  0  0  0  0
    9.4115   10.4009   -0.2199 N   0  0  0  0  0  0  0  0  0  0  0  0
    9.9861   11.5521    0.1385 C   0  0  0  0  0  0  0  0  0  0  0  0
   10.4156   12.4220   -0.8054 N   0  0  0  0  0  0  0  0  0  0  0  0
   10.2792   12.1097   -2.1051 C   0  0  0  0  0  0  0  0  0  0  0  0
    9.7046   10.9512   -2.4640 N   0  0  0  0  0  0  0  0  0  0  0  0
   10.1222   11.8462    1.5806 N   0  0  0  0  0  0  0  0  0  0  0  0
    8.6884    8.9305   -1.8363 O   0  0  0  0  0  0  0  0  0  0  0  0
  1  2  1  0  0  0  0
  1  6  1  0  0  0  0
  1  8  2  0  0  0  0
  2  3  1  0  0  0  0
  3  4  2  0  0  0  0
  3  7  1  0  0  0  0
  4  5  1  0  0  0  0
  5  6  2  0  0  0  0
M  END
>  <CHROM.1>
9.71001567,10.98884377,-0.90600448,2.33734292,-1.10867102,-1.58435821

>  <Name>
ligand

>  <RI>
0

>  <Rbt.Current_Directory>
/home/itssahil/PROJECTS/Mol_Feturizer/Test_systems_manuscript/rnas/3la5

>  <Rbt.Executable>
rbdock ($Id: //depot/dev/client3/rdock/2013.1/src/exe/rbdock.cxx#4 $)

>  <Rbt.Library>
libRbt.so (2013.1, Build901 2013/11/27)

>  <Rbt.Parameter_File>
/export/apps/rDock/src/rDock_2013.1_src/data/scripts/dock_solv.prm

>  <Rbt.Receptor>
prm/pocket_docking_4.prm

>  <SCORE>
-8.62323

>  <SCORE.INTER>
-8.62323

>  <SCORE.INTER.CONST>
1

>  <SCORE.INTER.POLAR>
0

>  <SCORE.INTER.ROT>
0

>  <SCORE.INTER.SOLV>
8.42056

>  <SCORE.INTER.VDW>
-12.1557

>  <SCORE.INTER.norm>
-1.0779

>  <SCORE.INTRA>
0

>  <SCORE.INTRA.DIHEDRAL>
0

>  <SCORE.INTRA.DIHEDRAL.0>
0

>  <SCORE.INTRA.POLAR>
0

>  <SCORE.INTRA.POLAR.0>
0

>  <SCORE.INTRA.REPUL>
0

>  <SCORE.INTRA.REPUL.0>
0

>  <SCORE.INTRA.SOLV>
0

>  <SCORE.INTRA.SOLV.lig_0>
-29.58

>  <SCORE.INTRA.VDW>
0

>  <SCORE.INTRA.VDW.0>
0

>  <SCORE.INTRA.norm>
0

>  <SCORE.RESTR>
0

>  <SCORE.RESTR.CAVITY>
0

>  <SCORE.RESTR.norm>
0

>  <SCORE.SYSTEM>
0

>  <SCORE.SYSTEM.CONST>
0

>  <SCORE.SYSTEM.DIHEDRAL>
0

>  <SCORE.SYSTEM.SOLV>
0

>  <SCORE.SYSTEM.norm>
0

>  <SCORE.heavy>
8

>  <SCORE.norm>
-1.0779

>  <RMSD>
3.440

$$$$
ligand
 OpenBabel02271912143D
libRbt.so/2013.1/901 2013/11/27
  8  8  0  0  0  0  0  0  0  0999 V2000
    9.2847   10.1082   -1.5213 C   0  0  0  0  0  0  0  0  0  0  0  0
    9.4029   10.4062   -0.2276 N   0  0  0  0  0  0  0  0  0  0  0  0
    9.9694   11.5597    0.1362 C   0  0  0  0  0  0  0  0  0  0  0  0
   10.4076   12.4297   -0.8035 N   0  0  0  0  0  0  0  0  0  0  0  0
   10.2882   12.1152   -2.1044 C   0  0  0  0  0  0  0  0  0  0  0  0
    9.7218   10.9544   -2.4687 N   0  0  0  0  0  0  0  0  0  0  0  0
   10.0869   11.8562    1.5795 N   0  0  0  0  0  0  0  0  0  0  0  0
    8.7045    8.9313   -1.8508 O   0  0  0  0  0  0  0  0  0  0  0  0
  1  2  1  0  0  0  0
  1  6  1  0  0  0  0
  1  8  2  0  0  0  0
  2  3  1  0  0  0  0
  3  4  2  0  0  0  0
  3  7  1  0  0  0  0
  4  5  1  0  0  0  0
  5  6  2  0  0  0  0
M  END
>  <CHROM.1>
9.70795715,10.99416158,-0.91080460,2.30960583,-1.11158385,-1.61055986

>  <Name>
ligand

>  <RI>
0

>  <Rbt.Current_Directory>
/home/itssahil/PROJECTS/Mol_Feturizer/Test_systems_manuscript/rnas/3la5

>  <Rbt.Executable>
rbdock ($Id: //depot/dev/client3/rdock/2013.1/src/exe/rbdock.cxx#4 $)

>  <Rbt.Library>
libRbt.so (2013.1, Build901 2013/11/27)

>  <Rbt.Parameter_File>
/export/apps/rDock/src/rDock_2013.1_src/data/scripts/dock_solv.prm

>  <Rbt.Receptor>
prm/blind_docking_100.prm

>  <SCORE>
-8.61334

>  <SCORE.INTER>
-8.61334

>  <SCORE.INTER.CONST>
1

>  <SCORE.INTER.POLAR>
0

>  <SCORE.INTER.ROT>
0

>  <SCORE.INTER.SOLV>
8.4148

>  <SCORE.INTER.VDW>
-12.1472

>  <SCORE.INTER.norm>
-1.07667

>  <SCORE.INTRA>
0

>  <SCORE.INTRA.DIHEDRAL>
0

>  <SCORE.INTRA.DIHEDRAL.0>
0

>  <SCORE.INTRA.POLAR>
0

>  <SCORE.INTRA.POLAR.0>
0

>  <SCORE.INTRA.REPUL>
0

>  <SCORE.INTRA.REPUL.0>
0

>  <SCORE.INTRA.SOLV>
0

>  <SCORE.INTRA.SOLV.lig_0>
-29.58

>  <SCORE.INTRA.VDW>
0

>  <SCORE.INTRA.VDW.0>
0

>  <SCORE.INTRA.norm>
0

>  <SCORE.RESTR>
0

>  <SCORE.RESTR.CAVITY>
0

>  <SCORE.RESTR.norm>
0

>  <SCORE.SYSTEM>
0

>  <SCORE.SYSTEM.CONST>
0

>  <SCORE.SYSTEM.DIHEDRAL>
0

>  <SCORE.SYSTEM.SOLV>
0

>  <SCORE.SYSTEM.norm>
0

>  <SCORE.heavy>
8

>  <SCORE.norm>
-1.07667

>  <RMSD>
3.441

$$$$
ligand
 OpenBabel02271912143D
libRbt.so/2013.1/901 2013/11/27
  8  8  0  0  0  0  0  0  0  0999 V2000
    9.2738   10.1082   -1.5153 C   0  0  0  0  0  0  0  0  0  0  0  0
    9.4249   10.4005   -0.2237 N   0  0  0  0  0  0  0  0  0  0  0  0
    9.9985   11.5535    0.1305 C   0  0  0  0  0  0  0  0  0  0  0  0
   10.4106   12.4286   -0.8162 N   0  0  0  0  0  0  0  0  0  0  0  0
   10.2581   12.1197   -2.1150 C   0  0  0  0  0  0  0  0  0  0  0  0
    9.6846   10.9595   -2.4699 N   0  0  0  0  0  0  0  0  0  0  0  0
   10.1527   11.8437    1.5716 N   0  0  0  0  0  0  0  0  0  0  0  0
    8.6874    8.9316   -1.8350 O   0  0  0  0  0  0  0  0  0  0  0  0
  1  2  1  0  0  0  0
  1  6  1  0  0  0  0
  1  8  2  0  0  0  0
  2  3  1  0  0  0  0
  3  4  2  0  0  0  0
  3  7  1  0  0  0  0
  4  5  1  0  0  0  0
  5  6  2  0  0  0  0
M  END
>  <CHROM.1>
9.71101400,10.99216346,-0.91192951,2.36810817,-1.11377699,-1.55354907

>  <Name>
ligand

>  <RI>
0

>  <Rbt.Current_Directory>
/home/itssahil/PROJECTS/Mol_Feturizer/Test_systems_manuscript/rnas/3la5

>  <Rbt.Executable>
rbdock ($Id: //depot/dev/client3/rdock/2013.1/src/exe/rbdock.cxx#4 $)

>  <Rbt.Library>
libRbt.so (2013.1, Build901 2013/11/27)

>  <Rbt.Parameter_File>
/export/apps/rDock/src/rDock_2013.1_src/data/scripts/dock_solv.prm

>  <Rbt.Receptor>
prm/pocket_docking_4.prm

>  <SCORE>
-8.60673

>  <SCORE.INTER>
-8.60673

>  <SCORE.INTER.CONST>
1

>  <SCORE.INTER.POLAR>
0

>  <SCORE.INTER.ROT>
0

>  <SCORE.INTER.SOLV>
8.39317

>  <SCORE.INTER.VDW>
-12.1355

>  <SCORE.INTER.norm>
-1.07584

>  <SCORE.INTRA>
0

>  <SCORE.INTRA.DIHEDRAL>
0

>  <SCORE.INTRA.DIHEDRAL.0>
0

>  <SCORE.INTRA.POLAR>
0

>  <SCORE.INTRA.POLAR.0>
0

>  <SCORE.INTRA.REPUL>
0

>  <SCORE.INTRA.REPUL.0>
0

>  <SCORE.INTRA.SOLV>
0

>  <SCORE.INTRA.SOLV.lig_0>
-29.58

>  <SCORE.INTRA.VDW>
0

>  <SCORE.INTRA.VDW.0>
0

>  <SCORE.INTRA.norm>
0

>  <SCORE.RESTR>
0

>  <SCORE.RESTR.CAVITY>
0

>  <SCORE.RESTR.norm>
0

>  <SCORE.SYSTEM>
0

>  <SCORE.SYSTEM.CONST>
0

>  <SCORE.SYSTEM.DIHEDRAL>
0

>  <SCORE.SYSTEM.SOLV>
0

>  <SCORE.SYSTEM.norm>
0

>  <SCORE.heavy>
8

>  <SCORE.norm>
-1.07584

>  <RMSD>
3.441

$$$$
ligand
 OpenBabel02271912143D
libRbt.so/2013.1/901 2013/11/27
  8  8  0  0  0  0  0  0  0  0999 V2000
    9.2773   10.1039   -1.5154 C   0  0  0  0  0  0  0  0  0  0  0  0
    9.3958   10.4017   -0.2217 N   0  0  0  0  0  0  0  0  0  0  0  0
    9.9573   11.5577    0.1420 C   0  0  0  0  0  0  0  0  0  0  0  0
   10.3900   12.4304   -0.7978 N   0  0  0  0  0  0  0  0  0  0  0  0
   10.2703   12.1161   -2.0987 C   0  0  0  0  0  0  0  0  0  0  0  0
    9.7090   10.9528   -2.4629 N   0  0  0  0  0  0  0  0  0  0  0  0
   10.0753   11.8540    1.5853 N   0  0  0  0  0  0  0  0  0  0  0  0
    8.7023    8.9244   -1.8447 O   0  0  0  0  0  0  0  0  0  0  0  0
  1  2  1  0  0  0  0
  1  6  1  0  0  0  0
  1  8  2  0  0  0  0
  2  3  1  0  0  0  0
  3  4  2  0  0  0  0
  3  7  1  0  0  0  0
  4  5  1  0  0  0  0
  5  6  2  0  0  0  0
M  END
>  <CHROM.1>
9.69709742,10.99153752,-0.90497277,2.31230789,-1.11644218,-1.60756548

>  <Name>
ligand

>  <RI>
0

>  <Rbt.Current_Directory>
/home/itssahil/PROJECTS/Mol_Feturizer/Test_systems_manuscript/rnas/3la5

>  <Rbt.Executable>
rbdock ($Id: //depot/dev/client3/rdock/2013.1/src/exe/rbdock.cxx#4 $)

>  <Rbt.Library>
libRbt.so (2013.1, Build901 2013/11/27)

>  <Rbt.Parameter_File>
/export/apps/rDock/src/rDock_2013.1_src/data/scripts/dock_solv.prm

>  <Rbt.Receptor>
prm/blind_docking_20.prm

>  <SCORE>
-8.58671

>  <SCORE.INTER>
-8.58671

>  <SCORE.INTER.CONST>
1

>  <SCORE.INTER.POLAR>
0

>  <SCORE.INTER.ROT>
0

>  <SCORE.INTER.SOLV>
8.43523

>  <SCORE.INTER.VDW>
-12.1362

>  <SCORE.INTER.norm>
-1.07334

>  <SCORE.INTRA>
0

>  <SCORE.INTRA.DIHEDRAL>
0

>  <SCORE.INTRA.DIHEDRAL.0>
0

>  <SCORE.INTRA.POLAR>
0

>  <SCORE.INTRA.POLAR.0>
0

>  <SCORE.INTRA.REPUL>
0

>  <SCORE.INTRA.REPUL.0>
0

>  <SCORE.INTRA.SOLV>
0

>  <SCORE.INTRA.SOLV.lig_0>
-29.58

>  <SCORE.INTRA.VDW>
0

>  <SCORE.INTRA.VDW.0>
0

>  <SCORE.INTRA.norm>
0

>  <SCORE.RESTR>
0

>  <SCORE.RESTR.CAVITY>
0

>  <SCORE.RESTR.norm>
0

>  <SCORE.SYSTEM>
0

>  <SCORE.SYSTEM.CONST>
0

>  <SCORE.SYSTEM.DIHEDRAL>
0

>  <SCORE.SYSTEM.SOLV>
0

>  <SCORE.SYSTEM.norm>
0

>  <SCORE.heavy>
8

>  <SCORE.norm>
-1.07334

>  <RMSD>
3.442

$$$$
ligand
 OpenBabel02271912143D
libRbt.so/2013.1/901 2013/11/27
  8  8  0  0  0  0  0  0  0  0999 V2000
    9.2795   10.0897   -1.5091 C   0  0  0  0  0  0  0  0  0  0  0  0
    9.4226   10.3854   -0.2173 N   0  0  0  0  0  0  0  0  0  0  0  0
    9.9940   11.5393    0.1375 C   0  0  0  0  0  0  0  0  0  0  0  0
   10.4118   12.4120   -0.8090 N   0  0  0  0  0  0  0  0  0  0  0  0
   10.2674   12.0999   -2.1078 C   0  0  0  0  0  0  0  0  0  0  0  0
    9.6961   10.9386   -2.4633 N   0  0  0  0  0  0  0  0  0  0  0  0
   10.1393   11.8332    1.5787 N   0  0  0  0  0  0  0  0  0  0  0  0
    8.6952    8.9123   -1.8294 O   0  0  0  0  0  0  0  0  0  0  0  0
  1  2  1  0  0  0  0
  1  6  1  0  0  0  0
  1  8  2  0  0  0  0
  2  3  1  0  0  0  0
  3  4  2  0  0  0  0
  3  7  1  0  0  0  0
  4  5  1  0  0  0  0
  5  6  2  0  0  0  0
M  END
>  <CHROM.1>
9.71297598,10.97530888,-0.90528849,2.35414204,-1.11390814,-1.56864102

>  <Name>
ligand

>  <RI>
0

>  <Rbt.Current_Directory>
/home/itssahil/PROJECTS/Mol_Feturizer/Test_systems_manuscript/rnas/3la5

>  <Rbt.Executable>
rbdock ($Id: //depot/dev/client3/rdock/2013.1/src/exe/rbdock.cxx#4 $)

>  <Rbt.Library>
libRbt.so (2013.1, Build901 2013/11/27)

>  <Rbt.Parameter_File>
/export/apps/rDock/src/rDock_2013.1_src/data/scripts/dock_solv.prm

>  <Rbt.Receptor>
prm/pocket_docking_4.prm

>  <SCORE>
-8.59331

>  <SCORE.INTER>
-8.59331

>  <SCORE.INTER.CONST>
1

>  <SCORE.INTER.POLAR>
0

>  <SCORE.INTER.ROT>
0

>  <SCORE.INTER.SOLV>
8.40757

>  <SCORE.INTER.VDW>
-12.1314

>  <SCORE.INTER.norm>
-1.07416

>  <SCORE.INTRA>
0

>  <SCORE.INTRA.DIHEDRAL>
0

>  <SCORE.INTRA.DIHEDRAL.0>
0

>  <SCORE.INTRA.POLAR>
0

>  <SCORE.INTRA.POLAR.0>
0

>  <SCORE.INTRA.REPUL>
0

>  <SCORE.INTRA.REPUL.0>
0

>  <SCORE.INTRA.SOLV>
0

>  <SCORE.INTRA.SOLV.lig_0>
-29.58

>  <SCORE.INTRA.VDW>
0

>  <SCORE.INTRA.VDW.0>
0

>  <SCORE.INTRA.norm>
0

>  <SCORE.RESTR>
0

>  <SCORE.RESTR.CAVITY>
0

>  <SCORE.RESTR.norm>
0

>  <SCORE.SYSTEM>
0

>  <SCORE.SYSTEM.CONST>
0

>  <SCORE.SYSTEM.DIHEDRAL>
0

>  <SCORE.SYSTEM.SOLV>
0

>  <SCORE.SYSTEM.norm>
0

>  <SCORE.heavy>
8

>  <SCORE.norm>
-1.07416

>  <RMSD>
3.443

$$$$
ligand
 OpenBabel02271912143D
libRbt.so/2013.1/901 2013/11/27
  8  8  0  0  0  0  0  0  0  0999 V2000
    9.2483   10.1124   -1.5045 C   0  0  0  0  0  0  0  0  0  0  0  0
    9.2877   10.4250   -0.2095 N   0  0  0  0  0  0  0  0  0  0  0  0
    9.8360   11.5804    0.1755 C   0  0  0  0  0  0  0  0  0  0  0  0
   10.3355   12.4376   -0.7452 N   0  0  0  0  0  0  0  0  0  0  0  0
   10.2953   12.1084   -2.0473 C   0  0  0  0  0  0  0  0  0  0  0  0
    9.7471   10.9457   -2.4327 N   0  0  0  0  0  0  0  0  0  0  0  0
    9.8654   11.8933    1.6197 N   0  0  0  0  0  0  0  0  0  0  0  0
    8.6840    8.9340   -1.8558 O   0  0  0  0  0  0  0  0  0  0  0  0
  1  2  1  0  0  0  0
  1  6  1  0  0  0  0
  1  8  2  0  0  0  0
  2  3  1  0  0  0  0
  3  4  2  0  0  0  0
  3  7  1  0  0  0  0
  4  5  1  0  0  0  0
  5  6  2  0  0  0  0
M  END
>  <CHROM.1>
9.63713309,11.00370522,-0.87918432,2.17321531,-1.10066516,-1.74410740

>  <Name>
ligand

>  <RI>
0

>  <Rbt.Current_Directory>
/home/itssahil/PROJECTS/Mol_Feturizer/Test_systems_manuscript/rnas/3la5

>  <Rbt.Executable>
rbdock ($Id: //depot/dev/client3/rdock/2013.1/src/exe/rbdock.cxx#4 $)

>  <Rbt.Library>
libRbt.so (2013.1, Build901 2013/11/27)

>  <Rbt.Parameter_File>
/export/apps/rDock/src/rDock_2013.1_src/data/scripts/dock_solv.prm

>  <Rbt.Receptor>
prm/pocket_docking_6.prm

>  <SCORE>
-8.57295

>  <SCORE.INTER>
-8.57295

>  <SCORE.INTER.CONST>
1

>  <SCORE.INTER.POLAR>
0

>  <SCORE.INTER.ROT>
0

>  <SCORE.INTER.SOLV>
8.71107

>  <SCORE.INTER.VDW>
-12.219

>  <SCORE.INTER.norm>
-1.07162

>  <SCORE.INTRA>
0

>  <SCORE.INTRA.DIHEDRAL>
0

>  <SCORE.INTRA.DIHEDRAL.0>
0

>  <SCORE.INTRA.POLAR>
0

>  <SCORE.INTRA.POLAR.0>
0

>  <SCORE.INTRA.REPUL>
0

>  <SCORE.INTRA.REPUL.0>
0

>  <SCORE.INTRA.SOLV>
0

>  <SCORE.INTRA.SOLV.lig_0>
-29.58

>  <SCORE.INTRA.VDW>
0

>  <SCORE.INTRA.VDW.0>
0

>  <SCORE.INTRA.norm>
0

>  <SCORE.RESTR>
0

>  <SCORE.RESTR.CAVITY>
0

>  <SCORE.RESTR.norm>
0

>  <SCORE.SYSTEM>
0

>  <SCORE.SYSTEM.CONST>
0

>  <SCORE.SYSTEM.DIHEDRAL>
0

>  <SCORE.SYSTEM.SOLV>
0

>  <SCORE.SYSTEM.norm>
0

>  <SCORE.heavy>
8

>  <SCORE.norm>
-1.07162

>  <RMSD>
3.444

$$$$
ligand
 OpenBabel02271912143D
libRbt.so/2013.1/901 2013/11/27
  8  8  0  0  0  0  0  0  0  0999 V2000
    9.2820   10.1049   -1.5192 C   0  0  0  0  0  0  0  0  0  0  0  0
    9.4066   10.4041   -0.2263 N   0  0  0  0  0  0  0  0  0  0  0  0
    9.9679   11.5615    0.1333 C   0  0  0  0  0  0  0  0  0  0  0  0
   10.3942   12.4339   -0.8095 N   0  0  0  0  0  0  0  0  0  0  0  0
   10.2684   12.1182   -2.1095 C   0  0  0  0  0  0  0  0  0  0  0  0
    9.7073   10.9535   -2.4697 N   0  0  0  0  0  0  0  0  0  0  0  0
   10.0927   11.8593    1.5757 N   0  0  0  0  0  0  0  0  0  0  0  0
    8.7073    8.9240   -1.8444 O   0  0  0  0  0  0  0  0  0  0  0  0
  1  2  1  0  0  0  0
  1  6  1  0  0  0  0
  1  8  2  0  0  0  0
  2  3  1  0  0  0  0
  3  4  2  0  0  0  0
  3  7  1  0  0  0  0
  4  5  1  0  0  0  0
  5  6  2  0  0  0  0
M  END
>  <CHROM.1>
9.70330687,10.99380367,-0.91175949,2.32383064,-1.11835611,-1.59816292

>  <Name>
ligand

>  <RI>
0

>  <Rbt.Current_Directory>
/home/itssahil/PROJECTS/Mol_Feturizer/Test_systems_manuscript/rnas/3la5

>  <Rbt.Executable>
rbdock ($Id: //depot/dev/client3/rdock/2013.1/src/exe/rbdock.cxx#4 $)

>  <Rbt.Library>
libRbt.so (2013.1, Build901 2013/11/27)

>  <Rbt.Parameter_File>
/export/apps/rDock/src/rDock_2013.1_src/data/scripts/dock_solv.prm

>  <Rbt.Receptor>
prm/pocket_docking_6.prm

>  <SCORE>
-8.61165

>  <SCORE.INTER>
-8.61165

>  <SCORE.INTER.CONST>
1

>  <SCORE.INTER.POLAR>
0

>  <SCORE.INTER.ROT>
0

>  <SCORE.INTER.SOLV>
8.40052

>  <SCORE.INTER.VDW>
-12.1413

>  <SCORE.INTER.norm>
-1.07646

>  <SCORE.INTRA>
0

>  <SCORE.INTRA.DIHEDRAL>
0

>  <SCORE.INTRA.DIHEDRAL.0>
0

>  <SCORE.INTRA.POLAR>
0

>  <SCORE.INTRA.POLAR.0>
0

>  <SCORE.INTRA.REPUL>
0

>  <SCORE.INTRA.REPUL.0>
0

>  <SCORE.INTRA.SOLV>
0

>  <SCORE.INTRA.SOLV.lig_0>
-29.58

>  <SCORE.INTRA.VDW>
0

>  <SCORE.INTRA.VDW.0>
0

>  <SCORE.INTRA.norm>
0

>  <SCORE.RESTR>
0

>  <SCORE.RESTR.CAVITY>
0

>  <SCORE.RESTR.norm>
0

>  <SCORE.SYSTEM>
0

>  <SCORE.SYSTEM.CONST>
0

>  <SCORE.SYSTEM.DIHEDRAL>
0

>  <SCORE.SYSTEM.SOLV>
0

>  <SCORE.SYSTEM.norm>
0

>  <SCORE.heavy>
8

>  <SCORE.norm>
-1.07646

>  <RMSD>
3.444

$$$$
ligand
 OpenBabel02271912143D
libRbt.so/2013.1/901 2013/11/27
  8  8  0  0  0  0  0  0  0  0999 V2000
    9.2729   10.1151   -1.5100 C   0  0  0  0  0  0  0  0  0  0  0  0
    9.3991   10.4295   -0.2209 N   0  0  0  0  0  0  0  0  0  0  0  0
    9.9734   11.5847    0.1247 C   0  0  0  0  0  0  0  0  0  0  0  0
   10.4114   12.4399   -0.8286 N   0  0  0  0  0  0  0  0  0  0  0  0
   10.2838   12.1089   -2.1246 C   0  0  0  0  0  0  0  0  0  0  0  0
    9.7096   10.9464   -2.4707 N   0  0  0  0  0  0  0  0  0  0  0  0
   10.0995   11.8997    1.5633 N   0  0  0  0  0  0  0  0  0  0  0  0
    8.6849    8.9370   -1.8210 O   0  0  0  0  0  0  0  0  0  0  0  0
  1  2  1  0  0  0  0
  1  6  1  0  0  0  0
  1  8  2  0  0  0  0
  2  3  1  0  0  0  0
  3  4  2  0  0  0  0
  3  7  1  0  0  0  0
  4  5  1  0  0  0  0
  5  6  2  0  0  0  0
M  END
>  <CHROM.1>
9.70373125,11.00679496,-0.91338705,2.32117243,-1.10654554,-1.61344652

>  <Name>
ligand

>  <RI>
0

>  <Rbt.Current_Directory>
/home/itssahil/PROJECTS/Mol_Feturizer/Test_systems_manuscript/rnas/3la5

>  <Rbt.Executable>
rbdock ($Id: //depot/dev/client3/rdock/2013.1/src/exe/rbdock.cxx#4 $)

>  <Rbt.Library>
libRbt.so (2013.1, Build901 2013/11/27)

>  <Rbt.Parameter_File>
/export/apps/rDock/src/rDock_2013.1_src/data/scripts/dock_solv.prm

>  <Rbt.Receptor>
prm/pocket_docking_5.prm

>  <SCORE>
-8.5892

>  <SCORE.INTER>
-8.5892

>  <SCORE.INTER.CONST>
1

>  <SCORE.INTER.POLAR>
0

>  <SCORE.INTER.ROT>
0

>  <SCORE.INTER.SOLV>
8.36435

>  <SCORE.INTER.VDW>
-12.1142

>  <SCORE.INTER.norm>
-1.07365

>  <SCORE.INTRA>
0

>  <SCORE.INTRA.DIHEDRAL>
0

>  <SCORE.INTRA.DIHEDRAL.0>
0

>  <SCORE.INTRA.POLAR>
0

>  <SCORE.INTRA.POLAR.0>
0

>  <SCORE.INTRA.REPUL>
0

>  <SCORE.INTRA.REPUL.0>
0

>  <SCORE.INTRA.SOLV>
0

>  <SCORE.INTRA.SOLV.lig_0>
-29.58

>  <SCORE.INTRA.VDW>
0

>  <SCORE.INTRA.VDW.0>
0

>  <SCORE.INTRA.norm>
0

>  <SCORE.RESTR>
0

>  <SCORE.RESTR.CAVITY>
0

>  <SCORE.RESTR.norm>
0

>  <SCORE.SYSTEM>
0

>  <SCORE.SYSTEM.CONST>
0

>  <SCORE.SYSTEM.DIHEDRAL>
0

>  <SCORE.SYSTEM.SOLV>
0

>  <SCORE.SYSTEM.norm>
0

>  <SCORE.heavy>
8

>  <SCORE.norm>
-1.07365

>  <RMSD>
3.445

$$$$
ligand
 OpenBabel02271912143D
libRbt.so/2013.1/901 2013/11/27
  8  8  0  0  0  0  0  0  0  0999 V2000
    9.2724   10.1185   -1.5128 C   0  0  0  0  0  0  0  0  0  0  0  0
    9.3948   10.4351   -0.2239 N   0  0  0  0  0  0  0  0  0  0  0  0
    9.9692   11.5903    0.1215 C   0  0  0  0  0  0  0  0  0  0  0  0
   10.4113   12.4433   -0.8319 N   0  0  0  0  0  0  0  0  0  0  0  0
   10.2876   12.1101   -2.1277 C   0  0  0  0  0  0  0  0  0  0  0  0
    9.7132   10.9476   -2.4736 N   0  0  0  0  0  0  0  0  0  0  0  0
   10.0910   11.9077    1.5600 N   0  0  0  0  0  0  0  0  0  0  0  0
    8.6841    8.9405   -1.8236 O   0  0  0  0  0  0  0  0  0  0  0  0
  1  2  1  0  0  0  0
  1  6  1  0  0  0  0
  1  8  2  0  0  0  0
  2  3  1  0  0  0  0
  3  4  2  0  0  0  0
  3  7  1  0  0  0  0
  4  5  1  0  0  0  0
  5  6  2  0  0  0  0
M  END
>  <CHROM.1>
9.70231885,11.01080572,-0.91642097,2.31404248,-1.10529947,-1.62161545

>  <Name>
ligand

>  <RI>
0

>  <Rbt.Current_Directory>
/home/itssahil/PROJECTS/Mol_Feturizer/Test_systems_manuscript/rnas/3la5

>  <Rbt.Executable>
rbdock ($Id: //depot/dev/client3/rdock/2013.1/src/exe/rbdock.cxx#4 $)

>  <Rbt.Library>
libRbt.so (2013.1, Build901 2013/11/27)

>  <Rbt.Parameter_File>
/export/apps/rDock/src/rDock_2013.1_src/data/scripts/dock_solv.prm

>  <Rbt.Receptor>
prm/blind_docking_40.prm

>  <SCORE>
-8.58686

>  <SCORE.INTER>
-8.58686

>  <SCORE.INTER.CONST>
1

>  <SCORE.INTER.POLAR>
0

>  <SCORE.INTER.ROT>
0

>  <SCORE.INTER.SOLV>
8.35774

>  <SCORE.INTER.VDW>
-12.1105

>  <SCORE.INTER.norm>
-1.07336

>  <SCORE.INTRA>
0

>  <SCORE.INTRA.DIHEDRAL>
0

>  <SCORE.INTRA.DIHEDRAL.0>
0

>  <SCORE.INTRA.POLAR>
0

>  <SCORE.INTRA.POLAR.0>
0

>  <SCORE.INTRA.REPUL>
0

>  <SCORE.INTRA.REPUL.0>
0

>  <SCORE.INTRA.SOLV>
0

>  <SCORE.INTRA.SOLV.lig_0>
-29.58

>  <SCORE.INTRA.VDW>
0

>  <SCORE.INTRA.VDW.0>
0

>  <SCORE.INTRA.norm>
0

>  <SCORE.RESTR>
0

>  <SCORE.RESTR.CAVITY>
0

>  <SCORE.RESTR.norm>
0

>  <SCORE.SYSTEM>
0

>  <SCORE.SYSTEM.CONST>
0

>  <SCORE.SYSTEM.DIHEDRAL>
0

>  <SCORE.SYSTEM.SOLV>
0

>  <SCORE.SYSTEM.norm>
0

>  <SCORE.heavy>
8

>  <SCORE.norm>
-1.07336

>  <RMSD>
3.446

$$$$
ligand
 OpenBabel02271912143D
libRbt.so/2013.1/901 2013/11/27
  8  8  0  0  0  0  0  0  0  0999 V2000
   10.1244    9.7068   -1.4825 C   0  0  0  0  0  0  0  0  0  0  0  0
   10.2147   10.1342   -0.2233 N   0  0  0  0  0  0  0  0  0  0  0  0
   10.1543   11.4429    0.0366 C   0  0  0  0  0  0  0  0  0  0  0  0
    9.9865   12.3307   -0.9712 N   0  0  0  0  0  0  0  0  0  0  0  0
    9.9027   11.8878   -2.2370 C   0  0  0  0  0  0  0  0  0  0  0  0
    9.9669   10.5729   -2.4974 N   0  0  0  0  0  0  0  0  0  0  0  0
   10.2609   11.8816    1.4441 N   0  0  0  0  0  0  0  0  0  0  0  0
   10.1887    8.3741   -1.7062 O   0  0  0  0  0  0  0  0  0  0  0  0
  1  2  1  0  0  0  0
  1  6  1  0  0  0  0
  1  8  2  0  0  0  0
  2  3  1  0  0  0  0
  3  4  2  0  0  0  0
  3  7  1  0  0  0  0
  4  5  1  0  0  0  0
  5  6  2  0  0  0  0
M  END
>  <CHROM.1>
10.10371195,10.73454011,-0.95335341,-1.67479847,-1.45250706,0.61026800

>  <Name>
ligand

>  <RI>
0

>  <Rbt.Current_Directory>
/home/itssahil/PROJECTS/Mol_Feturizer/Test_systems_manuscript/rnas/3la5

>  <Rbt.Executable>
rbdock ($Id: //depot/dev/client3/rdock/2013.1/src/exe/rbdock.cxx#4 $)

>  <Rbt.Library>
libRbt.so (2013.1, Build901 2013/11/27)

>  <Rbt.Parameter_File>
/export/apps/rDock/src/rDock_2013.1_src/data/scripts/dock_solv.prm

>  <Rbt.Receptor>
prm/pocket_docking_4.prm

>  <SCORE>
-8.10358

>  <SCORE.INTER>
-8.10992

>  <SCORE.INTER.CONST>
1

>  <SCORE.INTER.POLAR>
0

>  <SCORE.INTER.ROT>
0

>  <SCORE.INTER.SOLV>
7.47637

>  <SCORE.INTER.VDW>
-11.4987

>  <SCORE.INTER.norm>
-1.01374

>  <SCORE.INTRA>
0

>  <SCORE.INTRA.DIHEDRAL>
0

>  <SCORE.INTRA.DIHEDRAL.0>
0

>  <SCORE.INTRA.POLAR>
0

>  <SCORE.INTRA.POLAR.0>
0

>  <SCORE.INTRA.REPUL>
0

>  <SCORE.INTRA.REPUL.0>
0

>  <SCORE.INTRA.SOLV>
0

>  <SCORE.INTRA.SOLV.lig_0>
-29.58

>  <SCORE.INTRA.VDW>
0

>  <SCORE.INTRA.VDW.0>
0

>  <SCORE.INTRA.norm>
0

>  <SCORE.RESTR>
0.0063444

>  <SCORE.RESTR.CAVITY>
0.0063444

>  <SCORE.RESTR.norm>
0.000793051

>  <SCORE.SYSTEM>
0

>  <SCORE.SYSTEM.CONST>
0

>  <SCORE.SYSTEM.DIHEDRAL>
0

>  <SCORE.SYSTEM.SOLV>
0

>  <SCORE.SYSTEM.norm>
0

>  <SCORE.heavy>
8

>  <SCORE.norm>
-1.01295

>  <RMSD>
3.447

$$$$
ligand
 OpenBabel02271912143D
libRbt.so/2013.1/901 2013/11/27
  8  8  0  0  0  0  0  0  0  0999 V2000
    9.2730   10.1082   -1.5001 C   0  0  0  0  0  0  0  0  0  0  0  0
    9.4091   10.4374   -0.2158 N   0  0  0  0  0  0  0  0  0  0  0  0
    9.9735   11.6027    0.1118 C   0  0  0  0  0  0  0  0  0  0  0  0
   10.3913   12.4530   -0.8548 N   0  0  0  0  0  0  0  0  0  0  0  0
   10.2539   12.1071   -2.1459 C   0  0  0  0  0  0  0  0  0  0  0  0
    9.6897   10.9345   -2.4739 N   0  0  0  0  0  0  0  0  0  0  0  0
   10.1112   11.9340    1.5457 N   0  0  0  0  0  0  0  0  0  0  0  0
    8.6956    8.9201   -1.7927 O   0  0  0  0  0  0  0  0  0  0  0  0
  1  2  1  0  0  0  0
  1  6  1  0  0  0  0
  1  8  2  0  0  0  0
  2  3  1  0  0  0  0
  3  4  2  0  0  0  0
  3  7  1  0  0  0  0
  4  5  1  0  0  0  0
  5  6  2  0  0  0  0
M  END
>  <CHROM.1>
9.69965777,11.01096354,-0.91733466,2.34428389,-1.11862434,-1.60302589

>  <Name>
ligand

>  <RI>
0

>  <Rbt.Current_Directory>
/home/itssahil/PROJECTS/Mol_Feturizer/Test_systems_manuscript/rnas/3la5

>  <Rbt.Executable>
rbdock ($Id: //depot/dev/client3/rdock/2013.1/src/exe/rbdock.cxx#4 $)

>  <Rbt.Library>
libRbt.so (2013.1, Build901 2013/11/27)

>  <Rbt.Parameter_File>
/export/apps/rDock/src/rDock_2013.1_src/data/scripts/dock_solv.prm

>  <Rbt.Receptor>
prm/blind_docking_60.prm

>  <SCORE>
-8.62834

>  <SCORE.INTER>
-8.62834

>  <SCORE.INTER.CONST>
1

>  <SCORE.INTER.POLAR>
0

>  <SCORE.INTER.ROT>
0

>  <SCORE.INTER.SOLV>
8.31537

>  <SCORE.INTER.VDW>
-12.124

>  <SCORE.INTER.norm>
-1.07854

>  <SCORE.INTRA>
0

>  <SCORE.INTRA.DIHEDRAL>
0

>  <SCORE.INTRA.DIHEDRAL.0>
0

>  <SCORE.INTRA.POLAR>
0

>  <SCORE.INTRA.POLAR.0>
0

>  <SCORE.INTRA.REPUL>
0

>  <SCORE.INTRA.REPUL.0>
0

>  <SCORE.INTRA.SOLV>
0

>  <SCORE.INTRA.SOLV.lig_0>
-29.58

>  <SCORE.INTRA.VDW>
0

>  <SCORE.INTRA.VDW.0>
0

>  <SCORE.INTRA.norm>
0

>  <SCORE.RESTR>
0

>  <SCORE.RESTR.CAVITY>
0

>  <SCORE.RESTR.norm>
0

>  <SCORE.SYSTEM>
0

>  <SCORE.SYSTEM.CONST>
0

>  <SCORE.SYSTEM.DIHEDRAL>
0

>  <SCORE.SYSTEM.SOLV>
0

>  <SCORE.SYSTEM.norm>
0

>  <SCORE.heavy>
8

>  <SCORE.norm>
-1.07854

>  <RMSD>
3.451

$$$$
ligand
 OpenBabel02271912143D
libRbt.so/2013.1/901 2013/11/27
  8  8  0  0  0  0  0  0  0  0999 V2000
    9.2535   10.1086   -1.5086 C   0  0  0  0  0  0  0  0  0  0  0  0
    9.4315   10.4144   -0.2236 N   0  0  0  0  0  0  0  0  0  0  0  0
   10.0282   11.5629    0.1062 C   0  0  0  0  0  0  0  0  0  0  0  0
   10.4364   12.4201   -0.8584 N   0  0  0  0  0  0  0  0  0  0  0  0
   10.2566   12.0978   -2.1503 C   0  0  0  0  0  0  0  0  0  0  0  0
    9.6600   10.9420   -2.4807 N   0  0  0  0  0  0  0  0  0  0  0  0
   10.2120   11.8683    1.5407 N   0  0  0  0  0  0  0  0  0  0  0  0
    8.6443    8.9371   -1.8034 O   0  0  0  0  0  0  0  0  0  0  0  0
  1  2  1  0  0  0  0
  1  6  1  0  0  0  0
  1  8  2  0  0  0  0
  2  3  1  0  0  0  0
  3  4  2  0  0  0  0
  3  7  1  0  0  0  0
  4  5  1  0  0  0  0
  5  6  2  0  0  0  0
M  END
>  <CHROM.1>
9.71423380,10.99325298,-0.92398641,2.40614362,-1.09844080,-1.53186912

>  <Name>
ligand

>  <RI>
0

>  <Rbt.Current_Directory>
/home/itssahil/PROJECTS/Mol_Feturizer/Test_systems_manuscript/rnas/3la5

>  <Rbt.Executable>
rbdock ($Id: //depot/dev/client3/rdock/2013.1/src/exe/rbdock.cxx#4 $)

>  <Rbt.Library>
libRbt.so (2013.1, Build901 2013/11/27)

>  <Rbt.Parameter_File>
/export/apps/rDock/src/rDock_2013.1_src/data/scripts/dock_solv.prm

>  <Rbt.Receptor>
prm/pocket_docking_5.prm

>  <SCORE>
-8.54355

>  <SCORE.INTER>
-8.54355

>  <SCORE.INTER.CONST>
1

>  <SCORE.INTER.POLAR>
0

>  <SCORE.INTER.ROT>
0

>  <SCORE.INTER.SOLV>
8.34832

>  <SCORE.INTER.VDW>
-12.0785

>  <SCORE.INTER.norm>
-1.06794

>  <SCORE.INTRA>
0

>  <SCORE.INTRA.DIHEDRAL>
0

>  <SCORE.INTRA.DIHEDRAL.0>
0

>  <SCORE.INTRA.POLAR>
0

>  <SCORE.INTRA.POLAR.0>
0

>  <SCORE.INTRA.REPUL>
0

>  <SCORE.INTRA.REPUL.0>
0

>  <SCORE.INTRA.SOLV>
0

>  <SCORE.INTRA.SOLV.lig_0>
-29.58

>  <SCORE.INTRA.VDW>
0

>  <SCORE.INTRA.VDW.0>
0

>  <SCORE.INTRA.norm>
0

>  <SCORE.RESTR>
0

>  <SCORE.RESTR.CAVITY>
0

>  <SCORE.RESTR.norm>
0

>  <SCORE.SYSTEM>
0

>  <SCORE.SYSTEM.CONST>
0

>  <SCORE.SYSTEM.DIHEDRAL>
0

>  <SCORE.SYSTEM.SOLV>
0

>  <SCORE.SYSTEM.norm>
0

>  <SCORE.heavy>
8

>  <SCORE.norm>
-1.06794

>  <RMSD>
3.451

$$$$
ligand
 OpenBabel02271912143D
libRbt.so/2013.1/901 2013/11/27
  8  8  0  0  0  0  0  0  0  0999 V2000
    9.2768   10.0734   -1.5136 C   0  0  0  0  0  0  0  0  0  0  0  0
    9.4295   10.3720   -0.2236 N   0  0  0  0  0  0  0  0  0  0  0  0
    9.9866   11.5349    0.1244 C   0  0  0  0  0  0  0  0  0  0  0  0
   10.3803   12.4135   -0.8269 N   0  0  0  0  0  0  0  0  0  0  0  0
   10.2264   12.0984   -2.1240 C   0  0  0  0  0  0  0  0  0  0  0  0
    9.6696   10.9282   -2.4726 N   0  0  0  0  0  0  0  0  0  0  0  0
   10.1431   11.8319    1.5639 N   0  0  0  0  0  0  0  0  0  0  0  0
    8.7075    8.8867   -1.8269 O   0  0  0  0  0  0  0  0  0  0  0  0
  1  2  1  0  0  0  0
  1  6  1  0  0  0  0
  1  8  2  0  0  0  0
  2  3  1  0  0  0  0
  3  4  2  0  0  0  0
  3  7  1  0  0  0  0
  4  5  1  0  0  0  0
  5  6  2  0  0  0  0
M  END
>  <CHROM.1>
9.70298189,10.96597901,-0.91495565,2.37994581,-1.12942113,-1.54588559

>  <Name>
ligand

>  <RI>
0

>  <Rbt.Current_Directory>
/home/itssahil/PROJECTS/Mol_Feturizer/Test_systems_manuscript/rnas/3la5

>  <Rbt.Executable>
rbdock ($Id: //depot/dev/client3/rdock/2013.1/src/exe/rbdock.cxx#4 $)

>  <Rbt.Library>
libRbt.so (2013.1, Build901 2013/11/27)

>  <Rbt.Parameter_File>
/export/apps/rDock/src/rDock_2013.1_src/data/scripts/dock_solv.prm

>  <Rbt.Receptor>
prm/blind_docking_20.prm

>  <SCORE>
-8.62393

>  <SCORE.INTER>
-8.62393

>  <SCORE.INTER.CONST>
1

>  <SCORE.INTER.POLAR>
0

>  <SCORE.INTER.ROT>
0

>  <SCORE.INTER.SOLV>
8.3757

>  <SCORE.INTER.VDW>
-12.1412

>  <SCORE.INTER.norm>
-1.07799

>  <SCORE.INTRA>
0

>  <SCORE.INTRA.DIHEDRAL>
0

>  <SCORE.INTRA.DIHEDRAL.0>
0

>  <SCORE.INTRA.POLAR>
0

>  <SCORE.INTRA.POLAR.0>
0

>  <SCORE.INTRA.REPUL>
0

>  <SCORE.INTRA.REPUL.0>
0

>  <SCORE.INTRA.SOLV>
0

>  <SCORE.INTRA.SOLV.lig_0>
-29.58

>  <SCORE.INTRA.VDW>
0

>  <SCORE.INTRA.VDW.0>
0

>  <SCORE.INTRA.norm>
0

>  <SCORE.RESTR>
0

>  <SCORE.RESTR.CAVITY>
0

>  <SCORE.RESTR.norm>
0

>  <SCORE.SYSTEM>
0

>  <SCORE.SYSTEM.CONST>
0

>  <SCORE.SYSTEM.DIHEDRAL>
0

>  <SCORE.SYSTEM.SOLV>
0

>  <SCORE.SYSTEM.norm>
0

>  <SCORE.heavy>
8

>  <SCORE.norm>
-1.07799

>  <RMSD>
3.454

$$$$
ligand
 OpenBabel02271912143D
libRbt.so/2013.1/901 2013/11/27
  8  8  0  0  0  0  0  0  0  0999 V2000
    9.2758   10.0762   -1.5147 C   0  0  0  0  0  0  0  0  0  0  0  0
    9.4306   10.3744   -0.2249 N   0  0  0  0  0  0  0  0  0  0  0  0
    9.9891   11.5368    0.1226 C   0  0  0  0  0  0  0  0  0  0  0  0
   10.3821   12.4153   -0.8291 N   0  0  0  0  0  0  0  0  0  0  0  0
   10.2261   12.1007   -2.1260 C   0  0  0  0  0  0  0  0  0  0  0  0
    9.6678   10.9310   -2.4741 N   0  0  0  0  0  0  0  0  0  0  0  0
   10.1480   11.8333    1.5619 N   0  0  0  0  0  0  0  0  0  0  0  0
    8.7051    8.8901   -1.8275 O   0  0  0  0  0  0  0  0  0  0  0  0
  1  2  1  0  0  0  0
  1  6  1  0  0  0  0
  1  8  2  0  0  0  0
  2  3  1  0  0  0  0
  3  4  2  0  0  0  0
  3  7  1  0  0  0  0
  4  5  1  0  0  0  0
  5  6  2  0  0  0  0
M  END
>  <CHROM.1>
9.70355360,10.96836520,-0.91646291,2.38335395,-1.12860384,-1.54255436

>  <Name>
ligand

>  <RI>
0

>  <Rbt.Current_Directory>
/home/itssahil/PROJECTS/Mol_Feturizer/Test_systems_manuscript/rnas/3la5

>  <Rbt.Executable>
rbdock ($Id: //depot/dev/client3/rdock/2013.1/src/exe/rbdock.cxx#4 $)

>  <Rbt.Library>
libRbt.so (2013.1, Build901 2013/11/27)

>  <Rbt.Parameter_File>
/export/apps/rDock/src/rDock_2013.1_src/data/scripts/dock_solv.prm

>  <Rbt.Receptor>
prm/pocket_docking_7.prm

>  <SCORE>
-8.62403

>  <SCORE.INTER>
-8.62403

>  <SCORE.INTER.CONST>
1

>  <SCORE.INTER.POLAR>
0

>  <SCORE.INTER.ROT>
0

>  <SCORE.INTER.SOLV>
8.37098

>  <SCORE.INTER.VDW>
-12.1397

>  <SCORE.INTER.norm>
-1.078

>  <SCORE.INTRA>
0

>  <SCORE.INTRA.DIHEDRAL>
0

>  <SCORE.INTRA.DIHEDRAL.0>
0

>  <SCORE.INTRA.POLAR>
0

>  <SCORE.INTRA.POLAR.0>
0

>  <SCORE.INTRA.REPUL>
0

>  <SCORE.INTRA.REPUL.0>
0

>  <SCORE.INTRA.SOLV>
0

>  <SCORE.INTRA.SOLV.lig_0>
-29.58

>  <SCORE.INTRA.VDW>
0

>  <SCORE.INTRA.VDW.0>
0

>  <SCORE.INTRA.norm>
0

>  <SCORE.RESTR>
0

>  <SCORE.RESTR.CAVITY>
0

>  <SCORE.RESTR.norm>
0

>  <SCORE.SYSTEM>
0

>  <SCORE.SYSTEM.CONST>
0

>  <SCORE.SYSTEM.DIHEDRAL>
0

>  <SCORE.SYSTEM.SOLV>
0

>  <SCORE.SYSTEM.norm>
0

>  <SCORE.heavy>
8

>  <SCORE.norm>
-1.078

>  <RMSD>
3.454

$$$$
ligand
 OpenBabel02271912143D
libRbt.so/2013.1/901 2013/11/27
  8  8  0  0  0  0  0  0  0  0999 V2000
    9.2401   10.1116   -1.5148 C   0  0  0  0  0  0  0  0  0  0  0  0
    9.2975   10.4291   -0.2216 N   0  0  0  0  0  0  0  0  0  0  0  0
    9.8476   11.5877    0.1510 C   0  0  0  0  0  0  0  0  0  0  0  0
   10.3306   12.4432   -0.7800 N   0  0  0  0  0  0  0  0  0  0  0  0
   10.2723   12.1091   -2.0802 C   0  0  0  0  0  0  0  0  0  0  0  0
    9.7223   10.9432   -2.4532 N   0  0  0  0  0  0  0  0  0  0  0  0
    9.8972   11.9060    1.5936 N   0  0  0  0  0  0  0  0  0  0  0  0
    8.6746    8.9301   -1.8534 O   0  0  0  0  0  0  0  0  0  0  0  0
  1  2  1  0  0  0  0
  1  6  1  0  0  0  0
  1  8  2  0  0  0  0
  2  3  1  0  0  0  0
  3  4  2  0  0  0  0
  3  7  1  0  0  0  0
  4  5  1  0  0  0  0
  5  6  2  0  0  0  0
M  END
>  <CHROM.1>
9.63509596,11.00651498,-0.89847630,2.20431452,-1.10629598,-1.71998504

>  <Name>
ligand

>  <RI>
0

>  <Rbt.Current_Directory>
/home/itssahil/PROJECTS/Mol_Feturizer/Test_systems_manuscript/rnas/3la5

>  <Rbt.Executable>
rbdock ($Id: //depot/dev/client3/rdock/2013.1/src/exe/rbdock.cxx#4 $)

>  <Rbt.Library>
libRbt.so (2013.1, Build901 2013/11/27)

>  <Rbt.Parameter_File>
/export/apps/rDock/src/rDock_2013.1_src/data/scripts/dock_solv.prm

>  <Rbt.Receptor>
prm/pocket_docking_4.prm

>  <SCORE>
-8.54573

>  <SCORE.INTER>
-8.54573

>  <SCORE.INTER.CONST>
1

>  <SCORE.INTER.POLAR>
0

>  <SCORE.INTER.ROT>
0

>  <SCORE.INTER.SOLV>
8.65635

>  <SCORE.INTER.VDW>
-12.1826

>  <SCORE.INTER.norm>
-1.06822

>  <SCORE.INTRA>
0

>  <SCORE.INTRA.DIHEDRAL>
0

>  <SCORE.INTRA.DIHEDRAL.0>
0

>  <SCORE.INTRA.POLAR>
0

>  <SCORE.INTRA.POLAR.0>
0

>  <SCORE.INTRA.REPUL>
0

>  <SCORE.INTRA.REPUL.0>
0

>  <SCORE.INTRA.SOLV>
0

>  <SCORE.INTRA.SOLV.lig_0>
-29.58

>  <SCORE.INTRA.VDW>
0

>  <SCORE.INTRA.VDW.0>
0

>  <SCORE.INTRA.norm>
0

>  <SCORE.RESTR>
0

>  <SCORE.RESTR.CAVITY>
0

>  <SCORE.RESTR.norm>
0

>  <SCORE.SYSTEM>
0

>  <SCORE.SYSTEM.CONST>
0

>  <SCORE.SYSTEM.DIHEDRAL>
0

>  <SCORE.SYSTEM.SOLV>
0

>  <SCORE.SYSTEM.norm>
0

>  <SCORE.heavy>
8

>  <SCORE.norm>
-1.06822

>  <RMSD>
3.455

$$$$
ligand
 OpenBabel02271912143D
libRbt.so/2013.1/901 2013/11/27
  8  8  0  0  0  0  0  0  0  0999 V2000
    9.2714   10.1165   -1.5196 C   0  0  0  0  0  0  0  0  0  0  0  0
    9.3867   10.4432   -0.2326 N   0  0  0  0  0  0  0  0  0  0  0  0
    9.9431   11.6092    0.1063 C   0  0  0  0  0  0  0  0  0  0  0  0
   10.3739   12.4625   -0.8519 N   0  0  0  0  0  0  0  0  0  0  0  0
   10.2576   12.1191   -2.1457 C   0  0  0  0  0  0  0  0  0  0  0  0
    9.7014   10.9459   -2.4850 N   0  0  0  0  0  0  0  0  0  0  0  0
   10.0575   11.9376    1.5428 N   0  0  0  0  0  0  0  0  0  0  0  0
    8.7015    8.9277   -1.8238 O   0  0  0  0  0  0  0  0  0  0  0  0
  1  2  1  0  0  0  0
  1  6  1  0  0  0  0
  1  8  2  0  0  0  0
  2  3  1  0  0  0  0
  3  4  2  0  0  0  0
  3  7  1  0  0  0  0
  4  5  1  0  0  0  0
  5  6  2  0  0  0  0
M  END
>  <CHROM.1>
9.68678756,11.01898123,-0.92831942,2.30816336,-1.12024941,-1.63337626

>  <Name>
ligand

>  <RI>
0

>  <Rbt.Current_Directory>
/home/itssahil/PROJECTS/Mol_Feturizer/Test_systems_manuscript/rnas/3la5

>  <Rbt.Executable>
rbdock ($Id: //depot/dev/client3/rdock/2013.1/src/exe/rbdock.cxx#4 $)

>  <Rbt.Library>
libRbt.so (2013.1, Build901 2013/11/27)

>  <Rbt.Parameter_File>
/export/apps/rDock/src/rDock_2013.1_src/data/scripts/dock_solv.prm

>  <Rbt.Receptor>
prm/blind_docking_40.prm

>  <SCORE>
-8.64504

>  <SCORE.INTER>
-8.64504

>  <SCORE.INTER.CONST>
1

>  <SCORE.INTER.POLAR>
0

>  <SCORE.INTER.ROT>
0

>  <SCORE.INTER.SOLV>
8.36978

>  <SCORE.INTER.VDW>
-12.1533

>  <SCORE.INTER.norm>
-1.08063

>  <SCORE.INTRA>
0

>  <SCORE.INTRA.DIHEDRAL>
0

>  <SCORE.INTRA.DIHEDRAL.0>
0

>  <SCORE.INTRA.POLAR>
0

>  <SCORE.INTRA.POLAR.0>
0

>  <SCORE.INTRA.REPUL>
0

>  <SCORE.INTRA.REPUL.0>
0

>  <SCORE.INTRA.SOLV>
0

>  <SCORE.INTRA.SOLV.lig_0>
-29.58

>  <SCORE.INTRA.VDW>
0

>  <SCORE.INTRA.VDW.0>
0

>  <SCORE.INTRA.norm>
0

>  <SCORE.RESTR>
0

>  <SCORE.RESTR.CAVITY>
0

>  <SCORE.RESTR.norm>
0

>  <SCORE.SYSTEM>
0

>  <SCORE.SYSTEM.CONST>
0

>  <SCORE.SYSTEM.DIHEDRAL>
0

>  <SCORE.SYSTEM.SOLV>
0

>  <SCORE.SYSTEM.norm>
0

>  <SCORE.heavy>
8

>  <SCORE.norm>
-1.08063

>  <RMSD>
3.456

$$$$
ligand
 OpenBabel02271912143D
libRbt.so/2013.1/901 2013/11/27
  8  8  0  0  0  0  0  0  0  0999 V2000
    9.2763   10.0670   -1.5188 C   0  0  0  0  0  0  0  0  0  0  0  0
    9.4287   10.3598   -0.2275 N   0  0  0  0  0  0  0  0  0  0  0  0
    9.9850   11.5216    0.1258 C   0  0  0  0  0  0  0  0  0  0  0  0
   10.3783   12.4047   -0.8215 N   0  0  0  0  0  0  0  0  0  0  0  0
   10.2248   12.0953   -2.1200 C   0  0  0  0  0  0  0  0  0  0  0  0
    9.6687   10.9264   -2.4739 N   0  0  0  0  0  0  0  0  0  0  0  0
   10.1412   11.8121    1.5666 N   0  0  0  0  0  0  0  0  0  0  0  0
    8.7078    8.8815   -1.8376 O   0  0  0  0  0  0  0  0  0  0  0  0
  1  2  1  0  0  0  0
  1  6  1  0  0  0  0
  1  8  2  0  0  0  0
  2  3  1  0  0  0  0
  3  4  2  0  0  0  0
  3  7  1  0  0  0  0
  4  5  1  0  0  0  0
  5  6  2  0  0  0  0
M  END
>  <CHROM.1>
9.70188725,10.95715234,-0.91611969,2.37973720,-1.13004017,-1.54155378

>  <Name>
ligand

>  <RI>
0

>  <Rbt.Current_Directory>
/home/itssahil/PROJECTS/Mol_Feturizer/Test_systems_manuscript/rnas/3la5

>  <Rbt.Executable>
rbdock ($Id: //depot/dev/client3/rdock/2013.1/src/exe/rbdock.cxx#4 $)

>  <Rbt.Library>
libRbt.so (2013.1, Build901 2013/11/27)

>  <Rbt.Parameter_File>
/export/apps/rDock/src/rDock_2013.1_src/data/scripts/dock_solv.prm

>  <Rbt.Receptor>
prm/pocket_docking_5.prm

>  <SCORE>
-8.61933

>  <SCORE.INTER>
-8.61933

>  <SCORE.INTER.CONST>
1

>  <SCORE.INTER.POLAR>
0

>  <SCORE.INTER.ROT>
0

>  <SCORE.INTER.SOLV>
8.39709

>  <SCORE.INTER.VDW>
-12.1452

>  <SCORE.INTER.norm>
-1.07742

>  <SCORE.INTRA>
0

>  <SCORE.INTRA.DIHEDRAL>
0

>  <SCORE.INTRA.DIHEDRAL.0>
0

>  <SCORE.INTRA.POLAR>
0

>  <SCORE.INTRA.POLAR.0>
0

>  <SCORE.INTRA.REPUL>
0

>  <SCORE.INTRA.REPUL.0>
0

>  <SCORE.INTRA.SOLV>
0

>  <SCORE.INTRA.SOLV.lig_0>
-29.58

>  <SCORE.INTRA.VDW>
0

>  <SCORE.INTRA.VDW.0>
0

>  <SCORE.INTRA.norm>
0

>  <SCORE.RESTR>
0

>  <SCORE.RESTR.CAVITY>
0

>  <SCORE.RESTR.norm>
0

>  <SCORE.SYSTEM>
0

>  <SCORE.SYSTEM.CONST>
0

>  <SCORE.SYSTEM.DIHEDRAL>
0

>  <SCORE.SYSTEM.SOLV>
0

>  <SCORE.SYSTEM.norm>
0

>  <SCORE.heavy>
8

>  <SCORE.norm>
-1.07742

>  <RMSD>
3.456

$$$$
ligand
 OpenBabel02271912143D
libRbt.so/2013.1/901 2013/11/27
  8  8  0  0  0  0  0  0  0  0999 V2000
    9.2752   10.0755   -1.5192 C   0  0  0  0  0  0  0  0  0  0  0  0
    9.4248   10.3736   -0.2288 N   0  0  0  0  0  0  0  0  0  0  0  0
    9.9828   11.5356    0.1210 C   0  0  0  0  0  0  0  0  0  0  0  0
   10.3805   12.4137   -0.8291 N   0  0  0  0  0  0  0  0  0  0  0  0
   10.2297   12.0991   -2.1267 C   0  0  0  0  0  0  0  0  0  0  0  0
    9.6719   10.9298   -2.4770 N   0  0  0  0  0  0  0  0  0  0  0  0
   10.1359   11.8321    1.5609 N   0  0  0  0  0  0  0  0  0  0  0  0
    8.7048    8.8898   -1.8343 O   0  0  0  0  0  0  0  0  0  0  0  0
  1  2  1  0  0  0  0
  1  6  1  0  0  0  0
  1  8  2  0  0  0  0
  2  3  1  0  0  0  0
  3  4  2  0  0  0  0
  3  7  1  0  0  0  0
  4  5  1  0  0  0  0
  5  6  2  0  0  0  0
M  END
>  <CHROM.1>
9.70112156,10.96731676,-0.91925409,2.37350043,-1.12787041,-1.55154056

>  <Name>
ligand

>  <RI>
0

>  <Rbt.Current_Directory>
/home/itssahil/PROJECTS/Mol_Feturizer/Test_systems_manuscript/rnas/3la5

>  <Rbt.Executable>
rbdock ($Id: //depot/dev/client3/rdock/2013.1/src/exe/rbdock.cxx#4 $)

>  <Rbt.Library>
libRbt.so (2013.1, Build901 2013/11/27)

>  <Rbt.Parameter_File>
/export/apps/rDock/src/rDock_2013.1_src/data/scripts/dock_solv.prm

>  <Rbt.Receptor>
prm/pocket_docking_5.prm

>  <SCORE>
-8.62775

>  <SCORE.INTER>
-8.62775

>  <SCORE.INTER.CONST>
1

>  <SCORE.INTER.POLAR>
0

>  <SCORE.INTER.ROT>
0

>  <SCORE.INTER.SOLV>
8.37907

>  <SCORE.INTER.VDW>
-12.1449

>  <SCORE.INTER.norm>
-1.07847

>  <SCORE.INTRA>
0

>  <SCORE.INTRA.DIHEDRAL>
0

>  <SCORE.INTRA.DIHEDRAL.0>
0

>  <SCORE.INTRA.POLAR>
0

>  <SCORE.INTRA.POLAR.0>
0

>  <SCORE.INTRA.REPUL>
0

>  <SCORE.INTRA.REPUL.0>
0

>  <SCORE.INTRA.SOLV>
0

>  <SCORE.INTRA.SOLV.lig_0>
-29.58

>  <SCORE.INTRA.VDW>
0

>  <SCORE.INTRA.VDW.0>
0

>  <SCORE.INTRA.norm>
0

>  <SCORE.RESTR>
0

>  <SCORE.RESTR.CAVITY>
0

>  <SCORE.RESTR.norm>
0

>  <SCORE.SYSTEM>
0

>  <SCORE.SYSTEM.CONST>
0

>  <SCORE.SYSTEM.DIHEDRAL>
0

>  <SCORE.SYSTEM.SOLV>
0

>  <SCORE.SYSTEM.norm>
0

>  <SCORE.heavy>
8

>  <SCORE.norm>
-1.07847

>  <RMSD>
3.456

$$$$
ligand
 OpenBabel02271912143D
libRbt.so/2013.1/901 2013/11/27
  8  8  0  0  0  0  0  0  0  0999 V2000
    9.2800   10.0680   -1.5120 C   0  0  0  0  0  0  0  0  0  0  0  0
    9.4216   10.3730   -0.2223 N   0  0  0  0  0  0  0  0  0  0  0  0
    9.9784   11.5364    0.1248 C   0  0  0  0  0  0  0  0  0  0  0  0
   10.3829   12.4090   -0.8275 N   0  0  0  0  0  0  0  0  0  0  0  0
   10.2401   12.0874   -2.1243 C   0  0  0  0  0  0  0  0  0  0  0  0
    9.6836   10.9168   -2.4719 N   0  0  0  0  0  0  0  0  0  0  0  0
   10.1225   11.8406    1.5640 N   0  0  0  0  0  0  0  0  0  0  0  0
    8.7106    8.8811   -1.8243 O   0  0  0  0  0  0  0  0  0  0  0  0
  1  2  1  0  0  0  0
  1  6  1  0  0  0  0
  1  8  2  0  0  0  0
  2  3  1  0  0  0  0
  3  4  2  0  0  0  0
  3  7  1  0  0  0  0
  4  5  1  0  0  0  0
  5  6  2  0  0  0  0
M  END
>  <CHROM.1>
9.70286467,10.96268990,-0.91417319,2.35855574,-1.12709440,-1.57046758

>  <Name>
ligand

>  <RI>
0

>  <Rbt.Current_Directory>
/home/itssahil/PROJECTS/Mol_Feturizer/Test_systems_manuscript/rnas/3la5

>  <Rbt.Executable>
rbdock ($Id: //depot/dev/client3/rdock/2013.1/src/exe/rbdock.cxx#4 $)

>  <Rbt.Library>
libRbt.so (2013.1, Build901 2013/11/27)

>  <Rbt.Parameter_File>
/export/apps/rDock/src/rDock_2013.1_src/data/scripts/dock_solv.prm

>  <Rbt.Receptor>
prm/pocket_docking_6.prm

>  <SCORE>
-8.63148

>  <SCORE.INTER>
-8.63148

>  <SCORE.INTER.CONST>
1

>  <SCORE.INTER.POLAR>
0

>  <SCORE.INTER.ROT>
0

>  <SCORE.INTER.SOLV>
8.37821

>  <SCORE.INTER.VDW>
-12.1471

>  <SCORE.INTER.norm>
-1.07893

>  <SCORE.INTRA>
0

>  <SCORE.INTRA.DIHEDRAL>
0

>  <SCORE.INTRA.DIHEDRAL.0>
0

>  <SCORE.INTRA.POLAR>
0

>  <SCORE.INTRA.POLAR.0>
0

>  <SCORE.INTRA.REPUL>
0

>  <SCORE.INTRA.REPUL.0>
0

>  <SCORE.INTRA.SOLV>
0

>  <SCORE.INTRA.SOLV.lig_0>
-29.58

>  <SCORE.INTRA.VDW>
0

>  <SCORE.INTRA.VDW.0>
0

>  <SCORE.INTRA.norm>
0

>  <SCORE.RESTR>
0

>  <SCORE.RESTR.CAVITY>
0

>  <SCORE.RESTR.norm>
0

>  <SCORE.SYSTEM>
0

>  <SCORE.SYSTEM.CONST>
0

>  <SCORE.SYSTEM.DIHEDRAL>
0

>  <SCORE.SYSTEM.SOLV>
0

>  <SCORE.SYSTEM.norm>
0

>  <SCORE.heavy>
8

>  <SCORE.norm>
-1.07893

>  <RMSD>
3.456

$$$$
ligand
 OpenBabel02271912143D
libRbt.so/2013.1/901 2013/11/27
  8  8  0  0  0  0  0  0  0  0999 V2000
    9.2797   10.0670   -1.5110 C   0  0  0  0  0  0  0  0  0  0  0  0
    9.4270   10.3712   -0.2217 N   0  0  0  0  0  0  0  0  0  0  0  0
    9.9850   11.5345    0.1236 C   0  0  0  0  0  0  0  0  0  0  0  0
   10.3851   12.4078   -0.8299 N   0  0  0  0  0  0  0  0  0  0  0  0
   10.2367   12.0871   -2.1262 C   0  0  0  0  0  0  0  0  0  0  0  0
    9.6789   10.9165   -2.4721 N   0  0  0  0  0  0  0  0  0  0  0  0
   10.1354   11.8378    1.5624 N   0  0  0  0  0  0  0  0  0  0  0  0
    8.7093    8.8802   -1.8216 O   0  0  0  0  0  0  0  0  0  0  0  0
  1  2  1  0  0  0  0
  1  6  1  0  0  0  0
  1  8  2  0  0  0  0
  2  3  1  0  0  0  0
  3  4  2  0  0  0  0
  3  7  1  0  0  0  0
  4  5  1  0  0  0  0
  5  6  2  0  0  0  0
M  END
>  <CHROM.1>
9.70505439,10.96139637,-0.91447493,2.36887711,-1.12730720,-1.56049340

>  <Name>
ligand

>  <RI>
0

>  <Rbt.Current_Directory>
/home/itssahil/PROJECTS/Mol_Feturizer/Test_systems_manuscript/rnas/3la5

>  <Rbt.Executable>
rbdock ($Id: //depot/dev/client3/rdock/2013.1/src/exe/rbdock.cxx#4 $)

>  <Rbt.Library>
libRbt.so (2013.1, Build901 2013/11/27)

>  <Rbt.Parameter_File>
/export/apps/rDock/src/rDock_2013.1_src/data/scripts/dock_solv.prm

>  <Rbt.Receptor>
prm/pocket_docking_8.prm

>  <SCORE>
-8.62795

>  <SCORE.INTER>
-8.62795

>  <SCORE.INTER.CONST>
1

>  <SCORE.INTER.POLAR>
0

>  <SCORE.INTER.ROT>
0

>  <SCORE.INTER.SOLV>
8.37174

>  <SCORE.INTER.VDW>
-12.1425

>  <SCORE.INTER.norm>
-1.07849

>  <SCORE.INTRA>
0

>  <SCORE.INTRA.DIHEDRAL>
0

>  <SCORE.INTRA.DIHEDRAL.0>
0

>  <SCORE.INTRA.POLAR>
0

>  <SCORE.INTRA.POLAR.0>
0

>  <SCORE.INTRA.REPUL>
0

>  <SCORE.INTRA.REPUL.0>
0

>  <SCORE.INTRA.SOLV>
0

>  <SCORE.INTRA.SOLV.lig_0>
-29.58

>  <SCORE.INTRA.VDW>
0

>  <SCORE.INTRA.VDW.0>
0

>  <SCORE.INTRA.norm>
0

>  <SCORE.RESTR>
0

>  <SCORE.RESTR.CAVITY>
0

>  <SCORE.RESTR.norm>
0

>  <SCORE.SYSTEM>
0

>  <SCORE.SYSTEM.CONST>
0

>  <SCORE.SYSTEM.DIHEDRAL>
0

>  <SCORE.SYSTEM.SOLV>
0

>  <SCORE.SYSTEM.norm>
0

>  <SCORE.heavy>
8

>  <SCORE.norm>
-1.07849

>  <RMSD>
3.456

$$$$
ligand
 OpenBabel02271912143D
libRbt.so/2013.1/901 2013/11/27
  8  8  0  0  0  0  0  0  0  0999 V2000
    9.2731   10.0764   -1.5133 C   0  0  0  0  0  0  0  0  0  0  0  0
    9.3934   10.3874   -0.2228 N   0  0  0  0  0  0  0  0  0  0  0  0
    9.9486   11.5504    0.1280 C   0  0  0  0  0  0  0  0  0  0  0  0
   10.3731   12.4166   -0.8215 N   0  0  0  0  0  0  0  0  0  0  0  0
   10.2517   12.0890   -2.1189 C   0  0  0  0  0  0  0  0  0  0  0  0
    9.6967   10.9187   -2.4702 N   0  0  0  0  0  0  0  0  0  0  0  0
   10.0689   11.8613    1.5680 N   0  0  0  0  0  0  0  0  0  0  0  0
    8.7046    8.8902   -1.8295 O   0  0  0  0  0  0  0  0  0  0  0  0
  1  2  1  0  0  0  0
  1  6  1  0  0  0  0
  1  8  2  0  0  0  0
  2  3  1  0  0  0  0
  3  4  2  0  0  0  0
  3  7  1  0  0  0  0
  4  5  1  0  0  0  0
  5  6  2  0  0  0  0
M  END
>  <CHROM.1>
9.68902600,10.97251168,-0.91268539,2.31831781,-1.12281987,-1.61182374

>  <Name>
ligand

>  <RI>
0

>  <Rbt.Current_Directory>
/home/itssahil/PROJECTS/Mol_Feturizer/Test_systems_manuscript/rnas/3la5

>  <Rbt.Executable>
rbdock ($Id: //depot/dev/client3/rdock/2013.1/src/exe/rbdock.cxx#4 $)

>  <Rbt.Library>
libRbt.so (2013.1, Build901 2013/11/27)

>  <Rbt.Parameter_File>
/export/apps/rDock/src/rDock_2013.1_src/data/scripts/dock_solv.prm

>  <Rbt.Receptor>
prm/blind_docking_100.prm

>  <SCORE>
-8.61912

>  <SCORE.INTER>
-8.61912

>  <SCORE.INTER.CONST>
1

>  <SCORE.INTER.POLAR>
0

>  <SCORE.INTER.ROT>
0

>  <SCORE.INTER.SOLV>
8.40563

>  <SCORE.INTER.VDW>
-12.148

>  <SCORE.INTER.norm>
-1.07739

>  <SCORE.INTRA>
0

>  <SCORE.INTRA.DIHEDRAL>
0

>  <SCORE.INTRA.DIHEDRAL.0>
0

>  <SCORE.INTRA.POLAR>
0

>  <SCORE.INTRA.POLAR.0>
0

>  <SCORE.INTRA.REPUL>
0

>  <SCORE.INTRA.REPUL.0>
0

>  <SCORE.INTRA.SOLV>
0

>  <SCORE.INTRA.SOLV.lig_0>
-29.58

>  <SCORE.INTRA.VDW>
0

>  <SCORE.INTRA.VDW.0>
0

>  <SCORE.INTRA.norm>
0

>  <SCORE.RESTR>
0

>  <SCORE.RESTR.CAVITY>
0

>  <SCORE.RESTR.norm>
0

>  <SCORE.SYSTEM>
0

>  <SCORE.SYSTEM.CONST>
0

>  <SCORE.SYSTEM.DIHEDRAL>
0

>  <SCORE.SYSTEM.SOLV>
0

>  <SCORE.SYSTEM.norm>
0

>  <SCORE.heavy>
8

>  <SCORE.norm>
-1.07739

>  <RMSD>
3.457

$$$$
ligand
 OpenBabel02271912143D
libRbt.so/2013.1/901 2013/11/27
  8  8  0  0  0  0  0  0  0  0999 V2000
    9.2639   10.1099   -1.5151 C   0  0  0  0  0  0  0  0  0  0  0  0
    9.3730   10.4371   -0.2277 N   0  0  0  0  0  0  0  0  0  0  0  0
    9.9309   11.6017    0.1135 C   0  0  0  0  0  0  0  0  0  0  0  0
   10.3696   12.4531   -0.8429 N   0  0  0  0  0  0  0  0  0  0  0  0
   10.2595   12.1092   -2.1371 C   0  0  0  0  0  0  0  0  0  0  0  0
    9.7017   10.9373   -2.4787 N   0  0  0  0  0  0  0  0  0  0  0  0
   10.0384   11.9308    1.5504 N   0  0  0  0  0  0  0  0  0  0  0  0
    8.6922    8.9226   -1.8216 O   0  0  0  0  0  0  0  0  0  0  0  0
  1  2  1  0  0  0  0
  1  6  1  0  0  0  0
  1  8  2  0  0  0  0
  2  3  1  0  0  0  0
  3  4  2  0  0  0  0
  3  7  1  0  0  0  0
  4  5  1  0  0  0  0
  5  6  2  0  0  0  0
M  END
>  <CHROM.1>
9.67864171,11.01156952,-0.92213964,2.29593518,-1.11690600,-1.64505767

>  <Name>
ligand

>  <RI>
0

>  <Rbt.Current_Directory>
/home/itssahil/PROJECTS/Mol_Feturizer/Test_systems_manuscript/rnas/3la5

>  <Rbt.Executable>
rbdock ($Id: //depot/dev/client3/rdock/2013.1/src/exe/rbdock.cxx#4 $)

>  <Rbt.Library>
libRbt.so (2013.1, Build901 2013/11/27)

>  <Rbt.Parameter_File>
/export/apps/rDock/src/rDock_2013.1_src/data/scripts/dock_solv.prm

>  <Rbt.Receptor>
prm/blind_docking_20.prm

>  <SCORE>
-8.64057

>  <SCORE.INTER>
-8.64057

>  <SCORE.INTER.CONST>
1

>  <SCORE.INTER.POLAR>
0

>  <SCORE.INTER.ROT>
0

>  <SCORE.INTER.SOLV>
8.40635

>  <SCORE.INTER.VDW>
-12.1625

>  <SCORE.INTER.norm>
-1.08007

>  <SCORE.INTRA>
0

>  <SCORE.INTRA.DIHEDRAL>
0

>  <SCORE.INTRA.DIHEDRAL.0>
0

>  <SCORE.INTRA.POLAR>
0

>  <SCORE.INTRA.POLAR.0>
0

>  <SCORE.INTRA.REPUL>
0

>  <SCORE.INTRA.REPUL.0>
0

>  <SCORE.INTRA.SOLV>
0

>  <SCORE.INTRA.SOLV.lig_0>
-29.58

>  <SCORE.INTRA.VDW>
0

>  <SCORE.INTRA.VDW.0>
0

>  <SCORE.INTRA.norm>
0

>  <SCORE.RESTR>
0

>  <SCORE.RESTR.CAVITY>
0

>  <SCORE.RESTR.norm>
0

>  <SCORE.SYSTEM>
0

>  <SCORE.SYSTEM.CONST>
0

>  <SCORE.SYSTEM.DIHEDRAL>
0

>  <SCORE.SYSTEM.SOLV>
0

>  <SCORE.SYSTEM.norm>
0

>  <SCORE.heavy>
8

>  <SCORE.norm>
-1.08007

>  <RMSD>
3.457

$$$$
ligand
 OpenBabel02271912143D
libRbt.so/2013.1/901 2013/11/27
  8  8  0  0  0  0  0  0  0  0999 V2000
    9.2785   10.0707   -1.5201 C   0  0  0  0  0  0  0  0  0  0  0  0
    9.4358   10.3664   -0.2301 N   0  0  0  0  0  0  0  0  0  0  0  0
    9.9950   11.5281    0.1186 C   0  0  0  0  0  0  0  0  0  0  0  0
   10.3864   12.4084   -0.8322 N   0  0  0  0  0  0  0  0  0  0  0  0
   10.2279   12.0961   -2.1294 C   0  0  0  0  0  0  0  0  0  0  0  0
    9.6689   10.9271   -2.4787 N   0  0  0  0  0  0  0  0  0  0  0  0
   10.1566   11.8219    1.5581 N   0  0  0  0  0  0  0  0  0  0  0  0
    8.7071    8.8852   -1.8341 O   0  0  0  0  0  0  0  0  0  0  0  0
  1  2  1  0  0  0  0
  1  6  1  0  0  0  0
  1  8  2  0  0  0  0
  2  3  1  0  0  0  0
  3  4  2  0  0  0  0
  3  7  1  0  0  0  0
  4  5  1  0  0  0  0
  5  6  2  0  0  0  0
M  END
>  <CHROM.1>
9.70747650,10.96161832,-0.92107123,2.38766781,-1.12842026,-1.53678426

>  <Name>
ligand

>  <RI>
0

>  <Rbt.Current_Directory>
/home/itssahil/PROJECTS/Mol_Feturizer/Test_systems_manuscript/rnas/3la5

>  <Rbt.Executable>
rbdock ($Id: //depot/dev/client3/rdock/2013.1/src/exe/rbdock.cxx#4 $)

>  <Rbt.Library>
libRbt.so (2013.1, Build901 2013/11/27)

>  <Rbt.Parameter_File>
/export/apps/rDock/src/rDock_2013.1_src/data/scripts/dock_solv.prm

>  <Rbt.Receptor>
prm/blind_docking_20.prm

>  <SCORE>
-8.62045

>  <SCORE.INTER>
-8.62045

>  <SCORE.INTER.CONST>
1

>  <SCORE.INTER.POLAR>
0

>  <SCORE.INTER.ROT>
0

>  <SCORE.INTER.SOLV>
8.36588

>  <SCORE.INTER.VDW>
-12.1356

>  <SCORE.INTER.norm>
-1.07756

>  <SCORE.INTRA>
0

>  <SCORE.INTRA.DIHEDRAL>
0

>  <SCORE.INTRA.DIHEDRAL.0>
0

>  <SCORE.INTRA.POLAR>
0

>  <SCORE.INTRA.POLAR.0>
0

>  <SCORE.INTRA.REPUL>
0

>  <SCORE.INTRA.REPUL.0>
0

>  <SCORE.INTRA.SOLV>
0

>  <SCORE.INTRA.SOLV.lig_0>
-29.58

>  <SCORE.INTRA.VDW>
0

>  <SCORE.INTRA.VDW.0>
0

>  <SCORE.INTRA.norm>
0

>  <SCORE.RESTR>
0

>  <SCORE.RESTR.CAVITY>
0

>  <SCORE.RESTR.norm>
0

>  <SCORE.SYSTEM>
0

>  <SCORE.SYSTEM.CONST>
0

>  <SCORE.SYSTEM.DIHEDRAL>
0

>  <SCORE.SYSTEM.SOLV>
0

>  <SCORE.SYSTEM.norm>
0

>  <SCORE.heavy>
8

>  <SCORE.norm>
-1.07756

>  <RMSD>
3.457

$$$$
ligand
 OpenBabel02271912143D
libRbt.so/2013.1/901 2013/11/27
  8  8  0  0  0  0  0  0  0  0999 V2000
    9.2758   10.0755   -1.5195 C   0  0  0  0  0  0  0  0  0  0  0  0
    9.4209   10.3753   -0.2290 N   0  0  0  0  0  0  0  0  0  0  0  0
    9.9793   11.5371    0.1212 C   0  0  0  0  0  0  0  0  0  0  0  0
   10.3819   12.4132   -0.8287 N   0  0  0  0  0  0  0  0  0  0  0  0
   10.2356   12.0968   -2.1263 C   0  0  0  0  0  0  0  0  0  0  0  0
    9.6775   10.9278   -2.4771 N   0  0  0  0  0  0  0  0  0  0  0  0
   10.1272   11.8355    1.5613 N   0  0  0  0  0  0  0  0  0  0  0  0
    8.7050    8.8902   -1.8350 O   0  0  0  0  0  0  0  0  0  0  0  0
  1  2  1  0  0  0  0
  1  6  1  0  0  0  0
  1  8  2  0  0  0  0
  2  3  1  0  0  0  0
  3  4  2  0  0  0  0
  3  7  1  0  0  0  0
  4  5  1  0  0  0  0
  5  6  2  0  0  0  0
M  END
>  <CHROM.1>
9.70076127,10.96760529,-0.91926430,2.36450777,-1.12648708,-1.56115637

>  <Name>
ligand

>  <RI>
0

>  <Rbt.Current_Directory>
/home/itssahil/PROJECTS/Mol_Feturizer/Test_systems_manuscript/rnas/3la5

>  <Rbt.Executable>
rbdock ($Id: //depot/dev/client3/rdock/2013.1/src/exe/rbdock.cxx#4 $)

>  <Rbt.Library>
libRbt.so (2013.1, Build901 2013/11/27)

>  <Rbt.Parameter_File>
/export/apps/rDock/src/rDock_2013.1_src/data/scripts/dock_solv.prm

>  <Rbt.Receptor>
prm/blind_docking_20.prm

>  <SCORE>
-8.63289

>  <SCORE.INTER>
-8.63289

>  <SCORE.INTER.CONST>
1

>  <SCORE.INTER.POLAR>
0

>  <SCORE.INTER.ROT>
0

>  <SCORE.INTER.SOLV>
8.38184

>  <SCORE.INTER.VDW>
-12.1492

>  <SCORE.INTER.norm>
-1.07911

>  <SCORE.INTRA>
0

>  <SCORE.INTRA.DIHEDRAL>
0

>  <SCORE.INTRA.DIHEDRAL.0>
0

>  <SCORE.INTRA.POLAR>
0

>  <SCORE.INTRA.POLAR.0>
0

>  <SCORE.INTRA.REPUL>
0

>  <SCORE.INTRA.REPUL.0>
0

>  <SCORE.INTRA.SOLV>
0

>  <SCORE.INTRA.SOLV.lig_0>
-29.58

>  <SCORE.INTRA.VDW>
0

>  <SCORE.INTRA.VDW.0>
0

>  <SCORE.INTRA.norm>
0

>  <SCORE.RESTR>
0

>  <SCORE.RESTR.CAVITY>
0

>  <SCORE.RESTR.norm>
0

>  <SCORE.SYSTEM>
0

>  <SCORE.SYSTEM.CONST>
0

>  <SCORE.SYSTEM.DIHEDRAL>
0

>  <SCORE.SYSTEM.SOLV>
0

>  <SCORE.SYSTEM.norm>
0

>  <SCORE.heavy>
8

>  <SCORE.norm>
-1.07911

>  <RMSD>
3.457

$$$$
ligand
 OpenBabel02271912143D
libRbt.so/2013.1/901 2013/11/27
  8  8  0  0  0  0  0  0  0  0999 V2000
    9.2772   10.0729   -1.5200 C   0  0  0  0  0  0  0  0  0  0  0  0
    9.4275   10.3710   -0.2296 N   0  0  0  0  0  0  0  0  0  0  0  0
    9.9866   11.5325    0.1199 C   0  0  0  0  0  0  0  0  0  0  0  0
   10.3847   12.4103   -0.8303 N   0  0  0  0  0  0  0  0  0  0  0  0
   10.2333   12.0957   -2.1278 C   0  0  0  0  0  0  0  0  0  0  0  0
    9.6744   10.9269   -2.4780 N   0  0  0  0  0  0  0  0  0  0  0  0
   10.1404   11.8289    1.5598 N   0  0  0  0  0  0  0  0  0  0  0  0
    8.7058    8.8878   -1.8349 O   0  0  0  0  0  0  0  0  0  0  0  0
  1  2  1  0  0  0  0
  1  6  1  0  0  0  0
  1  8  2  0  0  0  0
  2  3  1  0  0  0  0
  3  4  2  0  0  0  0
  3  7  1  0  0  0  0
  4  5  1  0  0  0  0
  5  6  2  0  0  0  0
M  END
>  <CHROM.1>
9.70413886,10.96442572,-0.92020275,2.37420566,-1.12703531,-1.55091301

>  <Name>
ligand

>  <RI>
0

>  <Rbt.Current_Directory>
/home/itssahil/PROJECTS/Mol_Feturizer/Test_systems_manuscript/rnas/3la5

>  <Rbt.Executable>
rbdock ($Id: //depot/dev/client3/rdock/2013.1/src/exe/rbdock.cxx#4 $)

>  <Rbt.Library>
libRbt.so (2013.1, Build901 2013/11/27)

>  <Rbt.Parameter_File>
/export/apps/rDock/src/rDock_2013.1_src/data/scripts/dock_solv.prm

>  <Rbt.Receptor>
prm/blind_docking_60.prm

>  <SCORE>
-8.62794

>  <SCORE.INTER>
-8.62794

>  <SCORE.INTER.CONST>
1

>  <SCORE.INTER.POLAR>
0

>  <SCORE.INTER.ROT>
0

>  <SCORE.INTER.SOLV>
8.37525

>  <SCORE.INTER.VDW>
-12.1437

>  <SCORE.INTER.norm>
-1.07849

>  <SCORE.INTRA>
0

>  <SCORE.INTRA.DIHEDRAL>
0

>  <SCORE.INTRA.DIHEDRAL.0>
0

>  <SCORE.INTRA.POLAR>
0

>  <SCORE.INTRA.POLAR.0>
0

>  <SCORE.INTRA.REPUL>
0

>  <SCORE.INTRA.REPUL.0>
0

>  <SCORE.INTRA.SOLV>
0

>  <SCORE.INTRA.SOLV.lig_0>
-29.58

>  <SCORE.INTRA.VDW>
0

>  <SCORE.INTRA.VDW.0>
0

>  <SCORE.INTRA.norm>
0

>  <SCORE.RESTR>
0

>  <SCORE.RESTR.CAVITY>
0

>  <SCORE.RESTR.norm>
0

>  <SCORE.SYSTEM>
0

>  <SCORE.SYSTEM.CONST>
0

>  <SCORE.SYSTEM.DIHEDRAL>
0

>  <SCORE.SYSTEM.SOLV>
0

>  <SCORE.SYSTEM.norm>
0

>  <SCORE.heavy>
8

>  <SCORE.norm>
-1.07849

>  <RMSD>
3.457

$$$$
ligand
 OpenBabel02271912143D
libRbt.so/2013.1/901 2013/11/27
  8  8  0  0  0  0  0  0  0  0999 V2000
    9.2548   10.1121   -1.5119 C   0  0  0  0  0  0  0  0  0  0  0  0
    9.3499   10.4390   -0.2233 N   0  0  0  0  0  0  0  0  0  0  0  0
    9.9001   11.6055    0.1240 C   0  0  0  0  0  0  0  0  0  0  0  0
   10.3450   12.4591   -0.8275 N   0  0  0  0  0  0  0  0  0  0  0  0
   10.2489   12.1154   -2.1229 C   0  0  0  0  0  0  0  0  0  0  0  0
    9.6989   10.9417   -2.4707 N   0  0  0  0  0  0  0  0  0  0  0  0
    9.9921   11.9342    1.5621 N   0  0  0  0  0  0  0  0  0  0  0  0
    8.6905    8.9229   -1.8246 O   0  0  0  0  0  0  0  0  0  0  0  0
  1  2  1  0  0  0  0
  1  6  1  0  0  0  0
  1  8  2  0  0  0  0
  2  3  1  0  0  0  0
  3  4  2  0  0  0  0
  3  7  1  0  0  0  0
  4  5  1  0  0  0  0
  5  6  2  0  0  0  0
M  END
>  <CHROM.1>
9.66022833,11.01499669,-0.91436766,2.27273976,-1.11981942,-1.66538515

>  <Name>
ligand

>  <RI>
0

>  <Rbt.Current_Directory>
/home/itssahil/PROJECTS/Mol_Feturizer/Test_systems_manuscript/rnas/3la5

>  <Rbt.Executable>
rbdock ($Id: //depot/dev/client3/rdock/2013.1/src/exe/rbdock.cxx#4 $)

>  <Rbt.Library>
libRbt.so (2013.1, Build901 2013/11/27)

>  <Rbt.Parameter_File>
/export/apps/rDock/src/rDock_2013.1_src/data/scripts/dock_solv.prm

>  <Rbt.Receptor>
prm/pocket_docking_6.prm

>  <SCORE>
-8.60318

>  <SCORE.INTER>
-8.60318

>  <SCORE.INTER.CONST>
1

>  <SCORE.INTER.POLAR>
0

>  <SCORE.INTER.ROT>
0

>  <SCORE.INTER.SOLV>
8.47641

>  <SCORE.INTER.VDW>
-12.1609

>  <SCORE.INTER.norm>
-1.0754

>  <SCORE.INTRA>
0

>  <SCORE.INTRA.DIHEDRAL>
0

>  <SCORE.INTRA.DIHEDRAL.0>
0

>  <SCORE.INTRA.POLAR>
0

>  <SCORE.INTRA.POLAR.0>
0

>  <SCORE.INTRA.REPUL>
0

>  <SCORE.INTRA.REPUL.0>
0

>  <SCORE.INTRA.SOLV>
0

>  <SCORE.INTRA.SOLV.lig_0>
-29.58

>  <SCORE.INTRA.VDW>
0

>  <SCORE.INTRA.VDW.0>
0

>  <SCORE.INTRA.norm>
0

>  <SCORE.RESTR>
0

>  <SCORE.RESTR.CAVITY>
0

>  <SCORE.RESTR.norm>
0

>  <SCORE.SYSTEM>
0

>  <SCORE.SYSTEM.CONST>
0

>  <SCORE.SYSTEM.DIHEDRAL>
0

>  <SCORE.SYSTEM.SOLV>
0

>  <SCORE.SYSTEM.norm>
0

>  <SCORE.heavy>
8

>  <SCORE.norm>
-1.0754

>  <RMSD>
3.457

$$$$
ligand
 OpenBabel02271912143D
libRbt.so/2013.1/901 2013/11/27
  8  8  0  0  0  0  0  0  0  0999 V2000
    9.2751   10.0772   -1.5159 C   0  0  0  0  0  0  0  0  0  0  0  0
    9.4176   10.3820   -0.2263 N   0  0  0  0  0  0  0  0  0  0  0  0
    9.9744   11.5455    0.1204 C   0  0  0  0  0  0  0  0  0  0  0  0
   10.3780   12.4183   -0.8320 N   0  0  0  0  0  0  0  0  0  0  0  0
   10.2343   12.0969   -2.1287 C   0  0  0  0  0  0  0  0  0  0  0  0
    9.6778   10.9261   -2.4760 N   0  0  0  0  0  0  0  0  0  0  0  0
   10.1196   11.8495    1.5596 N   0  0  0  0  0  0  0  0  0  0  0  0
    8.7057    8.8902   -1.8280 O   0  0  0  0  0  0  0  0  0  0  0  0
  1  2  1  0  0  0  0
  1  6  1  0  0  0  0
  1  8  2  0  0  0  0
  2  3  1  0  0  0  0
  3  4  2  0  0  0  0
  3  7  1  0  0  0  0
  4  5  1  0  0  0  0
  5  6  2  0  0  0  0
M  END
>  <CHROM.1>
9.69822402,10.97188758,-0.91833224,2.36035923,-1.12728747,-1.56871850

>  <Name>
ligand

>  <RI>
0

>  <Rbt.Current_Directory>
/home/itssahil/PROJECTS/Mol_Feturizer/Test_systems_manuscript/rnas/3la5

>  <Rbt.Executable>
rbdock ($Id: //depot/dev/client3/rdock/2013.1/src/exe/rbdock.cxx#4 $)

>  <Rbt.Library>
libRbt.so (2013.1, Build901 2013/11/27)

>  <Rbt.Parameter_File>
/export/apps/rDock/src/rDock_2013.1_src/data/scripts/dock_solv.prm

>  <Rbt.Receptor>
prm/pocket_docking_6.prm

>  <SCORE>
-8.63478

>  <SCORE.INTER>
-8.63478

>  <SCORE.INTER.CONST>
1

>  <SCORE.INTER.POLAR>
0

>  <SCORE.INTER.ROT>
0

>  <SCORE.INTER.SOLV>
8.37211

>  <SCORE.INTER.VDW>
-12.1472

>  <SCORE.INTER.norm>
-1.07935

>  <SCORE.INTRA>
0

>  <SCORE.INTRA.DIHEDRAL>
0

>  <SCORE.INTRA.DIHEDRAL.0>
0

>  <SCORE.INTRA.POLAR>
0

>  <SCORE.INTRA.POLAR.0>
0

>  <SCORE.INTRA.REPUL>
0

>  <SCORE.INTRA.REPUL.0>
0

>  <SCORE.INTRA.SOLV>
0

>  <SCORE.INTRA.SOLV.lig_0>
-29.58

>  <SCORE.INTRA.VDW>
0

>  <SCORE.INTRA.VDW.0>
0

>  <SCORE.INTRA.norm>
0

>  <SCORE.RESTR>
0

>  <SCORE.RESTR.CAVITY>
0

>  <SCORE.RESTR.norm>
0

>  <SCORE.SYSTEM>
0

>  <SCORE.SYSTEM.CONST>
0

>  <SCORE.SYSTEM.DIHEDRAL>
0

>  <SCORE.SYSTEM.SOLV>
0

>  <SCORE.SYSTEM.norm>
0

>  <SCORE.heavy>
8

>  <SCORE.norm>
-1.07935

>  <RMSD>
3.457

$$$$
ligand
 OpenBabel02271912143D
libRbt.so/2013.1/901 2013/11/27
  8  8  0  0  0  0  0  0  0  0999 V2000
    9.2786   10.0706   -1.5126 C   0  0  0  0  0  0  0  0  0  0  0  0
    9.4175   10.3789   -0.2233 N   0  0  0  0  0  0  0  0  0  0  0  0
    9.9753   11.5423    0.1219 C   0  0  0  0  0  0  0  0  0  0  0  0
   10.3837   12.4117   -0.8318 N   0  0  0  0  0  0  0  0  0  0  0  0
   10.2436   12.0868   -2.1280 C   0  0  0  0  0  0  0  0  0  0  0  0
    9.6860   10.9161   -2.4738 N   0  0  0  0  0  0  0  0  0  0  0  0
   10.1163   11.8502    1.5606 N   0  0  0  0  0  0  0  0  0  0  0  0
    8.7080    8.8838   -1.8231 O   0  0  0  0  0  0  0  0  0  0  0  0
  1  2  1  0  0  0  0
  1  6  1  0  0  0  0
  1  8  2  0  0  0  0
  2  3  1  0  0  0  0
  3  4  2  0  0  0  0
  3  7  1  0  0  0  0
  4  5  1  0  0  0  0
  5  6  2  0  0  0  0
M  END
>  <CHROM.1>
9.70145989,10.96623061,-0.91616610,2.35270411,-1.12542024,-1.57849405

>  <Name>
ligand

>  <RI>
0

>  <Rbt.Current_Directory>
/home/itssahil/PROJECTS/Mol_Feturizer/Test_systems_manuscript/rnas/3la5

>  <Rbt.Executable>
rbdock ($Id: //depot/dev/client3/rdock/2013.1/src/exe/rbdock.cxx#4 $)

>  <Rbt.Library>
libRbt.so (2013.1, Build901 2013/11/27)

>  <Rbt.Parameter_File>
/export/apps/rDock/src/rDock_2013.1_src/data/scripts/dock_solv.prm

>  <Rbt.Receptor>
prm/pocket_docking_6.prm

>  <SCORE>
-8.63651

>  <SCORE.INTER>
-8.63651

>  <SCORE.INTER.CONST>
1

>  <SCORE.INTER.POLAR>
0

>  <SCORE.INTER.ROT>
0

>  <SCORE.INTER.SOLV>
8.37193

>  <SCORE.INTER.VDW>
-12.1483

>  <SCORE.INTER.norm>
-1.07956

>  <SCORE.INTRA>
0

>  <SCORE.INTRA.DIHEDRAL>
0

>  <SCORE.INTRA.DIHEDRAL.0>
0

>  <SCORE.INTRA.POLAR>
0

>  <SCORE.INTRA.POLAR.0>
0

>  <SCORE.INTRA.REPUL>
0

>  <SCORE.INTRA.REPUL.0>
0

>  <SCORE.INTRA.SOLV>
0

>  <SCORE.INTRA.SOLV.lig_0>
-29.58

>  <SCORE.INTRA.VDW>
0

>  <SCORE.INTRA.VDW.0>
0

>  <SCORE.INTRA.norm>
0

>  <SCORE.RESTR>
0

>  <SCORE.RESTR.CAVITY>
0

>  <SCORE.RESTR.norm>
0

>  <SCORE.SYSTEM>
0

>  <SCORE.SYSTEM.CONST>
0

>  <SCORE.SYSTEM.DIHEDRAL>
0

>  <SCORE.SYSTEM.SOLV>
0

>  <SCORE.SYSTEM.norm>
0

>  <SCORE.heavy>
8

>  <SCORE.norm>
-1.07956

>  <RMSD>
3.457

$$$$
ligand
 OpenBabel02271912143D
libRbt.so/2013.1/901 2013/11/27
  8  8  0  0  0  0  0  0  0  0999 V2000
    9.2791   10.0722   -1.5142 C   0  0  0  0  0  0  0  0  0  0  0  0
    9.4296   10.3762   -0.2253 N   0  0  0  0  0  0  0  0  0  0  0  0
    9.9882   11.5396    0.1188 C   0  0  0  0  0  0  0  0  0  0  0  0
   10.3857   12.4132   -0.8355 N   0  0  0  0  0  0  0  0  0  0  0  0
   10.2341   12.0926   -2.1315 C   0  0  0  0  0  0  0  0  0  0  0  0
    9.6757   10.9220   -2.4762 N   0  0  0  0  0  0  0  0  0  0  0  0
   10.1422   11.8426    1.5573 N   0  0  0  0  0  0  0  0  0  0  0  0
    8.7081    8.8853   -1.8236 O   0  0  0  0  0  0  0  0  0  0  0  0
  1  2  1  0  0  0  0
  1  6  1  0  0  0  0
  1  8  2  0  0  0  0
  2  3  1  0  0  0  0
  3  4  2  0  0  0  0
  3  7  1  0  0  0  0
  4  5  1  0  0  0  0
  5  6  2  0  0  0  0
M  END
>  <CHROM.1>
9.70573017,10.96660381,-0.91865000,2.37476622,-1.12747759,-1.55499073

>  <Name>
ligand

>  <RI>
0

>  <Rbt.Current_Directory>
/home/itssahil/PROJECTS/Mol_Feturizer/Test_systems_manuscript/rnas/3la5

>  <Rbt.Executable>
rbdock ($Id: //depot/dev/client3/rdock/2013.1/src/exe/rbdock.cxx#4 $)

>  <Rbt.Library>
libRbt.so (2013.1, Build901 2013/11/27)

>  <Rbt.Parameter_File>
/export/apps/rDock/src/rDock_2013.1_src/data/scripts/dock_solv.prm

>  <Rbt.Receptor>
prm/pocket_docking_8.prm

>  <SCORE>
-8.62777

>  <SCORE.INTER>
-8.62777

>  <SCORE.INTER.CONST>
1

>  <SCORE.INTER.POLAR>
0

>  <SCORE.INTER.ROT>
0

>  <SCORE.INTER.SOLV>
8.35636

>  <SCORE.INTER.VDW>
-12.1373

>  <SCORE.INTER.norm>
-1.07847

>  <SCORE.INTRA>
0

>  <SCORE.INTRA.DIHEDRAL>
0

>  <SCORE.INTRA.DIHEDRAL.0>
0

>  <SCORE.INTRA.POLAR>
0

>  <SCORE.INTRA.POLAR.0>
0

>  <SCORE.INTRA.REPUL>
0

>  <SCORE.INTRA.REPUL.0>
0

>  <SCORE.INTRA.SOLV>
0

>  <SCORE.INTRA.SOLV.lig_0>
-29.58

>  <SCORE.INTRA.VDW>
0

>  <SCORE.INTRA.VDW.0>
0

>  <SCORE.INTRA.norm>
0

>  <SCORE.RESTR>
0

>  <SCORE.RESTR.CAVITY>
0

>  <SCORE.RESTR.norm>
0

>  <SCORE.SYSTEM>
0

>  <SCORE.SYSTEM.CONST>
0

>  <SCORE.SYSTEM.DIHEDRAL>
0

>  <SCORE.SYSTEM.SOLV>
0

>  <SCORE.SYSTEM.norm>
0

>  <SCORE.heavy>
8

>  <SCORE.norm>
-1.07847

>  <RMSD>
3.457

$$$$
ligand
 OpenBabel02271912143D
libRbt.so/2013.1/901 2013/11/27
  8  8  0  0  0  0  0  0  0  0999 V2000
    9.2780   10.0724   -1.5197 C   0  0  0  0  0  0  0  0  0  0  0  0
    9.4301   10.3723   -0.2300 N   0  0  0  0  0  0  0  0  0  0  0  0
    9.9901   11.5342    0.1171 C   0  0  0  0  0  0  0  0  0  0  0  0
   10.3874   12.4103   -0.8350 N   0  0  0  0  0  0  0  0  0  0  0  0
   10.2342   12.0938   -2.1319 C   0  0  0  0  0  0  0  0  0  0  0  0
    9.6744   10.9247   -2.4795 N   0  0  0  0  0  0  0  0  0  0  0  0
   10.1458   11.8327    1.5563 N   0  0  0  0  0  0  0  0  0  0  0  0
    8.7057    8.8869   -1.8320 O   0  0  0  0  0  0  0  0  0  0  0  0
  1  2  1  0  0  0  0
  1  6  1  0  0  0  0
  1  8  2  0  0  0  0
  2  3  1  0  0  0  0
  3  4  2  0  0  0  0
  3  7  1  0  0  0  0
  4  5  1  0  0  0  0
  5  6  2  0  0  0  0
M  END
>  <CHROM.1>
9.70606073,10.96458354,-0.92182700,2.37709207,-1.12657923,-1.54987461

>  <Name>
ligand

>  <RI>
0

>  <Rbt.Current_Directory>
/home/itssahil/PROJECTS/Mol_Feturizer/Test_systems_manuscript/rnas/3la5

>  <Rbt.Executable>
rbdock ($Id: //depot/dev/client3/rdock/2013.1/src/exe/rbdock.cxx#4 $)

>  <Rbt.Library>
libRbt.so (2013.1, Build901 2013/11/27)

>  <Rbt.Parameter_File>
/export/apps/rDock/src/rDock_2013.1_src/data/scripts/dock_solv.prm

>  <Rbt.Receptor>
prm/blind_docking_100.prm

>  <SCORE>
-8.62747

>  <SCORE.INTER>
-8.62747

>  <SCORE.INTER.CONST>
1

>  <SCORE.INTER.POLAR>
0

>  <SCORE.INTER.ROT>
0

>  <SCORE.INTER.SOLV>
8.36334

>  <SCORE.INTER.VDW>
-12.1394

>  <SCORE.INTER.norm>
-1.07843

>  <SCORE.INTRA>
0

>  <SCORE.INTRA.DIHEDRAL>
0

>  <SCORE.INTRA.DIHEDRAL.0>
0

>  <SCORE.INTRA.POLAR>
0

>  <SCORE.INTRA.POLAR.0>
0

>  <SCORE.INTRA.REPUL>
0

>  <SCORE.INTRA.REPUL.0>
0

>  <SCORE.INTRA.SOLV>
0

>  <SCORE.INTRA.SOLV.lig_0>
-29.58

>  <SCORE.INTRA.VDW>
0

>  <SCORE.INTRA.VDW.0>
0

>  <SCORE.INTRA.norm>
0

>  <SCORE.RESTR>
0

>  <SCORE.RESTR.CAVITY>
0

>  <SCORE.RESTR.norm>
0

>  <SCORE.SYSTEM>
0

>  <SCORE.SYSTEM.CONST>
0

>  <SCORE.SYSTEM.DIHEDRAL>
0

>  <SCORE.SYSTEM.SOLV>
0

>  <SCORE.SYSTEM.norm>
0

>  <SCORE.heavy>
8

>  <SCORE.norm>
-1.07843

>  <RMSD>
3.458

$$$$
ligand
 OpenBabel02271912143D
libRbt.so/2013.1/901 2013/11/27
  8  8  0  0  0  0  0  0  0  0999 V2000
    9.2721   10.0793   -1.5245 C   0  0  0  0  0  0  0  0  0  0  0  0
    9.4105   10.3782   -0.2330 N   0  0  0  0  0  0  0  0  0  0  0  0
    9.9676   11.5393    0.1209 C   0  0  0  0  0  0  0  0  0  0  0  0
   10.3758   12.4159   -0.8262 N   0  0  0  0  0  0  0  0  0  0  0  0
   10.2362   12.1004   -2.1248 C   0  0  0  0  0  0  0  0  0  0  0  0
    9.6793   10.9320   -2.4793 N   0  0  0  0  0  0  0  0  0  0  0  0
   10.1081   11.8367    1.5620 N   0  0  0  0  0  0  0  0  0  0  0  0
    8.7022    8.8945   -1.8439 O   0  0  0  0  0  0  0  0  0  0  0  0
  1  2  1  0  0  0  0
  1  6  1  0  0  0  0
  1  8  2  0  0  0  0
  2  3  1  0  0  0  0
  3  4  2  0  0  0  0
  3  7  1  0  0  0  0
  4  5  1  0  0  0  0
  5  6  2  0  0  0  0
M  END
>  <CHROM.1>
9.69432356,10.97073922,-0.92137591,2.35211623,-1.12593053,-1.57166632

>  <Name>
ligand

>  <RI>
0

>  <Rbt.Current_Directory>
/home/itssahil/PROJECTS/Mol_Feturizer/Test_systems_manuscript/rnas/3la5

>  <Rbt.Executable>
rbdock ($Id: //depot/dev/client3/rdock/2013.1/src/exe/rbdock.cxx#4 $)

>  <Rbt.Library>
libRbt.so (2013.1, Build901 2013/11/27)

>  <Rbt.Parameter_File>
/export/apps/rDock/src/rDock_2013.1_src/data/scripts/dock_solv.prm

>  <Rbt.Receptor>
prm/blind_docking_100.prm

>  <SCORE>
-8.63535

>  <SCORE.INTER>
-8.63535

>  <SCORE.INTER.CONST>
1

>  <SCORE.INTER.POLAR>
0

>  <SCORE.INTER.ROT>
0

>  <SCORE.INTER.SOLV>
8.39869

>  <SCORE.INTER.VDW>
-12.1565

>  <SCORE.INTER.norm>
-1.07942

>  <SCORE.INTRA>
0

>  <SCORE.INTRA.DIHEDRAL>
0

>  <SCORE.INTRA.DIHEDRAL.0>
0

>  <SCORE.INTRA.POLAR>
0

>  <SCORE.INTRA.POLAR.0>
0

>  <SCORE.INTRA.REPUL>
0

>  <SCORE.INTRA.REPUL.0>
0

>  <SCORE.INTRA.SOLV>
0

>  <SCORE.INTRA.SOLV.lig_0>
-29.58

>  <SCORE.INTRA.VDW>
0

>  <SCORE.INTRA.VDW.0>
0

>  <SCORE.INTRA.norm>
0

>  <SCORE.RESTR>
0

>  <SCORE.RESTR.CAVITY>
0

>  <SCORE.RESTR.norm>
0

>  <SCORE.SYSTEM>
0

>  <SCORE.SYSTEM.CONST>
0

>  <SCORE.SYSTEM.DIHEDRAL>
0

>  <SCORE.SYSTEM.SOLV>
0

>  <SCORE.SYSTEM.norm>
0

>  <SCORE.heavy>
8

>  <SCORE.norm>
-1.07942

>  <RMSD>
3.458

$$$$
ligand
 OpenBabel02271912143D
libRbt.so/2013.1/901 2013/11/27
  8  8  0  0  0  0  0  0  0  0999 V2000
    9.2763   10.0776   -1.5203 C   0  0  0  0  0  0  0  0  0  0  0  0
    9.4107   10.3835   -0.2301 N   0  0  0  0  0  0  0  0  0  0  0  0
    9.9686   11.5457    0.1193 C   0  0  0  0  0  0  0  0  0  0  0  0
   10.3815   12.4162   -0.8312 N   0  0  0  0  0  0  0  0  0  0  0  0
   10.2460   12.0938   -2.1286 C   0  0  0  0  0  0  0  0  0  0  0  0
    9.6883   10.9243   -2.4785 N   0  0  0  0  0  0  0  0  0  0  0  0
   10.1045   11.8508    1.5591 N   0  0  0  0  0  0  0  0  0  0  0  0
    8.7055    8.8921   -1.8351 O   0  0  0  0  0  0  0  0  0  0  0  0
  1  2  1  0  0  0  0
  1  6  1  0  0  0  0
  1  8  2  0  0  0  0
  2  3  1  0  0  0  0
  3  4  2  0  0  0  0
  3  7  1  0  0  0  0
  4  5  1  0  0  0  0
  5  6  2  0  0  0  0
M  END
>  <CHROM.1>
9.69795841,10.97172560,-0.92077410,2.34405372,-1.12420272,-1.58451610

>  <Name>
ligand

>  <RI>
0

>  <Rbt.Current_Directory>
/home/itssahil/PROJECTS/Mol_Feturizer/Test_systems_manuscript/rnas/3la5

>  <Rbt.Executable>
rbdock ($Id: //depot/dev/client3/rdock/2013.1/src/exe/rbdock.cxx#4 $)

>  <Rbt.Library>
libRbt.so (2013.1, Build901 2013/11/27)

>  <Rbt.Parameter_File>
/export/apps/rDock/src/rDock_2013.1_src/data/scripts/dock_solv.prm

>  <Rbt.Receptor>
prm/blind_docking_20.prm

>  <SCORE>
-8.64166

>  <SCORE.INTER>
-8.64166

>  <SCORE.INTER.CONST>
1

>  <SCORE.INTER.POLAR>
0

>  <SCORE.INTER.ROT>
0

>  <SCORE.INTER.SOLV>
8.37901

>  <SCORE.INTER.VDW>
-12.1541

>  <SCORE.INTER.norm>
-1.08021

>  <SCORE.INTRA>
0

>  <SCORE.INTRA.DIHEDRAL>
0

>  <SCORE.INTRA.DIHEDRAL.0>
0

>  <SCORE.INTRA.POLAR>
0

>  <SCORE.INTRA.POLAR.0>
0

>  <SCORE.INTRA.REPUL>
0

>  <SCORE.INTRA.REPUL.0>
0

>  <SCORE.INTRA.SOLV>
0

>  <SCORE.INTRA.SOLV.lig_0>
-29.58

>  <SCORE.INTRA.VDW>
0

>  <SCORE.INTRA.VDW.0>
0

>  <SCORE.INTRA.norm>
0

>  <SCORE.RESTR>
0

>  <SCORE.RESTR.CAVITY>
0

>  <SCORE.RESTR.norm>
0

>  <SCORE.SYSTEM>
0

>  <SCORE.SYSTEM.CONST>
0

>  <SCORE.SYSTEM.DIHEDRAL>
0

>  <SCORE.SYSTEM.SOLV>
0

>  <SCORE.SYSTEM.norm>
0

>  <SCORE.heavy>
8

>  <SCORE.norm>
-1.08021

>  <RMSD>
3.458

$$$$
ligand
 OpenBabel02271912143D
libRbt.so/2013.1/901 2013/11/27
  8  8  0  0  0  0  0  0  0  0999 V2000
    9.2631   10.1102   -1.5165 C   0  0  0  0  0  0  0  0  0  0  0  0
    9.3705   10.4382   -0.2292 N   0  0  0  0  0  0  0  0  0  0  0  0
    9.9292   11.6023    0.1121 C   0  0  0  0  0  0  0  0  0  0  0  0
   10.3704   12.4526   -0.8441 N   0  0  0  0  0  0  0  0  0  0  0  0
   10.2620   12.1079   -2.1382 C   0  0  0  0  0  0  0  0  0  0  0  0
    9.7034   10.9365   -2.4799 N   0  0  0  0  0  0  0  0  0  0  0  0
   10.0347   11.9323    1.5490 N   0  0  0  0  0  0  0  0  0  0  0  0
    8.6905    8.9234   -1.8232 O   0  0  0  0  0  0  0  0  0  0  0  0
  1  2  1  0  0  0  0
  1  6  1  0  0  0  0
  1  8  2  0  0  0  0
  2  3  1  0  0  0  0
  3  4  2  0  0  0  0
  3  7  1  0  0  0  0
  4  5  1  0  0  0  0
  5  6  2  0  0  0  0
M  END
>  <CHROM.1>
9.67791215,11.01178942,-0.92348468,2.29247699,-1.11561680,-1.64883529

>  <Name>
ligand

>  <RI>
0

>  <Rbt.Current_Directory>
/home/itssahil/PROJECTS/Mol_Feturizer/Test_systems_manuscript/rnas/3la5

>  <Rbt.Executable>
rbdock ($Id: //depot/dev/client3/rdock/2013.1/src/exe/rbdock.cxx#4 $)

>  <Rbt.Library>
libRbt.so (2013.1, Build901 2013/11/27)

>  <Rbt.Parameter_File>
/export/apps/rDock/src/rDock_2013.1_src/data/scripts/dock_solv.prm

>  <Rbt.Receptor>
prm/blind_docking_40.prm

>  <SCORE>
-8.64043

>  <SCORE.INTER>
-8.64043

>  <SCORE.INTER.CONST>
1

>  <SCORE.INTER.POLAR>
0

>  <SCORE.INTER.ROT>
0

>  <SCORE.INTER.SOLV>
8.41186

>  <SCORE.INTER.VDW>
-12.1642

>  <SCORE.INTER.norm>
-1.08005

>  <SCORE.INTRA>
0

>  <SCORE.INTRA.DIHEDRAL>
0

>  <SCORE.INTRA.DIHEDRAL.0>
0

>  <SCORE.INTRA.POLAR>
0

>  <SCORE.INTRA.POLAR.0>
0

>  <SCORE.INTRA.REPUL>
0

>  <SCORE.INTRA.REPUL.0>
0

>  <SCORE.INTRA.SOLV>
0

>  <SCORE.INTRA.SOLV.lig_0>
-29.58

>  <SCORE.INTRA.VDW>
0

>  <SCORE.INTRA.VDW.0>
0

>  <SCORE.INTRA.norm>
0

>  <SCORE.RESTR>
0

>  <SCORE.RESTR.CAVITY>
0

>  <SCORE.RESTR.norm>
0

>  <SCORE.SYSTEM>
0

>  <SCORE.SYSTEM.CONST>
0

>  <SCORE.SYSTEM.DIHEDRAL>
0

>  <SCORE.SYSTEM.SOLV>
0

>  <SCORE.SYSTEM.norm>
0

>  <SCORE.heavy>
8

>  <SCORE.norm>
-1.08005

>  <RMSD>
3.458

$$$$
ligand
 OpenBabel02271912143D
libRbt.so/2013.1/901 2013/11/27
  8  8  0  0  0  0  0  0  0  0999 V2000
    9.2761   10.0781   -1.5184 C   0  0  0  0  0  0  0  0  0  0  0  0
    9.4111   10.3851   -0.2284 N   0  0  0  0  0  0  0  0  0  0  0  0
    9.9674   11.5484    0.1197 C   0  0  0  0  0  0  0  0  0  0  0  0
   10.3782   12.4189   -0.8319 N   0  0  0  0  0  0  0  0  0  0  0  0
   10.2421   12.0954   -2.1288 C   0  0  0  0  0  0  0  0  0  0  0  0
    9.6860   10.9248   -2.4775 N   0  0  0  0  0  0  0  0  0  0  0  0
   10.1041   11.8548    1.5592 N   0  0  0  0  0  0  0  0  0  0  0  0
    8.7070    8.8914   -1.8319 O   0  0  0  0  0  0  0  0  0  0  0  0
  1  2  1  0  0  0  0
  1  6  1  0  0  0  0
  1  8  2  0  0  0  0
  2  3  1  0  0  0  0
  3  4  2  0  0  0  0
  3  7  1  0  0  0  0
  4  5  1  0  0  0  0
  5  6  2  0  0  0  0
M  END
>  <CHROM.1>
9.69687248,10.97329751,-0.91980072,2.34593059,-1.12583357,-1.58352982

>  <Name>
ligand

>  <RI>
0

>  <Rbt.Current_Directory>
/home/itssahil/PROJECTS/Mol_Feturizer/Test_systems_manuscript/rnas/3la5

>  <Rbt.Executable>
rbdock ($Id: //depot/dev/client3/rdock/2013.1/src/exe/rbdock.cxx#4 $)

>  <Rbt.Library>
libRbt.so (2013.1, Build901 2013/11/27)

>  <Rbt.Parameter_File>
/export/apps/rDock/src/rDock_2013.1_src/data/scripts/dock_solv.prm

>  <Rbt.Receptor>
prm/blind_docking_40.prm

>  <SCORE>
-8.64019

>  <SCORE.INTER>
-8.64019

>  <SCORE.INTER.CONST>
1

>  <SCORE.INTER.POLAR>
0

>  <SCORE.INTER.ROT>
0

>  <SCORE.INTER.SOLV>
8.37445

>  <SCORE.INTER.VDW>
-12.1516

>  <SCORE.INTER.norm>
-1.08002

>  <SCORE.INTRA>
0

>  <SCORE.INTRA.DIHEDRAL>
0

>  <SCORE.INTRA.DIHEDRAL.0>
0

>  <SCORE.INTRA.POLAR>
0

>  <SCORE.INTRA.POLAR.0>
0

>  <SCORE.INTRA.REPUL>
0

>  <SCORE.INTRA.REPUL.0>
0

>  <SCORE.INTRA.SOLV>
0

>  <SCORE.INTRA.SOLV.lig_0>
-29.58

>  <SCORE.INTRA.VDW>
0

>  <SCORE.INTRA.VDW.0>
0

>  <SCORE.INTRA.norm>
0

>  <SCORE.RESTR>
0

>  <SCORE.RESTR.CAVITY>
0

>  <SCORE.RESTR.norm>
0

>  <SCORE.SYSTEM>
0

>  <SCORE.SYSTEM.CONST>
0

>  <SCORE.SYSTEM.DIHEDRAL>
0

>  <SCORE.SYSTEM.SOLV>
0

>  <SCORE.SYSTEM.norm>
0

>  <SCORE.heavy>
8

>  <SCORE.norm>
-1.08002

>  <RMSD>
3.458

$$$$
ligand
 OpenBabel02271912143D
libRbt.so/2013.1/901 2013/11/27
  8  8  0  0  0  0  0  0  0  0999 V2000
    9.2687   10.1045   -1.5201 C   0  0  0  0  0  0  0  0  0  0  0  0
    9.4048   10.4234   -0.2332 N   0  0  0  0  0  0  0  0  0  0  0  0
    9.9666   11.5873    0.1038 C   0  0  0  0  0  0  0  0  0  0  0  0
   10.3819   12.4465   -0.8560 N   0  0  0  0  0  0  0  0  0  0  0  0
   10.2446   12.1110   -2.1499 C   0  0  0  0  0  0  0  0  0  0  0  0
    9.6829   10.9398   -2.4873 N   0  0  0  0  0  0  0  0  0  0  0  0
   10.1043   11.9070    1.5403 N   0  0  0  0  0  0  0  0  0  0  0  0
    8.6939    8.9176   -1.8222 O   0  0  0  0  0  0  0  0  0  0  0  0
  1  2  1  0  0  0  0
  1  6  1  0  0  0  0
  1  8  2  0  0  0  0
  2  3  1  0  0  0  0
  3  4  2  0  0  0  0
  3  7  1  0  0  0  0
  4  5  1  0  0  0  0
  5  6  2  0  0  0  0
M  END
>  <CHROM.1>
9.69354818,11.00341837,-0.93011925,2.34538614,-1.12096479,-1.59376325

>  <Name>
ligand

>  <RI>
0

>  <Rbt.Current_Directory>
/home/itssahil/PROJECTS/Mol_Feturizer/Test_systems_manuscript/rnas/3la5

>  <Rbt.Executable>
rbdock ($Id: //depot/dev/client3/rdock/2013.1/src/exe/rbdock.cxx#4 $)

>  <Rbt.Library>
libRbt.so (2013.1, Build901 2013/11/27)

>  <Rbt.Parameter_File>
/export/apps/rDock/src/rDock_2013.1_src/data/scripts/dock_solv.prm

>  <Rbt.Receptor>
prm/pocket_docking_4.prm

>  <SCORE>
-8.63281

>  <SCORE.INTER>
-8.63281

>  <SCORE.INTER.CONST>
1

>  <SCORE.INTER.POLAR>
0

>  <SCORE.INTER.ROT>
0

>  <SCORE.INTER.SOLV>
8.3171

>  <SCORE.INTER.VDW>
-12.1276

>  <SCORE.INTER.norm>
-1.0791

>  <SCORE.INTRA>
0

>  <SCORE.INTRA.DIHEDRAL>
0

>  <SCORE.INTRA.DIHEDRAL.0>
0

>  <SCORE.INTRA.POLAR>
0

>  <SCORE.INTRA.POLAR.0>
0

>  <SCORE.INTRA.REPUL>
0

>  <SCORE.INTRA.REPUL.0>
0

>  <SCORE.INTRA.SOLV>
0

>  <SCORE.INTRA.SOLV.lig_0>
-29.58

>  <SCORE.INTRA.VDW>
0

>  <SCORE.INTRA.VDW.0>
0

>  <SCORE.INTRA.norm>
0

>  <SCORE.RESTR>
0

>  <SCORE.RESTR.CAVITY>
0

>  <SCORE.RESTR.norm>
0

>  <SCORE.SYSTEM>
0

>  <SCORE.SYSTEM.CONST>
0

>  <SCORE.SYSTEM.DIHEDRAL>
0

>  <SCORE.SYSTEM.SOLV>
0

>  <SCORE.SYSTEM.norm>
0

>  <SCORE.heavy>
8

>  <SCORE.norm>
-1.0791

>  <RMSD>
3.458

$$$$
ligand
 OpenBabel02271912143D
libRbt.so/2013.1/901 2013/11/27
  8  8  0  0  0  0  0  0  0  0999 V2000
    9.2811   10.0707   -1.5184 C   0  0  0  0  0  0  0  0  0  0  0  0
    9.4366   10.3732   -0.2297 N   0  0  0  0  0  0  0  0  0  0  0  0
    9.9983   11.5353    0.1136 C   0  0  0  0  0  0  0  0  0  0  0  0
   10.3939   12.4092   -0.8413 N   0  0  0  0  0  0  0  0  0  0  0  0
   10.2372   12.0901   -2.1371 C   0  0  0  0  0  0  0  0  0  0  0  0
    9.6756   10.9208   -2.4809 N   0  0  0  0  0  0  0  0  0  0  0  0
   10.1579   11.8366    1.5518 N   0  0  0  0  0  0  0  0  0  0  0  0
    8.7071    8.8851   -1.8270 O   0  0  0  0  0  0  0  0  0  0  0  0
  1  2  1  0  0  0  0
  1  6  1  0  0  0  0
  1  8  2  0  0  0  0
  2  3  1  0  0  0  0
  3  4  2  0  0  0  0
  3  7  1  0  0  0  0
  4  5  1  0  0  0  0
  5  6  2  0  0  0  0
M  END
>  <CHROM.1>
9.71126556,10.96380844,-0.92346346,2.38291080,-1.12578174,-1.54664229

>  <Name>
ligand

>  <RI>
0

>  <Rbt.Current_Directory>
/home/itssahil/PROJECTS/Mol_Feturizer/Test_systems_manuscript/rnas/3la5

>  <Rbt.Executable>
rbdock ($Id: //depot/dev/client3/rdock/2013.1/src/exe/rbdock.cxx#4 $)

>  <Rbt.Library>
libRbt.so (2013.1, Build901 2013/11/27)

>  <Rbt.Parameter_File>
/export/apps/rDock/src/rDock_2013.1_src/data/scripts/dock_solv.prm

>  <Rbt.Receptor>
prm/pocket_docking_5.prm

>  <SCORE>
-8.62456

>  <SCORE.INTER>
-8.62456

>  <SCORE.INTER.CONST>
1

>  <SCORE.INTER.POLAR>
0

>  <SCORE.INTER.ROT>
0

>  <SCORE.INTER.SOLV>
8.34303

>  <SCORE.INTER.VDW>
-12.1307

>  <SCORE.INTER.norm>
-1.07807

>  <SCORE.INTRA>
0

>  <SCORE.INTRA.DIHEDRAL>
0

>  <SCORE.INTRA.DIHEDRAL.0>
0

>  <SCORE.INTRA.POLAR>
0

>  <SCORE.INTRA.POLAR.0>
0

>  <SCORE.INTRA.REPUL>
0

>  <SCORE.INTRA.REPUL.0>
0

>  <SCORE.INTRA.SOLV>
0

>  <SCORE.INTRA.SOLV.lig_0>
-29.58

>  <SCORE.INTRA.VDW>
0

>  <SCORE.INTRA.VDW.0>
0

>  <SCORE.INTRA.norm>
0

>  <SCORE.RESTR>
0

>  <SCORE.RESTR.CAVITY>
0

>  <SCORE.RESTR.norm>
0

>  <SCORE.SYSTEM>
0

>  <SCORE.SYSTEM.CONST>
0

>  <SCORE.SYSTEM.DIHEDRAL>
0

>  <SCORE.SYSTEM.SOLV>
0

>  <SCORE.SYSTEM.norm>
0

>  <SCORE.heavy>
8

>  <SCORE.norm>
-1.07807

>  <RMSD>
3.458

$$$$
ligand
 OpenBabel02271912143D
libRbt.so/2013.1/901 2013/11/27
  8  8  0  0  0  0  0  0  0  0999 V2000
    9.2800   10.0765   -1.5208 C   0  0  0  0  0  0  0  0  0  0  0  0
    9.4316   10.3797   -0.2318 N   0  0  0  0  0  0  0  0  0  0  0  0
    9.9933   11.5415    0.1125 C   0  0  0  0  0  0  0  0  0  0  0  0
   10.3927   12.4144   -0.8416 N   0  0  0  0  0  0  0  0  0  0  0  0
   10.2399   12.0947   -2.1377 C   0  0  0  0  0  0  0  0  0  0  0  0
    9.6784   10.9256   -2.4826 N   0  0  0  0  0  0  0  0  0  0  0  0
   10.1485   11.8437    1.5510 N   0  0  0  0  0  0  0  0  0  0  0  0
    8.7058    8.8912   -1.8304 O   0  0  0  0  0  0  0  0  0  0  0  0
  1  2  1  0  0  0  0
  1  6  1  0  0  0  0
  1  8  2  0  0  0  0
  2  3  1  0  0  0  0
  3  4  2  0  0  0  0
  3  7  1  0  0  0  0
  4  5  1  0  0  0  0
  5  6  2  0  0  0  0
M  END
>  <CHROM.1>
9.70904937,10.96963582,-0.92504529,2.37535672,-1.12491768,-1.55411924

>  <Name>
ligand

>  <RI>
0

>  <Rbt.Current_Directory>
/home/itssahil/PROJECTS/Mol_Feturizer/Test_systems_manuscript/rnas/3la5

>  <Rbt.Executable>
rbdock ($Id: //depot/dev/client3/rdock/2013.1/src/exe/rbdock.cxx#4 $)

>  <Rbt.Library>
libRbt.so (2013.1, Build901 2013/11/27)

>  <Rbt.Parameter_File>
/export/apps/rDock/src/rDock_2013.1_src/data/scripts/dock_solv.prm

>  <Rbt.Receptor>
prm/pocket_docking_6.prm

>  <SCORE>
-8.62827

>  <SCORE.INTER>
-8.62827

>  <SCORE.INTER.CONST>
1

>  <SCORE.INTER.POLAR>
0

>  <SCORE.INTER.ROT>
0

>  <SCORE.INTER.SOLV>
8.34353

>  <SCORE.INTER.VDW>
-12.1334

>  <SCORE.INTER.norm>
-1.07853

>  <SCORE.INTRA>
0

>  <SCORE.INTRA.DIHEDRAL>
0

>  <SCORE.INTRA.DIHEDRAL.0>
0

>  <SCORE.INTRA.POLAR>
0

>  <SCORE.INTRA.POLAR.0>
0

>  <SCORE.INTRA.REPUL>
0

>  <SCORE.INTRA.REPUL.0>
0

>  <SCORE.INTRA.SOLV>
0

>  <SCORE.INTRA.SOLV.lig_0>
-29.58

>  <SCORE.INTRA.VDW>
0

>  <SCORE.INTRA.VDW.0>
0

>  <SCORE.INTRA.norm>
0

>  <SCORE.RESTR>
0

>  <SCORE.RESTR.CAVITY>
0

>  <SCORE.RESTR.norm>
0

>  <SCORE.SYSTEM>
0

>  <SCORE.SYSTEM.CONST>
0

>  <SCORE.SYSTEM.DIHEDRAL>
0

>  <SCORE.SYSTEM.SOLV>
0

>  <SCORE.SYSTEM.norm>
0

>  <SCORE.heavy>
8

>  <SCORE.norm>
-1.07853

>  <RMSD>
3.458

$$$$
ligand
 OpenBabel02271912143D
libRbt.so/2013.1/901 2013/11/27
  8  8  0  0  0  0  0  0  0  0999 V2000
    9.2761   10.0754   -1.5205 C   0  0  0  0  0  0  0  0  0  0  0  0
    9.4262   10.3755   -0.2306 N   0  0  0  0  0  0  0  0  0  0  0  0
    9.9854   11.5375    0.1172 C   0  0  0  0  0  0  0  0  0  0  0  0
   10.3839   12.4137   -0.8345 N   0  0  0  0  0  0  0  0  0  0  0  0
   10.2326   12.0970   -2.1315 C   0  0  0  0  0  0  0  0  0  0  0  0
    9.6736   10.9277   -2.4798 N   0  0  0  0  0  0  0  0  0  0  0  0
   10.1390   11.8362    1.5566 N   0  0  0  0  0  0  0  0  0  0  0  0
    8.7045    8.8898   -1.8336 O   0  0  0  0  0  0  0  0  0  0  0  0
  1  2  1  0  0  0  0
  1  6  1  0  0  0  0
  1  8  2  0  0  0  0
  2  3  1  0  0  0  0
  3  4  2  0  0  0  0
  3  7  1  0  0  0  0
  4  5  1  0  0  0  0
  5  6  2  0  0  0  0
M  END
>  <CHROM.1>
9.70303094,10.96777394,-0.92210293,2.37373310,-1.12684560,-1.55299914

>  <Name>
ligand

>  <RI>
0

>  <Rbt.Current_Directory>
/home/itssahil/PROJECTS/Mol_Feturizer/Test_systems_manuscript/rnas/3la5

>  <Rbt.Executable>
rbdock ($Id: //depot/dev/client3/rdock/2013.1/src/exe/rbdock.cxx#4 $)

>  <Rbt.Library>
libRbt.so (2013.1, Build901 2013/11/27)

>  <Rbt.Parameter_File>
/export/apps/rDock/src/rDock_2013.1_src/data/scripts/dock_solv.prm

>  <Rbt.Receptor>
prm/pocket_docking_6.prm

>  <SCORE>
-8.6287

>  <SCORE.INTER>
-8.6287

>  <SCORE.INTER.CONST>
1

>  <SCORE.INTER.POLAR>
0

>  <SCORE.INTER.ROT>
0

>  <SCORE.INTER.SOLV>
8.36727

>  <SCORE.INTER.VDW>
-12.1416

>  <SCORE.INTER.norm>
-1.07859

>  <SCORE.INTRA>
0

>  <SCORE.INTRA.DIHEDRAL>
0

>  <SCORE.INTRA.DIHEDRAL.0>
0

>  <SCORE.INTRA.POLAR>
0

>  <SCORE.INTRA.POLAR.0>
0

>  <SCORE.INTRA.REPUL>
0

>  <SCORE.INTRA.REPUL.0>
0

>  <SCORE.INTRA.SOLV>
0

>  <SCORE.INTRA.SOLV.lig_0>
-29.58

>  <SCORE.INTRA.VDW>
0

>  <SCORE.INTRA.VDW.0>
0

>  <SCORE.INTRA.norm>
0

>  <SCORE.RESTR>
0

>  <SCORE.RESTR.CAVITY>
0

>  <SCORE.RESTR.norm>
0

>  <SCORE.SYSTEM>
0

>  <SCORE.SYSTEM.CONST>
0

>  <SCORE.SYSTEM.DIHEDRAL>
0

>  <SCORE.SYSTEM.SOLV>
0

>  <SCORE.SYSTEM.norm>
0

>  <SCORE.heavy>
8

>  <SCORE.norm>
-1.07859

>  <RMSD>
3.458

$$$$
ligand
 OpenBabel02271912143D
libRbt.so/2013.1/901 2013/11/27
  8  8  0  0  0  0  0  0  0  0999 V2000
    9.2781   10.0770   -1.5198 C   0  0  0  0  0  0  0  0  0  0  0  0
    9.4140   10.3842   -0.2300 N   0  0  0  0  0  0  0  0  0  0  0  0
    9.9735   11.5461    0.1176 C   0  0  0  0  0  0  0  0  0  0  0  0
   10.3866   12.4151   -0.8343 N   0  0  0  0  0  0  0  0  0  0  0  0
   10.2496   12.0913   -2.1312 C   0  0  0  0  0  0  0  0  0  0  0  0
    9.6902   10.9221   -2.4793 N   0  0  0  0  0  0  0  0  0  0  0  0
   10.1111   11.8527    1.5569 N   0  0  0  0  0  0  0  0  0  0  0  0
    8.7056    8.8918   -1.8327 O   0  0  0  0  0  0  0  0  0  0  0  0
  1  2  1  0  0  0  0
  1  6  1  0  0  0  0
  1  8  2  0  0  0  0
  2  3  1  0  0  0  0
  3  4  2  0  0  0  0
  3  7  1  0  0  0  0
  4  5  1  0  0  0  0
  5  6  2  0  0  0  0
M  END
>  <CHROM.1>
9.70131745,10.97130846,-0.92160905,2.34613631,-1.12305622,-1.58378360

>  <Name>
ligand

>  <RI>
0

>  <Rbt.Current_Directory>
/home/itssahil/PROJECTS/Mol_Feturizer/Test_systems_manuscript/rnas/3la5

>  <Rbt.Executable>
rbdock ($Id: //depot/dev/client3/rdock/2013.1/src/exe/rbdock.cxx#4 $)

>  <Rbt.Library>
libRbt.so (2013.1, Build901 2013/11/27)

>  <Rbt.Parameter_File>
/export/apps/rDock/src/rDock_2013.1_src/data/scripts/dock_solv.prm

>  <Rbt.Receptor>
prm/pocket_docking_7.prm

>  <SCORE>
-8.64063

>  <SCORE.INTER>
-8.64063

>  <SCORE.INTER.CONST>
1

>  <SCORE.INTER.POLAR>
0

>  <SCORE.INTER.ROT>
0

>  <SCORE.INTER.SOLV>
8.36937

>  <SCORE.INTER.VDW>
-12.1502

>  <SCORE.INTER.norm>
-1.08008

>  <SCORE.INTRA>
0

>  <SCORE.INTRA.DIHEDRAL>
0

>  <SCORE.INTRA.DIHEDRAL.0>
0

>  <SCORE.INTRA.POLAR>
0

>  <SCORE.INTRA.POLAR.0>
0

>  <SCORE.INTRA.REPUL>
0

>  <SCORE.INTRA.REPUL.0>
0

>  <SCORE.INTRA.SOLV>
0

>  <SCORE.INTRA.SOLV.lig_0>
-29.58

>  <SCORE.INTRA.VDW>
0

>  <SCORE.INTRA.VDW.0>
0

>  <SCORE.INTRA.norm>
0

>  <SCORE.RESTR>
0

>  <SCORE.RESTR.CAVITY>
0

>  <SCORE.RESTR.norm>
0

>  <SCORE.SYSTEM>
0

>  <SCORE.SYSTEM.CONST>
0

>  <SCORE.SYSTEM.DIHEDRAL>
0

>  <SCORE.SYSTEM.SOLV>
0

>  <SCORE.SYSTEM.norm>
0

>  <SCORE.heavy>
8

>  <SCORE.norm>
-1.08008

>  <RMSD>
3.458

$$$$
ligand
 OpenBabel02271912143D
libRbt.so/2013.1/901 2013/11/27
  8  8  0  0  0  0  0  0  0  0999 V2000
    9.2649   10.1154   -1.5215 C   0  0  0  0  0  0  0  0  0  0  0  0
    9.3894   10.4364   -0.2339 N   0  0  0  0  0  0  0  0  0  0  0  0
    9.9441   11.6029    0.1061 C   0  0  0  0  0  0  0  0  0  0  0  0
   10.3637   12.4625   -0.8514 N   0  0  0  0  0  0  0  0  0  0  0  0
   10.2381   12.1248   -2.1459 C   0  0  0  0  0  0  0  0  0  0  0  0
    9.6837   10.9511   -2.4863 N   0  0  0  0  0  0  0  0  0  0  0  0
   10.0690   11.9249    1.5432 N   0  0  0  0  0  0  0  0  0  0  0  0
    8.6971    8.9259   -1.8267 O   0  0  0  0  0  0  0  0  0  0  0  0
  1  2  1  0  0  0  0
  1  6  1  0  0  0  0
  1  8  2  0  0  0  0
  2  3  1  0  0  0  0
  3  4  2  0  0  0  0
  3  7  1  0  0  0  0
  4  5  1  0  0  0  0
  5  6  2  0  0  0  0
M  END
>  <CHROM.1>
9.68158571,11.01665909,-0.92922994,2.32659660,-1.12454254,-1.61194543

>  <Name>
ligand

>  <RI>
0

>  <Rbt.Current_Directory>
/home/itssahil/PROJECTS/Mol_Feturizer/Test_systems_manuscript/rnas/3la5

>  <Rbt.Executable>
rbdock ($Id: //depot/dev/client3/rdock/2013.1/src/exe/rbdock.cxx#4 $)

>  <Rbt.Library>
libRbt.so (2013.1, Build901 2013/11/27)

>  <Rbt.Parameter_File>
/export/apps/rDock/src/rDock_2013.1_src/data/scripts/dock_solv.prm

>  <Rbt.Receptor>
prm/pocket_docking_8.prm

>  <SCORE>
-8.60378

>  <SCORE.INTER>
-8.60378

>  <SCORE.INTER.CONST>
1

>  <SCORE.INTER.POLAR>
0

>  <SCORE.INTER.ROT>
0

>  <SCORE.INTER.SOLV>
8.35835

>  <SCORE.INTER.VDW>
-12.122

>  <SCORE.INTER.norm>
-1.07547

>  <SCORE.INTRA>
0

>  <SCORE.INTRA.DIHEDRAL>
0

>  <SCORE.INTRA.DIHEDRAL.0>
0

>  <SCORE.INTRA.POLAR>
0

>  <SCORE.INTRA.POLAR.0>
0

>  <SCORE.INTRA.REPUL>
0

>  <SCORE.INTRA.REPUL.0>
0

>  <SCORE.INTRA.SOLV>
0

>  <SCORE.INTRA.SOLV.lig_0>
-29.58

>  <SCORE.INTRA.VDW>
0

>  <SCORE.INTRA.VDW.0>
0

>  <SCORE.INTRA.norm>
0

>  <SCORE.RESTR>
0

>  <SCORE.RESTR.CAVITY>
0

>  <SCORE.RESTR.norm>
0

>  <SCORE.SYSTEM>
0

>  <SCORE.SYSTEM.CONST>
0

>  <SCORE.SYSTEM.DIHEDRAL>
0

>  <SCORE.SYSTEM.SOLV>
0

>  <SCORE.SYSTEM.norm>
0

>  <SCORE.heavy>
8

>  <SCORE.norm>
-1.07547

>  <RMSD>
3.458

$$$$
ligand
 OpenBabel02271912143D
libRbt.so/2013.1/901 2013/11/27
  8  8  0  0  0  0  0  0  0  0999 V2000
    9.2691   10.1044   -1.5231 C   0  0  0  0  0  0  0  0  0  0  0  0
    9.4064   10.4205   -0.2356 N   0  0  0  0  0  0  0  0  0  0  0  0
    9.9673   11.5844    0.1032 C   0  0  0  0  0  0  0  0  0  0  0  0
   10.3804   12.4462   -0.8552 N   0  0  0  0  0  0  0  0  0  0  0  0
   10.2419   12.1134   -2.1496 C   0  0  0  0  0  0  0  0  0  0  0  0
    9.6812   10.9423   -2.4889 N   0  0  0  0  0  0  0  0  0  0  0  0
   10.1064   11.9011    1.5403 N   0  0  0  0  0  0  0  0  0  0  0  0
    8.6954    8.9175   -1.8271 O   0  0  0  0  0  0  0  0  0  0  0  0
  1  2  1  0  0  0  0
  1  6  1  0  0  0  0
  1  8  2  0  0  0  0
  2  3  1  0  0  0  0
  3  4  2  0  0  0  0
  3  7  1  0  0  0  0
  4  5  1  0  0  0  0
  5  6  2  0  0  0  0
M  END
>  <CHROM.1>
9.69367935,11.00249448,-0.93163661,2.34819382,-1.12218182,-1.58899936

>  <Name>
ligand

>  <RI>
0

>  <Rbt.Current_Directory>
/home/itssahil/PROJECTS/Mol_Feturizer/Test_systems_manuscript/rnas/3la5

>  <Rbt.Executable>
rbdock ($Id: //depot/dev/client3/rdock/2013.1/src/exe/rbdock.cxx#4 $)

>  <Rbt.Library>
libRbt.so (2013.1, Build901 2013/11/27)

>  <Rbt.Parameter_File>
/export/apps/rDock/src/rDock_2013.1_src/data/scripts/dock_solv.prm

>  <Rbt.Receptor>
prm/blind_docking_20.prm

>  <SCORE>
-8.62944

>  <SCORE.INTER>
-8.62944

>  <SCORE.INTER.CONST>
1

>  <SCORE.INTER.POLAR>
0

>  <SCORE.INTER.ROT>
0

>  <SCORE.INTER.SOLV>
8.31627

>  <SCORE.INTER.VDW>
-12.1251

>  <SCORE.INTER.norm>
-1.07868

>  <SCORE.INTRA>
0

>  <SCORE.INTRA.DIHEDRAL>
0

>  <SCORE.INTRA.DIHEDRAL.0>
0

>  <SCORE.INTRA.POLAR>
0

>  <SCORE.INTRA.POLAR.0>
0

>  <SCORE.INTRA.REPUL>
0

>  <SCORE.INTRA.REPUL.0>
0

>  <SCORE.INTRA.SOLV>
0

>  <SCORE.INTRA.SOLV.lig_0>
-29.58

>  <SCORE.INTRA.VDW>
0

>  <SCORE.INTRA.VDW.0>
0

>  <SCORE.INTRA.norm>
0

>  <SCORE.RESTR>
0

>  <SCORE.RESTR.CAVITY>
0

>  <SCORE.RESTR.norm>
0

>  <SCORE.SYSTEM>
0

>  <SCORE.SYSTEM.CONST>
0

>  <SCORE.SYSTEM.DIHEDRAL>
0

>  <SCORE.SYSTEM.SOLV>
0

>  <SCORE.SYSTEM.norm>
0

>  <SCORE.heavy>
8

>  <SCORE.norm>
-1.07868

>  <RMSD>
3.459

$$$$
ligand
 OpenBabel02271912143D
libRbt.so/2013.1/901 2013/11/27
  8  8  0  0  0  0  0  0  0  0999 V2000
    9.2705   10.1047   -1.5215 C   0  0  0  0  0  0  0  0  0  0  0  0
    9.4056   10.4255   -0.2349 N   0  0  0  0  0  0  0  0  0  0  0  0
    9.9697   11.5887    0.1008 C   0  0  0  0  0  0  0  0  0  0  0  0
   10.3885   12.4452   -0.8599 N   0  0  0  0  0  0  0  0  0  0  0  0
   10.2522   12.1077   -2.1534 C   0  0  0  0  0  0  0  0  0  0  0  0
    9.6882   10.9373   -2.4895 N   0  0  0  0  0  0  0  0  0  0  0  0
   10.1062   11.9106    1.5369 N   0  0  0  0  0  0  0  0  0  0  0  0
    8.6932    8.9187   -1.8223 O   0  0  0  0  0  0  0  0  0  0  0  0
  1  2  1  0  0  0  0
  1  6  1  0  0  0  0
  1  8  2  0  0  0  0
  2  3  1  0  0  0  0
  3  4  2  0  0  0  0
  3  7  1  0  0  0  0
  4  5  1  0  0  0  0
  5  6  2  0  0  0  0
M  END
>  <CHROM.1>
9.69675594,11.00365391,-0.93246093,2.34228586,-1.11849253,-1.59831136

>  <Name>
ligand

>  <RI>
0

>  <Rbt.Current_Directory>
/home/itssahil/PROJECTS/Mol_Feturizer/Test_systems_manuscript/rnas/3la5

>  <Rbt.Executable>
rbdock ($Id: //depot/dev/client3/rdock/2013.1/src/exe/rbdock.cxx#4 $)

>  <Rbt.Library>
libRbt.so (2013.1, Build901 2013/11/27)

>  <Rbt.Parameter_File>
/export/apps/rDock/src/rDock_2013.1_src/data/scripts/dock_solv.prm

>  <Rbt.Receptor>
prm/blind_docking_40.prm

>  <SCORE>
-8.63263

>  <SCORE.INTER>
-8.63263

>  <SCORE.INTER.CONST>
1

>  <SCORE.INTER.POLAR>
0

>  <SCORE.INTER.ROT>
0

>  <SCORE.INTER.SOLV>
8.31184

>  <SCORE.INTER.VDW>
-12.1257

>  <SCORE.INTER.norm>
-1.07908

>  <SCORE.INTRA>
0

>  <SCORE.INTRA.DIHEDRAL>
0

>  <SCORE.INTRA.DIHEDRAL.0>
0

>  <SCORE.INTRA.POLAR>
0

>  <SCORE.INTRA.POLAR.0>
0

>  <SCORE.INTRA.REPUL>
0

>  <SCORE.INTRA.REPUL.0>
0

>  <SCORE.INTRA.SOLV>
0

>  <SCORE.INTRA.SOLV.lig_0>
-29.58

>  <SCORE.INTRA.VDW>
0

>  <SCORE.INTRA.VDW.0>
0

>  <SCORE.INTRA.norm>
0

>  <SCORE.RESTR>
0

>  <SCORE.RESTR.CAVITY>
0

>  <SCORE.RESTR.norm>
0

>  <SCORE.SYSTEM>
0

>  <SCORE.SYSTEM.CONST>
0

>  <SCORE.SYSTEM.DIHEDRAL>
0

>  <SCORE.SYSTEM.SOLV>
0

>  <SCORE.SYSTEM.norm>
0

>  <SCORE.heavy>
8

>  <SCORE.norm>
-1.07908

>  <RMSD>
3.459

$$$$
ligand
 OpenBabel02271912143D
libRbt.so/2013.1/901 2013/11/27
  8  8  0  0  0  0  0  0  0  0999 V2000
    9.2415   10.0779   -1.4978 C   0  0  0  0  0  0  0  0  0  0  0  0
    9.2905   10.4011   -0.2057 N   0  0  0  0  0  0  0  0  0  0  0  0
    9.8277   11.5666    0.1644 C   0  0  0  0  0  0  0  0  0  0  0  0
   10.3060   12.4230   -0.7681 N   0  0  0  0  0  0  0  0  0  0  0  0
   10.2563   12.0831   -2.0671 C   0  0  0  0  0  0  0  0  0  0  0  0
    9.7194   10.9104   -2.4377 N   0  0  0  0  0  0  0  0  0  0  0  0
    9.8683   11.8911    1.6059 N   0  0  0  0  0  0  0  0  0  0  0  0
    8.6891    8.8895   -1.8340 O   0  0  0  0  0  0  0  0  0  0  0  0
  1  2  1  0  0  0  0
  1  6  1  0  0  0  0
  1  8  2  0  0  0  0
  2  3  1  0  0  0  0
  3  4  2  0  0  0  0
  3  7  1  0  0  0  0
  4  5  1  0  0  0  0
  5  6  2  0  0  0  0
M  END
>  <CHROM.1>
9.62516973,10.97907320,-0.88355827,2.19185179,-1.11539712,-1.73517773

>  <Name>
ligand

>  <RI>
0

>  <Rbt.Current_Directory>
/home/itssahil/PROJECTS/Mol_Feturizer/Test_systems_manuscript/rnas/3la5

>  <Rbt.Executable>
rbdock ($Id: //depot/dev/client3/rdock/2013.1/src/exe/rbdock.cxx#4 $)

>  <Rbt.Library>
libRbt.so (2013.1, Build901 2013/11/27)

>  <Rbt.Parameter_File>
/export/apps/rDock/src/rDock_2013.1_src/data/scripts/dock_solv.prm

>  <Rbt.Receptor>
prm/blind_docking_60.prm

>  <SCORE>
-8.57202

>  <SCORE.INTER>
-8.57202

>  <SCORE.INTER.CONST>
1

>  <SCORE.INTER.POLAR>
0

>  <SCORE.INTER.ROT>
0

>  <SCORE.INTER.SOLV>
8.69258

>  <SCORE.INTER.VDW>
-12.2122

>  <SCORE.INTER.norm>
-1.0715

>  <SCORE.INTRA>
0

>  <SCORE.INTRA.DIHEDRAL>
0

>  <SCORE.INTRA.DIHEDRAL.0>
0

>  <SCORE.INTRA.POLAR>
0

>  <SCORE.INTRA.POLAR.0>
0

>  <SCORE.INTRA.REPUL>
0

>  <SCORE.INTRA.REPUL.0>
0

>  <SCORE.INTRA.SOLV>
0

>  <SCORE.INTRA.SOLV.lig_0>
-29.58

>  <SCORE.INTRA.VDW>
0

>  <SCORE.INTRA.VDW.0>
0

>  <SCORE.INTRA.norm>
0

>  <SCORE.RESTR>
0

>  <SCORE.RESTR.CAVITY>
0

>  <SCORE.RESTR.norm>
0

>  <SCORE.SYSTEM>
0

>  <SCORE.SYSTEM.CONST>
0

>  <SCORE.SYSTEM.DIHEDRAL>
0

>  <SCORE.SYSTEM.SOLV>
0

>  <SCORE.SYSTEM.norm>
0

>  <SCORE.heavy>
8

>  <SCORE.norm>
-1.0715

>  <RMSD>
3.459

$$$$
ligand
 OpenBabel02271912143D
libRbt.so/2013.1/901 2013/11/27
  8  8  0  0  0  0  0  0  0  0999 V2000
    9.2744   10.0780   -1.5230 C   0  0  0  0  0  0  0  0  0  0  0  0
    9.4100   10.3812   -0.2322 N   0  0  0  0  0  0  0  0  0  0  0  0
    9.9683   11.5425    0.1191 C   0  0  0  0  0  0  0  0  0  0  0  0
   10.3806   12.4150   -0.8299 N   0  0  0  0  0  0  0  0  0  0  0  0
   10.2439   12.0953   -2.1278 C   0  0  0  0  0  0  0  0  0  0  0  0
    9.6858   10.9267   -2.4797 N   0  0  0  0  0  0  0  0  0  0  0  0
   10.1056   11.8446    1.5595 N   0  0  0  0  0  0  0  0  0  0  0  0
    8.7032    8.8932   -1.8398 O   0  0  0  0  0  0  0  0  0  0  0  0
  1  2  1  0  0  0  0
  1  6  1  0  0  0  0
  1  8  2  0  0  0  0
  2  3  1  0  0  0  0
  3  4  2  0  0  0  0
  3  7  1  0  0  0  0
  4  5  1  0  0  0  0
  5  6  2  0  0  0  0
M  END
>  <CHROM.1>
9.69674269,10.97080655,-0.92191347,2.34605319,-1.12408278,-1.58061291

>  <Name>
ligand

>  <RI>
0

>  <Rbt.Current_Directory>
/home/itssahil/PROJECTS/Mol_Feturizer/Test_systems_manuscript/rnas/3la5

>  <Rbt.Executable>
rbdock ($Id: //depot/dev/client3/rdock/2013.1/src/exe/rbdock.cxx#4 $)

>  <Rbt.Library>
libRbt.so (2013.1, Build901 2013/11/27)

>  <Rbt.Parameter_File>
/export/apps/rDock/src/rDock_2013.1_src/data/scripts/dock_solv.prm

>  <Rbt.Receptor>
prm/blind_docking_80.prm

>  <SCORE>
-8.64077

>  <SCORE.INTER>
-8.64077

>  <SCORE.INTER.CONST>
1

>  <SCORE.INTER.POLAR>
0

>  <SCORE.INTER.ROT>
0

>  <SCORE.INTER.SOLV>
8.38731

>  <SCORE.INTER.VDW>
-12.1563

>  <SCORE.INTER.norm>
-1.0801

>  <SCORE.INTRA>
0

>  <SCORE.INTRA.DIHEDRAL>
0

>  <SCORE.INTRA.DIHEDRAL.0>
0

>  <SCORE.INTRA.POLAR>
0

>  <SCORE.INTRA.POLAR.0>
0

>  <SCORE.INTRA.REPUL>
0

>  <SCORE.INTRA.REPUL.0>
0

>  <SCORE.INTRA.SOLV>
0

>  <SCORE.INTRA.SOLV.lig_0>
-29.58

>  <SCORE.INTRA.VDW>
0

>  <SCORE.INTRA.VDW.0>
0

>  <SCORE.INTRA.norm>
0

>  <SCORE.RESTR>
0

>  <SCORE.RESTR.CAVITY>
0

>  <SCORE.RESTR.norm>
0

>  <SCORE.SYSTEM>
0

>  <SCORE.SYSTEM.CONST>
0

>  <SCORE.SYSTEM.DIHEDRAL>
0

>  <SCORE.SYSTEM.SOLV>
0

>  <SCORE.SYSTEM.norm>
0

>  <SCORE.heavy>
8

>  <SCORE.norm>
-1.0801

>  <RMSD>
3.459

$$$$
ligand
 OpenBabel02271912143D
libRbt.so/2013.1/901 2013/11/27
  8  8  0  0  0  0  0  0  0  0999 V2000
    9.2746   10.0769   -1.5210 C   0  0  0  0  0  0  0  0  0  0  0  0
    9.4106   10.3816   -0.2306 N   0  0  0  0  0  0  0  0  0  0  0  0
    9.9686   11.5436    0.1192 C   0  0  0  0  0  0  0  0  0  0  0  0
   10.3800   12.4152   -0.8310 N   0  0  0  0  0  0  0  0  0  0  0  0
   10.2429   12.0940   -2.1285 C   0  0  0  0  0  0  0  0  0  0  0  0
    9.6852   10.9247   -2.4789 N   0  0  0  0  0  0  0  0  0  0  0  0
   10.1063   11.8473    1.5592 N   0  0  0  0  0  0  0  0  0  0  0  0
    8.7038    8.8915   -1.8362 O   0  0  0  0  0  0  0  0  0  0  0  0
  1  2  1  0  0  0  0
  1  6  1  0  0  0  0
  1  8  2  0  0  0  0
  2  3  1  0  0  0  0
  3  4  2  0  0  0  0
  3  7  1  0  0  0  0
  4  5  1  0  0  0  0
  5  6  2  0  0  0  0
M  END
>  <CHROM.1>
9.69679824,10.97057087,-0.92108158,2.34701254,-1.12453752,-1.58085168

>  <Name>
ligand

>  <RI>
0

>  <Rbt.Current_Directory>
/home/itssahil/PROJECTS/Mol_Feturizer/Test_systems_manuscript/rnas/3la5

>  <Rbt.Executable>
rbdock ($Id: //depot/dev/client3/rdock/2013.1/src/exe/rbdock.cxx#4 $)

>  <Rbt.Library>
libRbt.so (2013.1, Build901 2013/11/27)

>  <Rbt.Parameter_File>
/export/apps/rDock/src/rDock_2013.1_src/data/scripts/dock_solv.prm

>  <Rbt.Receptor>
prm/blind_docking_80.prm

>  <SCORE>
-8.64105

>  <SCORE.INTER>
-8.64105

>  <SCORE.INTER.CONST>
1

>  <SCORE.INTER.POLAR>
0

>  <SCORE.INTER.ROT>
0

>  <SCORE.INTER.SOLV>
8.38346

>  <SCORE.INTER.VDW>
-12.1552

>  <SCORE.INTER.norm>
-1.08013

>  <SCORE.INTRA>
0

>  <SCORE.INTRA.DIHEDRAL>
0

>  <SCORE.INTRA.DIHEDRAL.0>
0

>  <SCORE.INTRA.POLAR>
0

>  <SCORE.INTRA.POLAR.0>
0

>  <SCORE.INTRA.REPUL>
0

>  <SCORE.INTRA.REPUL.0>
0

>  <SCORE.INTRA.SOLV>
0

>  <SCORE.INTRA.SOLV.lig_0>
-29.58

>  <SCORE.INTRA.VDW>
0

>  <SCORE.INTRA.VDW.0>
0

>  <SCORE.INTRA.norm>
0

>  <SCORE.RESTR>
0

>  <SCORE.RESTR.CAVITY>
0

>  <SCORE.RESTR.norm>
0

>  <SCORE.SYSTEM>
0

>  <SCORE.SYSTEM.CONST>
0

>  <SCORE.SYSTEM.DIHEDRAL>
0

>  <SCORE.SYSTEM.SOLV>
0

>  <SCORE.SYSTEM.norm>
0

>  <SCORE.heavy>
8

>  <SCORE.norm>
-1.08013

>  <RMSD>
3.459

$$$$
ligand
 OpenBabel02271912143D
libRbt.so/2013.1/901 2013/11/27
  8  8  0  0  0  0  0  0  0  0999 V2000
    9.2793   10.0750   -1.5243 C   0  0  0  0  0  0  0  0  0  0  0  0
    9.4523   10.3696   -0.2360 N   0  0  0  0  0  0  0  0  0  0  0  0
   10.0153   11.5312    0.1069 C   0  0  0  0  0  0  0  0  0  0  0  0
   10.3944   12.4126   -0.8478 N   0  0  0  0  0  0  0  0  0  0  0  0
   10.2201   12.1015   -2.1433 C   0  0  0  0  0  0  0  0  0  0  0  0
    9.6573   10.9326   -2.4867 N   0  0  0  0  0  0  0  0  0  0  0  0
   10.1945   11.8236    1.5446 N   0  0  0  0  0  0  0  0  0  0  0  0
    8.7046    8.8896   -1.8323 O   0  0  0  0  0  0  0  0  0  0  0  0
  1  2  1  0  0  0  0
  1  6  1  0  0  0  0
  1  8  2  0  0  0  0
  2  3  1  0  0  0  0
  3  4  2  0  0  0  0
  3  7  1  0  0  0  0
  4  5  1  0  0  0  0
  5  6  2  0  0  0  0
M  END
>  <CHROM.1>
9.71516607,10.96560601,-0.92965886,2.41657885,-1.12833580,-1.50967319

>  <Name>
ligand

>  <RI>
0

>  <Rbt.Current_Directory>
/home/itssahil/PROJECTS/Mol_Feturizer/Test_systems_manuscript/rnas/3la5

>  <Rbt.Executable>
rbdock ($Id: //depot/dev/client3/rdock/2013.1/src/exe/rbdock.cxx#4 $)

>  <Rbt.Library>
libRbt.so (2013.1, Build901 2013/11/27)

>  <Rbt.Parameter_File>
/export/apps/rDock/src/rDock_2013.1_src/data/scripts/dock_solv.prm

>  <Rbt.Receptor>
prm/pocket_docking_4.prm

>  <SCORE>
-8.63302

>  <SCORE.INTER>
-8.63302

>  <SCORE.INTER.CONST>
1

>  <SCORE.INTER.POLAR>
0

>  <SCORE.INTER.ROT>
0

>  <SCORE.INTER.SOLV>
8.33748

>  <SCORE.INTER.VDW>
-12.1345

>  <SCORE.INTER.norm>
-1.07913

>  <SCORE.INTRA>
0

>  <SCORE.INTRA.DIHEDRAL>
0

>  <SCORE.INTRA.DIHEDRAL.0>
0

>  <SCORE.INTRA.POLAR>
0

>  <SCORE.INTRA.POLAR.0>
0

>  <SCORE.INTRA.REPUL>
0

>  <SCORE.INTRA.REPUL.0>
0

>  <SCORE.INTRA.SOLV>
0

>  <SCORE.INTRA.SOLV.lig_0>
-29.58

>  <SCORE.INTRA.VDW>
0

>  <SCORE.INTRA.VDW.0>
0

>  <SCORE.INTRA.norm>
0

>  <SCORE.RESTR>
0

>  <SCORE.RESTR.CAVITY>
0

>  <SCORE.RESTR.norm>
0

>  <SCORE.SYSTEM>
0

>  <SCORE.SYSTEM.CONST>
0

>  <SCORE.SYSTEM.DIHEDRAL>
0

>  <SCORE.SYSTEM.SOLV>
0

>  <SCORE.SYSTEM.norm>
0

>  <SCORE.heavy>
8

>  <SCORE.norm>
-1.07913

>  <RMSD>
3.459

$$$$
ligand
 OpenBabel02271912143D
libRbt.so/2013.1/901 2013/11/27
  8  8  0  0  0  0  0  0  0  0999 V2000
    9.2773   10.0785   -1.5227 C   0  0  0  0  0  0  0  0  0  0  0  0
    9.4094   10.3843   -0.2322 N   0  0  0  0  0  0  0  0  0  0  0  0
    9.9679   11.5458    0.1183 C   0  0  0  0  0  0  0  0  0  0  0  0
   10.3838   12.4158   -0.8314 N   0  0  0  0  0  0  0  0  0  0  0  0
   10.2506   12.0935   -2.1290 C   0  0  0  0  0  0  0  0  0  0  0  0
    9.6923   10.9247   -2.4800 N   0  0  0  0  0  0  0  0  0  0  0  0
   10.1012   11.8509    1.5584 N   0  0  0  0  0  0  0  0  0  0  0  0
    8.7058    8.8936   -1.8386 O   0  0  0  0  0  0  0  0  0  0  0  0
  1  2  1  0  0  0  0
  1  6  1  0  0  0  0
  1  8  2  0  0  0  0
  2  3  1  0  0  0  0
  3  4  2  0  0  0  0
  3  7  1  0  0  0  0
  4  5  1  0  0  0  0
  5  6  2  0  0  0  0
M  END
>  <CHROM.1>
9.69876266,10.97216302,-0.92228244,2.33925870,-1.12300741,-1.58888837

>  <Name>
ligand

>  <RI>
0

>  <Rbt.Current_Directory>
/home/itssahil/PROJECTS/Mol_Feturizer/Test_systems_manuscript/rnas/3la5

>  <Rbt.Executable>
rbdock ($Id: //depot/dev/client3/rdock/2013.1/src/exe/rbdock.cxx#4 $)

>  <Rbt.Library>
libRbt.so (2013.1, Build901 2013/11/27)

>  <Rbt.Parameter_File>
/export/apps/rDock/src/rDock_2013.1_src/data/scripts/dock_solv.prm

>  <Rbt.Receptor>
prm/pocket_docking_5.prm

>  <SCORE>
-8.64207

>  <SCORE.INTER>
-8.64207

>  <SCORE.INTER.CONST>
1

>  <SCORE.INTER.POLAR>
0

>  <SCORE.INTER.ROT>
0

>  <SCORE.INTER.SOLV>
8.37917

>  <SCORE.INTER.VDW>
-12.1544

>  <SCORE.INTER.norm>
-1.08026

>  <SCORE.INTRA>
0

>  <SCORE.INTRA.DIHEDRAL>
0

>  <SCORE.INTRA.DIHEDRAL.0>
0

>  <SCORE.INTRA.POLAR>
0

>  <SCORE.INTRA.POLAR.0>
0

>  <SCORE.INTRA.REPUL>
0

>  <SCORE.INTRA.REPUL.0>
0

>  <SCORE.INTRA.SOLV>
0

>  <SCORE.INTRA.SOLV.lig_0>
-29.58

>  <SCORE.INTRA.VDW>
0

>  <SCORE.INTRA.VDW.0>
0

>  <SCORE.INTRA.norm>
0

>  <SCORE.RESTR>
0

>  <SCORE.RESTR.CAVITY>
0

>  <SCORE.RESTR.norm>
0

>  <SCORE.SYSTEM>
0

>  <SCORE.SYSTEM.CONST>
0

>  <SCORE.SYSTEM.DIHEDRAL>
0

>  <SCORE.SYSTEM.SOLV>
0

>  <SCORE.SYSTEM.norm>
0

>  <SCORE.heavy>
8

>  <SCORE.norm>
-1.08026

>  <RMSD>
3.459

$$$$
ligand
 OpenBabel02271912143D
libRbt.so/2013.1/901 2013/11/27
  8  8  0  0  0  0  0  0  0  0999 V2000
    9.2754   10.0755   -1.5249 C   0  0  0  0  0  0  0  0  0  0  0  0
    9.4404   10.3693   -0.2354 N   0  0  0  0  0  0  0  0  0  0  0  0
    9.9997   11.5315    0.1117 C   0  0  0  0  0  0  0  0  0  0  0  0
   10.3832   12.4141   -0.8400 N   0  0  0  0  0  0  0  0  0  0  0  0
   10.2170   12.1038   -2.1368 C   0  0  0  0  0  0  0  0  0  0  0  0
    9.6579   10.9344   -2.4844 N   0  0  0  0  0  0  0  0  0  0  0  0
   10.1700   11.8230    1.5507 N   0  0  0  0  0  0  0  0  0  0  0  0
    8.7042    8.8895   -1.8373 O   0  0  0  0  0  0  0  0  0  0  0  0
  1  2  1  0  0  0  0
  1  6  1  0  0  0  0
  1  8  2  0  0  0  0
  2  3  1  0  0  0  0
  3  4  2  0  0  0  0
  3  7  1  0  0  0  0
  4  5  1  0  0  0  0
  5  6  2  0  0  0  0
M  END
>  <CHROM.1>
9.70650697,10.96625269,-0.92703885,2.40297373,-1.13007409,-1.52119240

>  <Name>
ligand

>  <RI>
0

>  <Rbt.Current_Directory>
/home/itssahil/PROJECTS/Mol_Feturizer/Test_systems_manuscript/rnas/3la5

>  <Rbt.Executable>
rbdock ($Id: //depot/dev/client3/rdock/2013.1/src/exe/rbdock.cxx#4 $)

>  <Rbt.Library>
libRbt.so (2013.1, Build901 2013/11/27)

>  <Rbt.Parameter_File>
/export/apps/rDock/src/rDock_2013.1_src/data/scripts/dock_solv.prm

>  <Rbt.Receptor>
prm/pocket_docking_5.prm

>  <SCORE>
-8.6069

>  <SCORE.INTER>
-8.6069

>  <SCORE.INTER.CONST>
1

>  <SCORE.INTER.POLAR>
0

>  <SCORE.INTER.ROT>
0

>  <SCORE.INTER.SOLV>
8.35127

>  <SCORE.INTER.VDW>
-12.1217

>  <SCORE.INTER.norm>
-1.07586

>  <SCORE.INTRA>
0

>  <SCORE.INTRA.DIHEDRAL>
0

>  <SCORE.INTRA.DIHEDRAL.0>
0

>  <SCORE.INTRA.POLAR>
0

>  <SCORE.INTRA.POLAR.0>
0

>  <SCORE.INTRA.REPUL>
0

>  <SCORE.INTRA.REPUL.0>
0

>  <SCORE.INTRA.SOLV>
0

>  <SCORE.INTRA.SOLV.lig_0>
-29.58

>  <SCORE.INTRA.VDW>
0

>  <SCORE.INTRA.VDW.0>
0

>  <SCORE.INTRA.norm>
0

>  <SCORE.RESTR>
0

>  <SCORE.RESTR.CAVITY>
0

>  <SCORE.RESTR.norm>
0

>  <SCORE.SYSTEM>
0

>  <SCORE.SYSTEM.CONST>
0

>  <SCORE.SYSTEM.DIHEDRAL>
0

>  <SCORE.SYSTEM.SOLV>
0

>  <SCORE.SYSTEM.norm>
0

>  <SCORE.heavy>
8

>  <SCORE.norm>
-1.07586

>  <RMSD>
3.459

$$$$
ligand
 OpenBabel02271912143D
libRbt.so/2013.1/901 2013/11/27
  8  8  0  0  0  0  0  0  0  0999 V2000
    9.2743   10.0738   -1.5244 C   0  0  0  0  0  0  0  0  0  0  0  0
    9.4138   10.3721   -0.2329 N   0  0  0  0  0  0  0  0  0  0  0  0
    9.9707   11.5334    0.1211 C   0  0  0  0  0  0  0  0  0  0  0  0
   10.3776   12.4106   -0.8260 N   0  0  0  0  0  0  0  0  0  0  0  0
   10.2369   12.0957   -2.1247 C   0  0  0  0  0  0  0  0  0  0  0  0
    9.6802   10.9272   -2.4792 N   0  0  0  0  0  0  0  0  0  0  0  0
   10.1125   11.8301    1.5621 N   0  0  0  0  0  0  0  0  0  0  0  0
    8.7047    8.8890   -1.8439 O   0  0  0  0  0  0  0  0  0  0  0  0
  1  2  1  0  0  0  0
  1  6  1  0  0  0  0
  1  8  2  0  0  0  0
  2  3  1  0  0  0  0
  3  4  2  0  0  0  0
  3  7  1  0  0  0  0
  4  5  1  0  0  0  0
  5  6  2  0  0  0  0
M  END
>  <CHROM.1>
9.69673527,10.96518662,-0.92128254,2.35437728,-1.12641167,-1.56911641

>  <Name>
ligand

>  <RI>
0

>  <Rbt.Current_Directory>
/home/itssahil/PROJECTS/Mol_Feturizer/Test_systems_manuscript/rnas/3la5

>  <Rbt.Executable>
rbdock ($Id: //depot/dev/client3/rdock/2013.1/src/exe/rbdock.cxx#4 $)

>  <Rbt.Library>
libRbt.so (2013.1, Build901 2013/11/27)

>  <Rbt.Parameter_File>
/export/apps/rDock/src/rDock_2013.1_src/data/scripts/dock_solv.prm

>  <Rbt.Receptor>
prm/pocket_docking_6.prm

>  <SCORE>
-8.63333

>  <SCORE.INTER>
-8.63333

>  <SCORE.INTER.CONST>
1

>  <SCORE.INTER.POLAR>
0

>  <SCORE.INTER.ROT>
0

>  <SCORE.INTER.SOLV>
8.39799

>  <SCORE.INTER.VDW>
-12.1549

>  <SCORE.INTER.norm>
-1.07917

>  <SCORE.INTRA>
0

>  <SCORE.INTRA.DIHEDRAL>
0

>  <SCORE.INTRA.DIHEDRAL.0>
0

>  <SCORE.INTRA.POLAR>
0

>  <SCORE.INTRA.POLAR.0>
0

>  <SCORE.INTRA.REPUL>
0

>  <SCORE.INTRA.REPUL.0>
0

>  <SCORE.INTRA.SOLV>
0

>  <SCORE.INTRA.SOLV.lig_0>
-29.58

>  <SCORE.INTRA.VDW>
0

>  <SCORE.INTRA.VDW.0>
0

>  <SCORE.INTRA.norm>
0

>  <SCORE.RESTR>
0

>  <SCORE.RESTR.CAVITY>
0

>  <SCORE.RESTR.norm>
0

>  <SCORE.SYSTEM>
0

>  <SCORE.SYSTEM.CONST>
0

>  <SCORE.SYSTEM.DIHEDRAL>
0

>  <SCORE.SYSTEM.SOLV>
0

>  <SCORE.SYSTEM.norm>
0

>  <SCORE.heavy>
8

>  <SCORE.norm>
-1.07917

>  <RMSD>
3.459

$$$$
ligand
 OpenBabel02271912143D
libRbt.so/2013.1/901 2013/11/27
  8  8  0  0  0  0  0  0  0  0999 V2000
    9.2787   10.0720   -1.5191 C   0  0  0  0  0  0  0  0  0  0  0  0
    9.4246   10.3765   -0.2298 N   0  0  0  0  0  0  0  0  0  0  0  0
    9.9847   11.5387    0.1158 C   0  0  0  0  0  0  0  0  0  0  0  0
   10.3881   12.4107   -0.8375 N   0  0  0  0  0  0  0  0  0  0  0  0
   10.2410   12.0897   -2.1339 C   0  0  0  0  0  0  0  0  0  0  0  0
    9.6812   10.9202   -2.4801 N   0  0  0  0  0  0  0  0  0  0  0  0
   10.1335   11.8423    1.5547 N   0  0  0  0  0  0  0  0  0  0  0  0
    8.7061    8.8863   -1.8301 O   0  0  0  0  0  0  0  0  0  0  0  0
  1  2  1  0  0  0  0
  1  6  1  0  0  0  0
  1  8  2  0  0  0  0
  2  3  1  0  0  0  0
  3  4  2  0  0  0  0
  3  7  1  0  0  0  0
  4  5  1  0  0  0  0
  5  6  2  0  0  0  0
M  END
>  <CHROM.1>
9.70503374,10.96577747,-0.92241743,2.36525281,-1.12510640,-1.56423537

>  <Name>
ligand

>  <RI>
0

>  <Rbt.Current_Directory>
/home/itssahil/PROJECTS/Mol_Feturizer/Test_systems_manuscript/rnas/3la5

>  <Rbt.Executable>
rbdock ($Id: //depot/dev/client3/rdock/2013.1/src/exe/rbdock.cxx#4 $)

>  <Rbt.Library>
libRbt.so (2013.1, Build901 2013/11/27)

>  <Rbt.Parameter_File>
/export/apps/rDock/src/rDock_2013.1_src/data/scripts/dock_solv.prm

>  <Rbt.Receptor>
prm/pocket_docking_6.prm

>  <SCORE>
-8.63211

>  <SCORE.INTER>
-8.63211

>  <SCORE.INTER.CONST>
1

>  <SCORE.INTER.POLAR>
0

>  <SCORE.INTER.ROT>
0

>  <SCORE.INTER.SOLV>
8.36073

>  <SCORE.INTER.VDW>
-12.1416

>  <SCORE.INTER.norm>
-1.07901

>  <SCORE.INTRA>
0

>  <SCORE.INTRA.DIHEDRAL>
0

>  <SCORE.INTRA.DIHEDRAL.0>
0

>  <SCORE.INTRA.POLAR>
0

>  <SCORE.INTRA.POLAR.0>
0

>  <SCORE.INTRA.REPUL>
0

>  <SCORE.INTRA.REPUL.0>
0

>  <SCORE.INTRA.SOLV>
0

>  <SCORE.INTRA.SOLV.lig_0>
-29.58

>  <SCORE.INTRA.VDW>
0

>  <SCORE.INTRA.VDW.0>
0

>  <SCORE.INTRA.norm>
0

>  <SCORE.RESTR>
0

>  <SCORE.RESTR.CAVITY>
0

>  <SCORE.RESTR.norm>
0

>  <SCORE.SYSTEM>
0

>  <SCORE.SYSTEM.CONST>
0

>  <SCORE.SYSTEM.DIHEDRAL>
0

>  <SCORE.SYSTEM.SOLV>
0

>  <SCORE.SYSTEM.norm>
0

>  <SCORE.heavy>
8

>  <SCORE.norm>
-1.07901

>  <RMSD>
3.459

$$$$
ligand
 OpenBabel02271912143D
libRbt.so/2013.1/901 2013/11/27
  8  8  0  0  0  0  0  0  0  0999 V2000
    9.2756   10.0732   -1.5233 C   0  0  0  0  0  0  0  0  0  0  0  0
    9.4127   10.3733   -0.2319 N   0  0  0  0  0  0  0  0  0  0  0  0
    9.9709   11.5341    0.1215 C   0  0  0  0  0  0  0  0  0  0  0  0
   10.3813   12.4091   -0.8261 N   0  0  0  0  0  0  0  0  0  0  0  0
   10.2430   12.0925   -2.1246 C   0  0  0  0  0  0  0  0  0  0  0  0
    9.6851   10.9244   -2.4785 N   0  0  0  0  0  0  0  0  0  0  0  0
   10.1099   11.8328    1.5623 N   0  0  0  0  0  0  0  0  0  0  0  0
    8.7046    8.8888   -1.8421 O   0  0  0  0  0  0  0  0  0  0  0  0
  1  2  1  0  0  0  0
  1  6  1  0  0  0  0
  1  8  2  0  0  0  0
  2  3  1  0  0  0  0
  3  4  2  0  0  0  0
  3  7  1  0  0  0  0
  4  5  1  0  0  0  0
  5  6  2  0  0  0  0
M  END
>  <CHROM.1>
9.69819602,10.96473844,-0.92060497,2.34920147,-1.12467593,-1.57536971

>  <Name>
ligand

>  <RI>
0

>  <Rbt.Current_Directory>
/home/itssahil/PROJECTS/Mol_Feturizer/Test_systems_manuscript/rnas/3la5

>  <Rbt.Executable>
rbdock ($Id: //depot/dev/client3/rdock/2013.1/src/exe/rbdock.cxx#4 $)

>  <Rbt.Library>
libRbt.so (2013.1, Build901 2013/11/27)

>  <Rbt.Parameter_File>
/export/apps/rDock/src/rDock_2013.1_src/data/scripts/dock_solv.prm

>  <Rbt.Receptor>
prm/pocket_docking_7.prm

>  <SCORE>
-8.63729

>  <SCORE.INTER>
-8.63729

>  <SCORE.INTER.CONST>
1

>  <SCORE.INTER.POLAR>
0

>  <SCORE.INTER.ROT>
0

>  <SCORE.INTER.SOLV>
8.39688

>  <SCORE.INTER.VDW>
-12.1572

>  <SCORE.INTER.norm>
-1.07966

>  <SCORE.INTRA>
0

>  <SCORE.INTRA.DIHEDRAL>
0

>  <SCORE.INTRA.DIHEDRAL.0>
0

>  <SCORE.INTRA.POLAR>
0

>  <SCORE.INTRA.POLAR.0>
0

>  <SCORE.INTRA.REPUL>
0

>  <SCORE.INTRA.REPUL.0>
0

>  <SCORE.INTRA.SOLV>
0

>  <SCORE.INTRA.SOLV.lig_0>
-29.58

>  <SCORE.INTRA.VDW>
0

>  <SCORE.INTRA.VDW.0>
0

>  <SCORE.INTRA.norm>
0

>  <SCORE.RESTR>
0

>  <SCORE.RESTR.CAVITY>
0

>  <SCORE.RESTR.norm>
0

>  <SCORE.SYSTEM>
0

>  <SCORE.SYSTEM.CONST>
0

>  <SCORE.SYSTEM.DIHEDRAL>
0

>  <SCORE.SYSTEM.SOLV>
0

>  <SCORE.SYSTEM.norm>
0

>  <SCORE.heavy>
8

>  <SCORE.norm>
-1.07966

>  <RMSD>
3.459

$$$$
ligand
 OpenBabel02271912143D
libRbt.so/2013.1/901 2013/11/27
  8  8  0  0  0  0  0  0  0  0999 V2000
    9.2657   10.0974   -1.5089 C   0  0  0  0  0  0  0  0  0  0  0  0
    9.3744   10.4290   -0.2225 N   0  0  0  0  0  0  0  0  0  0  0  0
    9.9265   11.5976    0.1147 C   0  0  0  0  0  0  0  0  0  0  0  0
   10.3595   12.4486   -0.8446 N   0  0  0  0  0  0  0  0  0  0  0  0
   10.2498   12.1002   -2.1377 C   0  0  0  0  0  0  0  0  0  0  0  0
    9.6980   10.9244   -2.4753 N   0  0  0  0  0  0  0  0  0  0  0  0
   10.0337   11.9314    1.5506 N   0  0  0  0  0  0  0  0  0  0  0  0
    8.7001    8.9062   -1.8113 O   0  0  0  0  0  0  0  0  0  0  0  0
  1  2  1  0  0  0  0
  1  6  1  0  0  0  0
  1  8  2  0  0  0  0
  2  3  1  0  0  0  0
  3  4  2  0  0  0  0
  3  7  1  0  0  0  0
  4  5  1  0  0  0  0
  5  6  2  0  0  0  0
M  END
>  <CHROM.1>
9.67623505,11.00305746,-0.91894205,2.29754183,-1.12238501,-1.64650955

>  <Name>
ligand

>  <RI>
0

>  <Rbt.Current_Directory>
/home/itssahil/PROJECTS/Mol_Feturizer/Test_systems_manuscript/rnas/3la5

>  <Rbt.Executable>
rbdock ($Id: //depot/dev/client3/rdock/2013.1/src/exe/rbdock.cxx#4 $)

>  <Rbt.Library>
libRbt.so (2013.1, Build901 2013/11/27)

>  <Rbt.Parameter_File>
/export/apps/rDock/src/rDock_2013.1_src/data/scripts/dock_solv.prm

>  <Rbt.Receptor>
prm/blind_docking_40.prm

>  <SCORE>
-8.61444

>  <SCORE.INTER>
-8.61444

>  <SCORE.INTER.CONST>
1

>  <SCORE.INTER.POLAR>
0

>  <SCORE.INTER.ROT>
0

>  <SCORE.INTER.SOLV>
8.40294

>  <SCORE.INTER.VDW>
-12.1439

>  <SCORE.INTER.norm>
-1.07681

>  <SCORE.INTRA>
0

>  <SCORE.INTRA.DIHEDRAL>
0

>  <SCORE.INTRA.DIHEDRAL.0>
0

>  <SCORE.INTRA.POLAR>
0

>  <SCORE.INTRA.POLAR.0>
0

>  <SCORE.INTRA.REPUL>
0

>  <SCORE.INTRA.REPUL.0>
0

>  <SCORE.INTRA.SOLV>
0

>  <SCORE.INTRA.SOLV.lig_0>
-29.58

>  <SCORE.INTRA.VDW>
0

>  <SCORE.INTRA.VDW.0>
0

>  <SCORE.INTRA.norm>
0

>  <SCORE.RESTR>
0

>  <SCORE.RESTR.CAVITY>
0

>  <SCORE.RESTR.norm>
0

>  <SCORE.SYSTEM>
0

>  <SCORE.SYSTEM.CONST>
0

>  <SCORE.SYSTEM.DIHEDRAL>
0

>  <SCORE.SYSTEM.SOLV>
0

>  <SCORE.SYSTEM.norm>
0

>  <SCORE.heavy>
8

>  <SCORE.norm>
-1.07681

>  <RMSD>
3.460

$$$$
ligand
 OpenBabel02271912143D
libRbt.so/2013.1/901 2013/11/27
  8  8  0  0  0  0  0  0  0  0999 V2000
    9.2814   10.0789   -1.5254 C   0  0  0  0  0  0  0  0  0  0  0  0
    9.4082   10.3878   -0.2351 N   0  0  0  0  0  0  0  0  0  0  0  0
    9.9653   11.5502    0.1148 C   0  0  0  0  0  0  0  0  0  0  0  0
   10.3851   12.4179   -0.8354 N   0  0  0  0  0  0  0  0  0  0  0  0
   10.2571   12.0923   -2.1327 C   0  0  0  0  0  0  0  0  0  0  0  0
    9.7003   10.9227   -2.4831 N   0  0  0  0  0  0  0  0  0  0  0  0
   10.0928   11.8588    1.5547 N   0  0  0  0  0  0  0  0  0  0  0  0
    8.7111    8.8932   -1.8407 O   0  0  0  0  0  0  0  0  0  0  0  0
  1  2  1  0  0  0  0
  1  6  1  0  0  0  0
  1  8  2  0  0  0  0
  2  3  1  0  0  0  0
  3  4  2  0  0  0  0
  3  7  1  0  0  0  0
  4  5  1  0  0  0  0
  5  6  2  0  0  0  0
M  END
>  <CHROM.1>
9.70038380,10.97397861,-0.92546872,2.32991024,-1.12291278,-1.59978369

>  <Name>
ligand

>  <RI>
0

>  <Rbt.Current_Directory>
/home/itssahil/PROJECTS/Mol_Feturizer/Test_systems_manuscript/rnas/3la5

>  <Rbt.Executable>
rbdock ($Id: //depot/dev/client3/rdock/2013.1/src/exe/rbdock.cxx#4 $)

>  <Rbt.Library>
libRbt.so (2013.1, Build901 2013/11/27)

>  <Rbt.Parameter_File>
/export/apps/rDock/src/rDock_2013.1_src/data/scripts/dock_solv.prm

>  <Rbt.Receptor>
prm/blind_docking_40.prm

>  <SCORE>
-8.63854

>  <SCORE.INTER>
-8.63854

>  <SCORE.INTER.CONST>
1

>  <SCORE.INTER.POLAR>
0

>  <SCORE.INTER.ROT>
0

>  <SCORE.INTER.SOLV>
8.36528

>  <SCORE.INTER.VDW>
-12.1475

>  <SCORE.INTER.norm>
-1.07982

>  <SCORE.INTRA>
0

>  <SCORE.INTRA.DIHEDRAL>
0

>  <SCORE.INTRA.DIHEDRAL.0>
0

>  <SCORE.INTRA.POLAR>
0

>  <SCORE.INTRA.POLAR.0>
0

>  <SCORE.INTRA.REPUL>
0

>  <SCORE.INTRA.REPUL.0>
0

>  <SCORE.INTRA.SOLV>
0

>  <SCORE.INTRA.SOLV.lig_0>
-29.58

>  <SCORE.INTRA.VDW>
0

>  <SCORE.INTRA.VDW.0>
0

>  <SCORE.INTRA.norm>
0

>  <SCORE.RESTR>
0

>  <SCORE.RESTR.CAVITY>
0

>  <SCORE.RESTR.norm>
0

>  <SCORE.SYSTEM>
0

>  <SCORE.SYSTEM.CONST>
0

>  <SCORE.SYSTEM.DIHEDRAL>
0

>  <SCORE.SYSTEM.SOLV>
0

>  <SCORE.SYSTEM.norm>
0

>  <SCORE.heavy>
8

>  <SCORE.norm>
-1.07982

>  <RMSD>
3.460

$$$$
ligand
 OpenBabel02271912143D
libRbt.so/2013.1/901 2013/11/27
  8  8  0  0  0  0  0  0  0  0999 V2000
    9.2673   10.1124   -1.5172 C   0  0  0  0  0  0  0  0  0  0  0  0
    9.3864   10.4445   -0.2319 N   0  0  0  0  0  0  0  0  0  0  0  0
    9.9492   11.6092    0.1007 C   0  0  0  0  0  0  0  0  0  0  0  0
   10.3826   12.4560   -0.8621 N   0  0  0  0  0  0  0  0  0  0  0  0
   10.2624   12.1072   -2.1541 C   0  0  0  0  0  0  0  0  0  0  0  0
    9.6998   10.9352   -2.4871 N   0  0  0  0  0  0  0  0  0  0  0  0
   10.0677   11.9437    1.5355 N   0  0  0  0  0  0  0  0  0  0  0  0
    8.6909    8.9252   -1.8149 O   0  0  0  0  0  0  0  0  0  0  0  0
  1  2  1  0  0  0  0
  1  6  1  0  0  0  0
  1  8  2  0  0  0  0
  2  3  1  0  0  0  0
  3  4  2  0  0  0  0
  3  7  1  0  0  0  0
  4  5  1  0  0  0  0
  5  6  2  0  0  0  0
M  END
>  <CHROM.1>
9.68815398,11.01556429,-0.93075525,2.31274059,-1.11533939,-1.63384947

>  <Name>
ligand

>  <RI>
0

>  <Rbt.Current_Directory>
/home/itssahil/PROJECTS/Mol_Feturizer/Test_systems_manuscript/rnas/3la5

>  <Rbt.Executable>
rbdock ($Id: //depot/dev/client3/rdock/2013.1/src/exe/rbdock.cxx#4 $)

>  <Rbt.Library>
libRbt.so (2013.1, Build901 2013/11/27)

>  <Rbt.Parameter_File>
/export/apps/rDock/src/rDock_2013.1_src/data/scripts/dock_solv.prm

>  <Rbt.Receptor>
prm/pocket_docking_5.prm

>  <SCORE>
-8.65109

>  <SCORE.INTER>
-8.65109

>  <SCORE.INTER.CONST>
1

>  <SCORE.INTER.POLAR>
0

>  <SCORE.INTER.ROT>
0

>  <SCORE.INTER.SOLV>
8.36645

>  <SCORE.INTER.VDW>
-12.1562

>  <SCORE.INTER.norm>
-1.08139

>  <SCORE.INTRA>
0

>  <SCORE.INTRA.DIHEDRAL>
0

>  <SCORE.INTRA.DIHEDRAL.0>
0

>  <SCORE.INTRA.POLAR>
0

>  <SCORE.INTRA.POLAR.0>
0

>  <SCORE.INTRA.REPUL>
0

>  <SCORE.INTRA.REPUL.0>
0

>  <SCORE.INTRA.SOLV>
0

>  <SCORE.INTRA.SOLV.lig_0>
-29.58

>  <SCORE.INTRA.VDW>
0

>  <SCORE.INTRA.VDW.0>
0

>  <SCORE.INTRA.norm>
0

>  <SCORE.RESTR>
0

>  <SCORE.RESTR.CAVITY>
0

>  <SCORE.RESTR.norm>
0

>  <SCORE.SYSTEM>
0

>  <SCORE.SYSTEM.CONST>
0

>  <SCORE.SYSTEM.DIHEDRAL>
0

>  <SCORE.SYSTEM.SOLV>
0

>  <SCORE.SYSTEM.norm>
0

>  <SCORE.heavy>
8

>  <SCORE.norm>
-1.08139

>  <RMSD>
3.460

$$$$
ligand
 OpenBabel02271912143D
libRbt.so/2013.1/901 2013/11/27
  8  8  0  0  0  0  0  0  0  0999 V2000
    9.2745   10.0778   -1.5214 C   0  0  0  0  0  0  0  0  0  0  0  0
    9.4092   10.3851   -0.2314 N   0  0  0  0  0  0  0  0  0  0  0  0
    9.9671   11.5476    0.1166 C   0  0  0  0  0  0  0  0  0  0  0  0
   10.3799   12.4171   -0.8350 N   0  0  0  0  0  0  0  0  0  0  0  0
   10.2441   12.0933   -2.1319 C   0  0  0  0  0  0  0  0  0  0  0  0
    9.6863   10.9235   -2.4805 N   0  0  0  0  0  0  0  0  0  0  0  0
   10.1034   11.8543    1.5561 N   0  0  0  0  0  0  0  0  0  0  0  0
    8.7036    8.8920   -1.8348 O   0  0  0  0  0  0  0  0  0  0  0  0
  1  2  1  0  0  0  0
  1  6  1  0  0  0  0
  1  8  2  0  0  0  0
  2  3  1  0  0  0  0
  3  4  2  0  0  0  0
  3  7  1  0  0  0  0
  4  5  1  0  0  0  0
  5  6  2  0  0  0  0
M  END
>  <CHROM.1>
9.69628806,10.97255874,-0.92282649,2.34451288,-1.12418345,-1.58516351

>  <Name>
ligand

>  <RI>
0

>  <Rbt.Current_Directory>
/home/itssahil/PROJECTS/Mol_Feturizer/Test_systems_manuscript/rnas/3la5

>  <Rbt.Executable>
rbdock ($Id: //depot/dev/client3/rdock/2013.1/src/exe/rbdock.cxx#4 $)

>  <Rbt.Library>
libRbt.so (2013.1, Build901 2013/11/27)

>  <Rbt.Parameter_File>
/export/apps/rDock/src/rDock_2013.1_src/data/scripts/dock_solv.prm

>  <Rbt.Receptor>
prm/pocket_docking_6.prm

>  <SCORE>
-8.64195

>  <SCORE.INTER>
-8.64195

>  <SCORE.INTER.CONST>
1

>  <SCORE.INTER.POLAR>
0

>  <SCORE.INTER.ROT>
0

>  <SCORE.INTER.SOLV>
8.37512

>  <SCORE.INTER.VDW>
-12.153

>  <SCORE.INTER.norm>
-1.08024

>  <SCORE.INTRA>
0

>  <SCORE.INTRA.DIHEDRAL>
0

>  <SCORE.INTRA.DIHEDRAL.0>
0

>  <SCORE.INTRA.POLAR>
0

>  <SCORE.INTRA.POLAR.0>
0

>  <SCORE.INTRA.REPUL>
0

>  <SCORE.INTRA.REPUL.0>
0

>  <SCORE.INTRA.SOLV>
0

>  <SCORE.INTRA.SOLV.lig_0>
-29.58

>  <SCORE.INTRA.VDW>
0

>  <SCORE.INTRA.VDW.0>
0

>  <SCORE.INTRA.norm>
0

>  <SCORE.RESTR>
0

>  <SCORE.RESTR.CAVITY>
0

>  <SCORE.RESTR.norm>
0

>  <SCORE.SYSTEM>
0

>  <SCORE.SYSTEM.CONST>
0

>  <SCORE.SYSTEM.DIHEDRAL>
0

>  <SCORE.SYSTEM.SOLV>
0

>  <SCORE.SYSTEM.norm>
0

>  <SCORE.heavy>
8

>  <SCORE.norm>
-1.08024

>  <RMSD>
3.460

$$$$
ligand
 OpenBabel02271912143D
libRbt.so/2013.1/901 2013/11/27
  8  8  0  0  0  0  0  0  0  0999 V2000
    9.2755   10.0781   -1.5265 C   0  0  0  0  0  0  0  0  0  0  0  0
    9.4125   10.3798   -0.2355 N   0  0  0  0  0  0  0  0  0  0  0  0
    9.9711   11.5408    0.1166 C   0  0  0  0  0  0  0  0  0  0  0  0
   10.3823   12.4144   -0.8320 N   0  0  0  0  0  0  0  0  0  0  0  0
   10.2441   12.0961   -2.1301 C   0  0  0  0  0  0  0  0  0  0  0  0
    9.6857   10.9279   -2.4827 N   0  0  0  0  0  0  0  0  0  0  0  0
   10.1100   11.8412    1.5571 N   0  0  0  0  0  0  0  0  0  0  0  0
    8.7041    8.8936   -1.8439 O   0  0  0  0  0  0  0  0  0  0  0  0
  1  2  1  0  0  0  0
  1  6  1  0  0  0  0
  1  8  2  0  0  0  0
  2  3  1  0  0  0  0
  3  4  2  0  0  0  0
  3  7  1  0  0  0  0
  4  5  1  0  0  0  0
  5  6  2  0  0  0  0
M  END
>  <CHROM.1>
9.69843886,10.97020822,-0.92482695,2.34864624,-1.12418129,-1.57713340

>  <Name>
ligand

>  <RI>
0

>  <Rbt.Current_Directory>
/home/itssahil/PROJECTS/Mol_Feturizer/Test_systems_manuscript/rnas/3la5

>  <Rbt.Executable>
rbdock ($Id: //depot/dev/client3/rdock/2013.1/src/exe/rbdock.cxx#4 $)

>  <Rbt.Library>
libRbt.so (2013.1, Build901 2013/11/27)

>  <Rbt.Parameter_File>
/export/apps/rDock/src/rDock_2013.1_src/data/scripts/dock_solv.prm

>  <Rbt.Receptor>
prm/pocket_docking_6.prm

>  <SCORE>
-8.63635

>  <SCORE.INTER>
-8.63635

>  <SCORE.INTER.CONST>
1

>  <SCORE.INTER.POLAR>
0

>  <SCORE.INTER.ROT>
0

>  <SCORE.INTER.SOLV>
8.38337

>  <SCORE.INTER.VDW>
-12.152

>  <SCORE.INTER.norm>
-1.07954

>  <SCORE.INTRA>
0

>  <SCORE.INTRA.DIHEDRAL>
0

>  <SCORE.INTRA.DIHEDRAL.0>
0

>  <SCORE.INTRA.POLAR>
0

>  <SCORE.INTRA.POLAR.0>
0

>  <SCORE.INTRA.REPUL>
0

>  <SCORE.INTRA.REPUL.0>
0

>  <SCORE.INTRA.SOLV>
0

>  <SCORE.INTRA.SOLV.lig_0>
-29.58

>  <SCORE.INTRA.VDW>
0

>  <SCORE.INTRA.VDW.0>
0

>  <SCORE.INTRA.norm>
0

>  <SCORE.RESTR>
0

>  <SCORE.RESTR.CAVITY>
0

>  <SCORE.RESTR.norm>
0

>  <SCORE.SYSTEM>
0

>  <SCORE.SYSTEM.CONST>
0

>  <SCORE.SYSTEM.DIHEDRAL>
0

>  <SCORE.SYSTEM.SOLV>
0

>  <SCORE.SYSTEM.norm>
0

>  <SCORE.heavy>
8

>  <SCORE.norm>
-1.07954

>  <RMSD>
3.460

$$$$
ligand
 OpenBabel02271912143D
libRbt.so/2013.1/901 2013/11/27
  8  8  0  0  0  0  0  0  0  0999 V2000
    9.2726   10.0791   -1.5237 C   0  0  0  0  0  0  0  0  0  0  0  0
    9.4081   10.3838   -0.2333 N   0  0  0  0  0  0  0  0  0  0  0  0
    9.9645   11.5465    0.1166 C   0  0  0  0  0  0  0  0  0  0  0  0
   10.3749   12.4187   -0.8335 N   0  0  0  0  0  0  0  0  0  0  0  0
   10.2383   12.0975   -2.1310 C   0  0  0  0  0  0  0  0  0  0  0  0
    9.6821   10.9275   -2.4815 N   0  0  0  0  0  0  0  0  0  0  0  0
   10.1017   11.8504    1.5566 N   0  0  0  0  0  0  0  0  0  0  0  0
    8.7033    8.8930   -1.8391 O   0  0  0  0  0  0  0  0  0  0  0  0
  1  2  1  0  0  0  0
  1  6  1  0  0  0  0
  1  8  2  0  0  0  0
  2  3  1  0  0  0  0
  3  4  2  0  0  0  0
  3  7  1  0  0  0  0
  4  5  1  0  0  0  0
  5  6  2  0  0  0  0
M  END
>  <CHROM.1>
9.69352828,10.97325444,-0.92372778,2.34682233,-1.12584149,-1.58095481

>  <Name>
ligand

>  <RI>
0

>  <Rbt.Current_Directory>
/home/itssahil/PROJECTS/Mol_Feturizer/Test_systems_manuscript/rnas/3la5

>  <Rbt.Executable>
rbdock ($Id: //depot/dev/client3/rdock/2013.1/src/exe/rbdock.cxx#4 $)

>  <Rbt.Library>
libRbt.so (2013.1, Build901 2013/11/27)

>  <Rbt.Parameter_File>
/export/apps/rDock/src/rDock_2013.1_src/data/scripts/dock_solv.prm

>  <Rbt.Receptor>
prm/pocket_docking_6.prm

>  <SCORE>
-8.63863

>  <SCORE.INTER>
-8.63863

>  <SCORE.INTER.CONST>
1

>  <SCORE.INTER.POLAR>
0

>  <SCORE.INTER.ROT>
0

>  <SCORE.INTER.SOLV>
8.38132

>  <SCORE.INTER.VDW>
-12.1529

>  <SCORE.INTER.norm>
-1.07983

>  <SCORE.INTRA>
0

>  <SCORE.INTRA.DIHEDRAL>
0

>  <SCORE.INTRA.DIHEDRAL.0>
0

>  <SCORE.INTRA.POLAR>
0

>  <SCORE.INTRA.POLAR.0>
0

>  <SCORE.INTRA.REPUL>
0

>  <SCORE.INTRA.REPUL.0>
0

>  <SCORE.INTRA.SOLV>
0

>  <SCORE.INTRA.SOLV.lig_0>
-29.58

>  <SCORE.INTRA.VDW>
0

>  <SCORE.INTRA.VDW.0>
0

>  <SCORE.INTRA.norm>
0

>  <SCORE.RESTR>
0

>  <SCORE.RESTR.CAVITY>
0

>  <SCORE.RESTR.norm>
0

>  <SCORE.SYSTEM>
0

>  <SCORE.SYSTEM.CONST>
0

>  <SCORE.SYSTEM.DIHEDRAL>
0

>  <SCORE.SYSTEM.SOLV>
0

>  <SCORE.SYSTEM.norm>
0

>  <SCORE.heavy>
8

>  <SCORE.norm>
-1.07983

>  <RMSD>
3.460

$$$$
ligand
 OpenBabel02271912143D
libRbt.so/2013.1/901 2013/11/27
  8  8  0  0  0  0  0  0  0  0999 V2000
    9.2690   10.1106   -1.5169 C   0  0  0  0  0  0  0  0  0  0  0  0
    9.3868   10.4436   -0.2317 N   0  0  0  0  0  0  0  0  0  0  0  0
    9.9497   11.6083    0.1006 C   0  0  0  0  0  0  0  0  0  0  0  0
   10.3847   12.4542   -0.8624 N   0  0  0  0  0  0  0  0  0  0  0  0
   10.2657   12.1045   -2.1542 C   0  0  0  0  0  0  0  0  0  0  0  0
    9.7029   10.9325   -2.4870 N   0  0  0  0  0  0  0  0  0  0  0  0
   10.0668   11.9438    1.5353 N   0  0  0  0  0  0  0  0  0  0  0  0
    8.6924    8.9234   -1.8144 O   0  0  0  0  0  0  0  0  0  0  0  0
  1  2  1  0  0  0  0
  1  6  1  0  0  0  0
  1  8  2  0  0  0  0
  2  3  1  0  0  0  0
  3  4  2  0  0  0  0
  3  7  1  0  0  0  0
  4  5  1  0  0  0  0
  5  6  2  0  0  0  0
M  END
>  <CHROM.1>
9.68961371,11.01402227,-0.93068311,2.31028193,-1.11481946,-1.63681858

>  <Name>
ligand

>  <RI>
0

>  <Rbt.Current_Directory>
/home/itssahil/PROJECTS/Mol_Feturizer/Test_systems_manuscript/rnas/3la5

>  <Rbt.Executable>
rbdock ($Id: //depot/dev/client3/rdock/2013.1/src/exe/rbdock.cxx#4 $)

>  <Rbt.Library>
libRbt.so (2013.1, Build901 2013/11/27)

>  <Rbt.Parameter_File>
/export/apps/rDock/src/rDock_2013.1_src/data/scripts/dock_solv.prm

>  <Rbt.Receptor>
prm/pocket_docking_8.prm

>  <SCORE>
-8.65285

>  <SCORE.INTER>
-8.65285

>  <SCORE.INTER.CONST>
1

>  <SCORE.INTER.POLAR>
0

>  <SCORE.INTER.ROT>
0

>  <SCORE.INTER.SOLV>
8.3647

>  <SCORE.INTER.VDW>
-12.1568

>  <SCORE.INTER.norm>
-1.08161

>  <SCORE.INTRA>
0

>  <SCORE.INTRA.DIHEDRAL>
0

>  <SCORE.INTRA.DIHEDRAL.0>
0

>  <SCORE.INTRA.POLAR>
0

>  <SCORE.INTRA.POLAR.0>
0

>  <SCORE.INTRA.REPUL>
0

>  <SCORE.INTRA.REPUL.0>
0

>  <SCORE.INTRA.SOLV>
0

>  <SCORE.INTRA.SOLV.lig_0>
-29.58

>  <SCORE.INTRA.VDW>
0

>  <SCORE.INTRA.VDW.0>
0

>  <SCORE.INTRA.norm>
0

>  <SCORE.RESTR>
0

>  <SCORE.RESTR.CAVITY>
0

>  <SCORE.RESTR.norm>
0

>  <SCORE.SYSTEM>
0

>  <SCORE.SYSTEM.CONST>
0

>  <SCORE.SYSTEM.DIHEDRAL>
0

>  <SCORE.SYSTEM.SOLV>
0

>  <SCORE.SYSTEM.norm>
0

>  <SCORE.heavy>
8

>  <SCORE.norm>
-1.08161

>  <RMSD>
3.460

$$$$
ligand
 OpenBabel02271912143D
libRbt.so/2013.1/901 2013/11/27
  8  8  0  0  0  0  0  0  0  0999 V2000
    9.2781   10.0741   -1.5266 C   0  0  0  0  0  0  0  0  0  0  0  0
    9.4270   10.3736   -0.2365 N   0  0  0  0  0  0  0  0  0  0  0  0
    9.9887   11.5340    0.1124 C   0  0  0  0  0  0  0  0  0  0  0  0
   10.3908   12.4094   -0.8384 N   0  0  0  0  0  0  0  0  0  0  0  0
   10.2407   12.0934   -2.1357 C   0  0  0  0  0  0  0  0  0  0  0  0
    9.6792   10.9257   -2.4852 N   0  0  0  0  0  0  0  0  0  0  0  0
   10.1408   11.8320    1.5521 N   0  0  0  0  0  0  0  0  0  0  0  0
    8.7039    8.8901   -1.8409 O   0  0  0  0  0  0  0  0  0  0  0  0
  1  2  1  0  0  0  0
  1  6  1  0  0  0  0
  1  8  2  0  0  0  0
  2  3  1  0  0  0  0
  3  4  2  0  0  0  0
  3  7  1  0  0  0  0
  4  5  1  0  0  0  0
  5  6  2  0  0  0  0
M  END
>  <CHROM.1>
9.70638914,10.96527773,-0.92740402,2.37012781,-1.12429568,-1.55600225

>  <Name>
ligand

>  <RI>
0

>  <Rbt.Current_Directory>
/home/itssahil/PROJECTS/Mol_Feturizer/Test_systems_manuscript/rnas/3la5

>  <Rbt.Executable>
rbdock ($Id: //depot/dev/client3/rdock/2013.1/src/exe/rbdock.cxx#4 $)

>  <Rbt.Library>
libRbt.so (2013.1, Build901 2013/11/27)

>  <Rbt.Parameter_File>
/export/apps/rDock/src/rDock_2013.1_src/data/scripts/dock_solv.prm

>  <Rbt.Receptor>
prm/pocket_docking_8.prm

>  <SCORE>
-8.62843

>  <SCORE.INTER>
-8.62843

>  <SCORE.INTER.CONST>
1

>  <SCORE.INTER.POLAR>
0

>  <SCORE.INTER.ROT>
0

>  <SCORE.INTER.SOLV>
8.36274

>  <SCORE.INTER.VDW>
-12.1399

>  <SCORE.INTER.norm>
-1.07855

>  <SCORE.INTRA>
0

>  <SCORE.INTRA.DIHEDRAL>
0

>  <SCORE.INTRA.DIHEDRAL.0>
0

>  <SCORE.INTRA.POLAR>
0

>  <SCORE.INTRA.POLAR.0>
0

>  <SCORE.INTRA.REPUL>
0

>  <SCORE.INTRA.REPUL.0>
0

>  <SCORE.INTRA.SOLV>
0

>  <SCORE.INTRA.SOLV.lig_0>
-29.58

>  <SCORE.INTRA.VDW>
0

>  <SCORE.INTRA.VDW.0>
0

>  <SCORE.INTRA.norm>
0

>  <SCORE.RESTR>
0

>  <SCORE.RESTR.CAVITY>
0

>  <SCORE.RESTR.norm>
0

>  <SCORE.SYSTEM>
0

>  <SCORE.SYSTEM.CONST>
0

>  <SCORE.SYSTEM.DIHEDRAL>
0

>  <SCORE.SYSTEM.SOLV>
0

>  <SCORE.SYSTEM.norm>
0

>  <SCORE.heavy>
8

>  <SCORE.norm>
-1.07855

>  <RMSD>
3.460

$$$$
ligand
 OpenBabel02271912143D
libRbt.so/2013.1/901 2013/11/27
  8  8  0  0  0  0  0  0  0  0999 V2000
    9.2785   10.0690   -1.5254 C   0  0  0  0  0  0  0  0  0  0  0  0
    9.4255   10.3652   -0.2342 N   0  0  0  0  0  0  0  0  0  0  0  0
    9.9843   11.5260    0.1184 C   0  0  0  0  0  0  0  0  0  0  0  0
   10.3854   12.4048   -0.8296 N   0  0  0  0  0  0  0  0  0  0  0  0
   10.2373   12.0921   -2.1279 C   0  0  0  0  0  0  0  0  0  0  0  0
    9.6787   10.9241   -2.4811 N   0  0  0  0  0  0  0  0  0  0  0  0
   10.1343   11.8204    1.5591 N   0  0  0  0  0  0  0  0  0  0  0  0
    8.7073    8.8846   -1.8434 O   0  0  0  0  0  0  0  0  0  0  0  0
  1  2  1  0  0  0  0
  1  6  1  0  0  0  0
  1  8  2  0  0  0  0
  2  3  1  0  0  0  0
  3  4  2  0  0  0  0
  3  7  1  0  0  0  0
  4  5  1  0  0  0  0
  5  6  2  0  0  0  0
M  END
>  <CHROM.1>
9.70428294,10.95946706,-0.92326178,2.36792770,-1.12653490,-1.55524869

>  <Name>
ligand

>  <RI>
0

>  <Rbt.Current_Directory>
/home/itssahil/PROJECTS/Mol_Feturizer/Test_systems_manuscript/rnas/3la5

>  <Rbt.Executable>
rbdock ($Id: //depot/dev/client3/rdock/2013.1/src/exe/rbdock.cxx#4 $)

>  <Rbt.Library>
libRbt.so (2013.1, Build901 2013/11/27)

>  <Rbt.Parameter_File>
/export/apps/rDock/src/rDock_2013.1_src/data/scripts/dock_solv.prm

>  <Rbt.Receptor>
prm/pocket_docking_8.prm

>  <SCORE>
-8.62561

>  <SCORE.INTER>
-8.62561

>  <SCORE.INTER.CONST>
1

>  <SCORE.INTER.POLAR>
0

>  <SCORE.INTER.ROT>
0

>  <SCORE.INTER.SOLV>
8.38317

>  <SCORE.INTER.VDW>
-12.1448

>  <SCORE.INTER.norm>
-1.0782

>  <SCORE.INTRA>
0

>  <SCORE.INTRA.DIHEDRAL>
0

>  <SCORE.INTRA.DIHEDRAL.0>
0

>  <SCORE.INTRA.POLAR>
0

>  <SCORE.INTRA.POLAR.0>
0

>  <SCORE.INTRA.REPUL>
0

>  <SCORE.INTRA.REPUL.0>
0

>  <SCORE.INTRA.SOLV>
0

>  <SCORE.INTRA.SOLV.lig_0>
-29.58

>  <SCORE.INTRA.VDW>
0

>  <SCORE.INTRA.VDW.0>
0

>  <SCORE.INTRA.norm>
0

>  <SCORE.RESTR>
0

>  <SCORE.RESTR.CAVITY>
0

>  <SCORE.RESTR.norm>
0

>  <SCORE.SYSTEM>
0

>  <SCORE.SYSTEM.CONST>
0

>  <SCORE.SYSTEM.DIHEDRAL>
0

>  <SCORE.SYSTEM.SOLV>
0

>  <SCORE.SYSTEM.norm>
0

>  <SCORE.heavy>
8

>  <SCORE.norm>
-1.0782

>  <RMSD>
3.460

$$$$
ligand
 OpenBabel02271912143D
libRbt.so/2013.1/901 2013/11/27
  8  8  0  0  0  0  0  0  0  0999 V2000
    9.2748   10.0787   -1.5291 C   0  0  0  0  0  0  0  0  0  0  0  0
    9.4166   10.3790   -0.2383 N   0  0  0  0  0  0  0  0  0  0  0  0
    9.9773   11.5392    0.1129 C   0  0  0  0  0  0  0  0  0  0  0  0
   10.3857   12.4135   -0.8362 N   0  0  0  0  0  0  0  0  0  0  0  0
   10.2427   12.0967   -2.1341 C   0  0  0  0  0  0  0  0  0  0  0  0
    9.6822   10.9292   -2.4859 N   0  0  0  0  0  0  0  0  0  0  0  0
   10.1215   11.8382    1.5533 N   0  0  0  0  0  0  0  0  0  0  0  0
    8.7014    8.8950   -1.8457 O   0  0  0  0  0  0  0  0  0  0  0  0
  1  2  1  0  0  0  0
  1  6  1  0  0  0  0
  1  8  2  0  0  0  0
  2  3  1  0  0  0  0
  3  4  2  0  0  0  0
  3  7  1  0  0  0  0
  4  5  1  0  0  0  0
  5  6  2  0  0  0  0
M  END
>  <CHROM.1>
9.70048225,10.96993899,-0.92806336,2.35690546,-1.12347411,-1.56867966

>  <Name>
ligand

>  <RI>
0

>  <Rbt.Current_Directory>
/home/itssahil/PROJECTS/Mol_Feturizer/Test_systems_manuscript/rnas/3la5

>  <Rbt.Executable>
rbdock ($Id: //depot/dev/client3/rdock/2013.1/src/exe/rbdock.cxx#4 $)

>  <Rbt.Library>
libRbt.so (2013.1, Build901 2013/11/27)

>  <Rbt.Parameter_File>
/export/apps/rDock/src/rDock_2013.1_src/data/scripts/dock_solv.prm

>  <Rbt.Receptor>
prm/blind_docking_20.prm

>  <SCORE>
-8.63279

>  <SCORE.INTER>
-8.63279

>  <SCORE.INTER.CONST>
1

>  <SCORE.INTER.POLAR>
0

>  <SCORE.INTER.ROT>
0

>  <SCORE.INTER.SOLV>
8.37637

>  <SCORE.INTER.VDW>
-12.1473

>  <SCORE.INTER.norm>
-1.0791

>  <SCORE.INTRA>
0

>  <SCORE.INTRA.DIHEDRAL>
0

>  <SCORE.INTRA.DIHEDRAL.0>
0

>  <SCORE.INTRA.POLAR>
0

>  <SCORE.INTRA.POLAR.0>
0

>  <SCORE.INTRA.REPUL>
0

>  <SCORE.INTRA.REPUL.0>
0

>  <SCORE.INTRA.SOLV>
0

>  <SCORE.INTRA.SOLV.lig_0>
-29.58

>  <SCORE.INTRA.VDW>
0

>  <SCORE.INTRA.VDW.0>
0

>  <SCORE.INTRA.norm>
0

>  <SCORE.RESTR>
0

>  <SCORE.RESTR.CAVITY>
0

>  <SCORE.RESTR.norm>
0

>  <SCORE.SYSTEM>
0

>  <SCORE.SYSTEM.CONST>
0

>  <SCORE.SYSTEM.DIHEDRAL>
0

>  <SCORE.SYSTEM.SOLV>
0

>  <SCORE.SYSTEM.norm>
0

>  <SCORE.heavy>
8

>  <SCORE.norm>
-1.0791

>  <RMSD>
3.461

$$$$
ligand
 OpenBabel02271912143D
libRbt.so/2013.1/901 2013/11/27
  8  8  0  0  0  0  0  0  0  0999 V2000
    9.2697   10.1035   -1.5267 C   0  0  0  0  0  0  0  0  0  0  0  0
    9.4009   10.4224   -0.2393 N   0  0  0  0  0  0  0  0  0  0  0  0
    9.9626   11.5857    0.0999 C   0  0  0  0  0  0  0  0  0  0  0  0
   10.3829   12.4443   -0.8583 N   0  0  0  0  0  0  0  0  0  0  0  0
   10.2505   12.1088   -2.1527 C   0  0  0  0  0  0  0  0  0  0  0  0
    9.6889   10.9382   -2.4923 N   0  0  0  0  0  0  0  0  0  0  0  0
   10.0949   11.9054    1.5369 N   0  0  0  0  0  0  0  0  0  0  0  0
    8.6947    8.9172   -1.8311 O   0  0  0  0  0  0  0  0  0  0  0  0
  1  2  1  0  0  0  0
  1  6  1  0  0  0  0
  1  8  2  0  0  0  0
  2  3  1  0  0  0  0
  3  4  2  0  0  0  0
  3  7  1  0  0  0  0
  4  5  1  0  0  0  0
  5  6  2  0  0  0  0
M  END
>  <CHROM.1>
9.69318028,11.00201452,-0.93509875,2.33605476,-1.11969562,-1.60226110

>  <Name>
ligand

>  <RI>
0

>  <Rbt.Current_Directory>
/home/itssahil/PROJECTS/Mol_Feturizer/Test_systems_manuscript/rnas/3la5

>  <Rbt.Executable>
rbdock ($Id: //depot/dev/client3/rdock/2013.1/src/exe/rbdock.cxx#4 $)

>  <Rbt.Library>
libRbt.so (2013.1, Build901 2013/11/27)

>  <Rbt.Parameter_File>
/export/apps/rDock/src/rDock_2013.1_src/data/scripts/dock_solv.prm

>  <Rbt.Receptor>
prm/pocket_docking_4.prm

>  <SCORE>
-8.63514

>  <SCORE.INTER>
-8.63514

>  <SCORE.INTER.CONST>
1

>  <SCORE.INTER.POLAR>
0

>  <SCORE.INTER.ROT>
0

>  <SCORE.INTER.SOLV>
8.3163

>  <SCORE.INTER.VDW>
-12.1289

>  <SCORE.INTER.norm>
-1.07939

>  <SCORE.INTRA>
0

>  <SCORE.INTRA.DIHEDRAL>
0

>  <SCORE.INTRA.DIHEDRAL.0>
0

>  <SCORE.INTRA.POLAR>
0

>  <SCORE.INTRA.POLAR.0>
0

>  <SCORE.INTRA.REPUL>
0

>  <SCORE.INTRA.REPUL.0>
0

>  <SCORE.INTRA.SOLV>
0

>  <SCORE.INTRA.SOLV.lig_0>
-29.58

>  <SCORE.INTRA.VDW>
0

>  <SCORE.INTRA.VDW.0>
0

>  <SCORE.INTRA.norm>
0

>  <SCORE.RESTR>
0

>  <SCORE.RESTR.CAVITY>
0

>  <SCORE.RESTR.norm>
0

>  <SCORE.SYSTEM>
0

>  <SCORE.SYSTEM.CONST>
0

>  <SCORE.SYSTEM.DIHEDRAL>
0

>  <SCORE.SYSTEM.SOLV>
0

>  <SCORE.SYSTEM.norm>
0

>  <SCORE.heavy>
8

>  <SCORE.norm>
-1.07939

>  <RMSD>
3.461

$$$$
ligand
 OpenBabel02271912143D
libRbt.so/2013.1/901 2013/11/27
  8  8  0  0  0  0  0  0  0  0999 V2000
    9.2523   10.0770   -1.5121 C   0  0  0  0  0  0  0  0  0  0  0  0
    9.4165   10.3803   -0.2246 N   0  0  0  0  0  0  0  0  0  0  0  0
    9.9949   11.5356    0.1139 C   0  0  0  0  0  0  0  0  0  0  0  0
   10.3988   12.4019   -0.8444 N   0  0  0  0  0  0  0  0  0  0  0  0
   10.2332   12.0820   -2.1388 C   0  0  0  0  0  0  0  0  0  0  0  0
    9.6549   10.9195   -2.4780 N   0  0  0  0  0  0  0  0  0  0  0  0
   10.1636   11.8381    1.5509 N   0  0  0  0  0  0  0  0  0  0  0  0
    8.6614    8.8985   -1.8158 O   0  0  0  0  0  0  0  0  0  0  0  0
  1  2  1  0  0  0  0
  1  6  1  0  0  0  0
  1  8  2  0  0  0  0
  2  3  1  0  0  0  0
  3  4  2  0  0  0  0
  3  7  1  0  0  0  0
  4  5  1  0  0  0  0
  5  6  2  0  0  0  0
M  END
>  <CHROM.1>
9.69658516,10.96561859,-0.92072922,2.39016337,-1.11226778,-1.54245321

>  <Name>
ligand

>  <RI>
0

>  <Rbt.Current_Directory>
/home/itssahil/PROJECTS/Mol_Feturizer/Test_systems_manuscript/rnas/3la5

>  <Rbt.Executable>
rbdock ($Id: //depot/dev/client3/rdock/2013.1/src/exe/rbdock.cxx#4 $)

>  <Rbt.Library>
libRbt.so (2013.1, Build901 2013/11/27)

>  <Rbt.Parameter_File>
/export/apps/rDock/src/rDock_2013.1_src/data/scripts/dock_solv.prm

>  <Rbt.Receptor>
prm/pocket_docking_4.prm

>  <SCORE>
-8.57388

>  <SCORE.INTER>
-8.57388

>  <SCORE.INTER.CONST>
1

>  <SCORE.INTER.POLAR>
0

>  <SCORE.INTER.ROT>
0

>  <SCORE.INTER.SOLV>
8.39423

>  <SCORE.INTER.VDW>
-12.114

>  <SCORE.INTER.norm>
-1.07173

>  <SCORE.INTRA>
0

>  <SCORE.INTRA.DIHEDRAL>
0

>  <SCORE.INTRA.DIHEDRAL.0>
0

>  <SCORE.INTRA.POLAR>
0

>  <SCORE.INTRA.POLAR.0>
0

>  <SCORE.INTRA.REPUL>
0

>  <SCORE.INTRA.REPUL.0>
0

>  <SCORE.INTRA.SOLV>
0

>  <SCORE.INTRA.SOLV.lig_0>
-29.58

>  <SCORE.INTRA.VDW>
0

>  <SCORE.INTRA.VDW.0>
0

>  <SCORE.INTRA.norm>
0

>  <SCORE.RESTR>
0

>  <SCORE.RESTR.CAVITY>
0

>  <SCORE.RESTR.norm>
0

>  <SCORE.SYSTEM>
0

>  <SCORE.SYSTEM.CONST>
0

>  <SCORE.SYSTEM.DIHEDRAL>
0

>  <SCORE.SYSTEM.SOLV>
0

>  <SCORE.SYSTEM.norm>
0

>  <SCORE.heavy>
8

>  <SCORE.norm>
-1.07173

>  <RMSD>
3.461

$$$$
ligand
 OpenBabel02271912143D
libRbt.so/2013.1/901 2013/11/27
  8  8  0  0  0  0  0  0  0  0999 V2000
    9.2784   10.0759   -1.5298 C   0  0  0  0  0  0  0  0  0  0  0  0
    9.4216   10.3766   -0.2393 N   0  0  0  0  0  0  0  0  0  0  0  0
    9.9827   11.5370    0.1109 C   0  0  0  0  0  0  0  0  0  0  0  0
   10.3900   12.4109   -0.8390 N   0  0  0  0  0  0  0  0  0  0  0  0
   10.2456   12.0937   -2.1366 C   0  0  0  0  0  0  0  0  0  0  0  0
    9.6847   10.9261   -2.4874 N   0  0  0  0  0  0  0  0  0  0  0  0
   10.1285   11.8364    1.5510 N   0  0  0  0  0  0  0  0  0  0  0  0
    8.7045    8.8921   -1.8454 O   0  0  0  0  0  0  0  0  0  0  0  0
  1  2  1  0  0  0  0
  1  6  1  0  0  0  0
  1  8  2  0  0  0  0
  2  3  1  0  0  0  0
  3  4  2  0  0  0  0
  3  7  1  0  0  0  0
  4  5  1  0  0  0  0
  5  6  2  0  0  0  0
M  END
>  <CHROM.1>
9.70473096,10.96734026,-0.92956577,2.35949966,-1.12345165,-1.56667795

>  <Name>
ligand

>  <RI>
0

>  <Rbt.Current_Directory>
/home/itssahil/PROJECTS/Mol_Feturizer/Test_systems_manuscript/rnas/3la5

>  <Rbt.Executable>
rbdock ($Id: //depot/dev/client3/rdock/2013.1/src/exe/rbdock.cxx#4 $)

>  <Rbt.Library>
libRbt.so (2013.1, Build901 2013/11/27)

>  <Rbt.Parameter_File>
/export/apps/rDock/src/rDock_2013.1_src/data/scripts/dock_solv.prm

>  <Rbt.Receptor>
prm/pocket_docking_4.prm

>  <SCORE>
-8.62917

>  <SCORE.INTER>
-8.62917

>  <SCORE.INTER.CONST>
1

>  <SCORE.INTER.POLAR>
0

>  <SCORE.INTER.ROT>
0

>  <SCORE.INTER.SOLV>
8.36529

>  <SCORE.INTER.VDW>
-12.1412

>  <SCORE.INTER.norm>
-1.07865

>  <SCORE.INTRA>
0

>  <SCORE.INTRA.DIHEDRAL>
0

>  <SCORE.INTRA.DIHEDRAL.0>
0

>  <SCORE.INTRA.POLAR>
0

>  <SCORE.INTRA.POLAR.0>
0

>  <SCORE.INTRA.REPUL>
0

>  <SCORE.INTRA.REPUL.0>
0

>  <SCORE.INTRA.SOLV>
0

>  <SCORE.INTRA.SOLV.lig_0>
-29.58

>  <SCORE.INTRA.VDW>
0

>  <SCORE.INTRA.VDW.0>
0

>  <SCORE.INTRA.norm>
0

>  <SCORE.RESTR>
0

>  <SCORE.RESTR.CAVITY>
0

>  <SCORE.RESTR.norm>
0

>  <SCORE.SYSTEM>
0

>  <SCORE.SYSTEM.CONST>
0

>  <SCORE.SYSTEM.DIHEDRAL>
0

>  <SCORE.SYSTEM.SOLV>
0

>  <SCORE.SYSTEM.norm>
0

>  <SCORE.heavy>
8

>  <SCORE.norm>
-1.07865

>  <RMSD>
3.461

$$$$
ligand
 OpenBabel02271912143D
libRbt.so/2013.1/901 2013/11/27
  8  8  0  0  0  0  0  0  0  0999 V2000
    9.2774   10.0774   -1.5246 C   0  0  0  0  0  0  0  0  0  0  0  0
    9.4077   10.3854   -0.2344 N   0  0  0  0  0  0  0  0  0  0  0  0
    9.9676   11.5467    0.1148 C   0  0  0  0  0  0  0  0  0  0  0  0
   10.3867   12.4141   -0.8359 N   0  0  0  0  0  0  0  0  0  0  0  0
   10.2552   12.0895   -2.1331 C   0  0  0  0  0  0  0  0  0  0  0  0
    9.6955   10.9210   -2.4829 N   0  0  0  0  0  0  0  0  0  0  0  0
   10.0989   11.8543    1.5545 N   0  0  0  0  0  0  0  0  0  0  0  0
    8.7044    8.8928   -1.8392 O   0  0  0  0  0  0  0  0  0  0  0  0
  1  2  1  0  0  0  0
  1  6  1  0  0  0  0
  1  8  2  0  0  0  0
  2  3  1  0  0  0  0
  3  4  2  0  0  0  0
  3  7  1  0  0  0  0
  4  5  1  0  0  0  0
  5  6  2  0  0  0  0
M  END
>  <CHROM.1>
9.69930832,10.97144127,-0.92520291,2.33530070,-1.12125832,-1.59440585

>  <Name>
ligand

>  <RI>
0

>  <Rbt.Current_Directory>
/home/itssahil/PROJECTS/Mol_Feturizer/Test_systems_manuscript/rnas/3la5

>  <Rbt.Executable>
rbdock ($Id: //depot/dev/client3/rdock/2013.1/src/exe/rbdock.cxx#4 $)

>  <Rbt.Library>
libRbt.so (2013.1, Build901 2013/11/27)

>  <Rbt.Parameter_File>
/export/apps/rDock/src/rDock_2013.1_src/data/scripts/dock_solv.prm

>  <Rbt.Receptor>
prm/pocket_docking_4.prm

>  <SCORE>
-8.64219

>  <SCORE.INTER>
-8.64219

>  <SCORE.INTER.CONST>
1

>  <SCORE.INTER.POLAR>
0

>  <SCORE.INTER.ROT>
0

>  <SCORE.INTER.SOLV>
8.37343

>  <SCORE.INTER.VDW>
-12.1526

>  <SCORE.INTER.norm>
-1.08027

>  <SCORE.INTRA>
0

>  <SCORE.INTRA.DIHEDRAL>
0

>  <SCORE.INTRA.DIHEDRAL.0>
0

>  <SCORE.INTRA.POLAR>
0

>  <SCORE.INTRA.POLAR.0>
0

>  <SCORE.INTRA.REPUL>
0

>  <SCORE.INTRA.REPUL.0>
0

>  <SCORE.INTRA.SOLV>
0

>  <SCORE.INTRA.SOLV.lig_0>
-29.58

>  <SCORE.INTRA.VDW>
0

>  <SCORE.INTRA.VDW.0>
0

>  <SCORE.INTRA.norm>
0

>  <SCORE.RESTR>
0

>  <SCORE.RESTR.CAVITY>
0

>  <SCORE.RESTR.norm>
0

>  <SCORE.SYSTEM>
0

>  <SCORE.SYSTEM.CONST>
0

>  <SCORE.SYSTEM.DIHEDRAL>
0

>  <SCORE.SYSTEM.SOLV>
0

>  <SCORE.SYSTEM.norm>
0

>  <SCORE.heavy>
8

>  <SCORE.norm>
-1.08027

>  <RMSD>
3.461

$$$$
ligand
 OpenBabel02271912143D
libRbt.so/2013.1/901 2013/11/27
  8  8  0  0  0  0  0  0  0  0999 V2000
    9.2786   10.0764   -1.5228 C   0  0  0  0  0  0  0  0  0  0  0  0
    9.4080   10.3860   -0.2329 N   0  0  0  0  0  0  0  0  0  0  0  0
    9.9664   11.5482    0.1153 C   0  0  0  0  0  0  0  0  0  0  0  0
   10.3850   12.4151   -0.8361 N   0  0  0  0  0  0  0  0  0  0  0  0
   10.2545   12.0890   -2.1330 C   0  0  0  0  0  0  0  0  0  0  0  0
    9.6962   10.9195   -2.4818 N   0  0  0  0  0  0  0  0  0  0  0  0
   10.0968   11.8575    1.5548 N   0  0  0  0  0  0  0  0  0  0  0  0
    8.7070    8.8909   -1.8365 O   0  0  0  0  0  0  0  0  0  0  0  0
  1  2  1  0  0  0  0
  1  6  1  0  0  0  0
  1  8  2  0  0  0  0
  2  3  1  0  0  0  0
  3  4  2  0  0  0  0
  3  7  1  0  0  0  0
  4  5  1  0  0  0  0
  5  6  2  0  0  0  0
M  END
>  <CHROM.1>
9.69926648,10.97158063,-0.92418312,2.33420816,-1.12234418,-1.59643892

>  <Name>
ligand

>  <RI>
0

>  <Rbt.Current_Directory>
/home/itssahil/PROJECTS/Mol_Feturizer/Test_systems_manuscript/rnas/3la5

>  <Rbt.Executable>
rbdock ($Id: //depot/dev/client3/rdock/2013.1/src/exe/rbdock.cxx#4 $)

>  <Rbt.Library>
libRbt.so (2013.1, Build901 2013/11/27)

>  <Rbt.Parameter_File>
/export/apps/rDock/src/rDock_2013.1_src/data/scripts/dock_solv.prm

>  <Rbt.Receptor>
prm/pocket_docking_5.prm

>  <SCORE>
-8.64159

>  <SCORE.INTER>
-8.64159

>  <SCORE.INTER.CONST>
1

>  <SCORE.INTER.POLAR>
0

>  <SCORE.INTER.ROT>
0

>  <SCORE.INTER.SOLV>
8.36925

>  <SCORE.INTER.VDW>
-12.1508

>  <SCORE.INTER.norm>
-1.0802

>  <SCORE.INTRA>
0

>  <SCORE.INTRA.DIHEDRAL>
0

>  <SCORE.INTRA.DIHEDRAL.0>
0

>  <SCORE.INTRA.POLAR>
0

>  <SCORE.INTRA.POLAR.0>
0

>  <SCORE.INTRA.REPUL>
0

>  <SCORE.INTRA.REPUL.0>
0

>  <SCORE.INTRA.SOLV>
0

>  <SCORE.INTRA.SOLV.lig_0>
-29.58

>  <SCORE.INTRA.VDW>
0

>  <SCORE.INTRA.VDW.0>
0

>  <SCORE.INTRA.norm>
0

>  <SCORE.RESTR>
0

>  <SCORE.RESTR.CAVITY>
0

>  <SCORE.RESTR.norm>
0

>  <SCORE.SYSTEM>
0

>  <SCORE.SYSTEM.CONST>
0

>  <SCORE.SYSTEM.DIHEDRAL>
0

>  <SCORE.SYSTEM.SOLV>
0

>  <SCORE.SYSTEM.norm>
0

>  <SCORE.heavy>
8

>  <SCORE.norm>
-1.0802

>  <RMSD>
3.461

$$$$
ligand
 OpenBabel02271912143D
libRbt.so/2013.1/901 2013/11/27
  8  8  0  0  0  0  0  0  0  0999 V2000
    9.2665   10.0685   -1.5178 C   0  0  0  0  0  0  0  0  0  0  0  0
    9.4232   10.3685   -0.2287 N   0  0  0  0  0  0  0  0  0  0  0  0
    9.9910   11.5272    0.1163 C   0  0  0  0  0  0  0  0  0  0  0  0
   10.3914   12.4003   -0.8374 N   0  0  0  0  0  0  0  0  0  0  0  0
   10.2334   12.0837   -2.1336 C   0  0  0  0  0  0  0  0  0  0  0  0
    9.6659   10.9178   -2.4791 N   0  0  0  0  0  0  0  0  0  0  0  0
   10.1517   11.8259    1.5549 N   0  0  0  0  0  0  0  0  0  0  0  0
    8.6864    8.8863   -1.8280 O   0  0  0  0  0  0  0  0  0  0  0  0
  1  2  1  0  0  0  0
  1  6  1  0  0  0  0
  1  8  2  0  0  0  0
  2  3  1  0  0  0  0
  3  4  2  0  0  0  0
  3  7  1  0  0  0  0
  4  5  1  0  0  0  0
  5  6  2  0  0  0  0
M  END
>  <CHROM.1>
9.70123763,10.95861622,-0.92156573,2.38190466,-1.12053347,-1.54626780

>  <Name>
ligand

>  <RI>
0

>  <Rbt.Current_Directory>
/home/itssahil/PROJECTS/Mol_Feturizer/Test_systems_manuscript/rnas/3la5

>  <Rbt.Executable>
rbdock ($Id: //depot/dev/client3/rdock/2013.1/src/exe/rbdock.cxx#4 $)

>  <Rbt.Library>
libRbt.so (2013.1, Build901 2013/11/27)

>  <Rbt.Parameter_File>
/export/apps/rDock/src/rDock_2013.1_src/data/scripts/dock_solv.prm

>  <Rbt.Receptor>
prm/pocket_docking_5.prm

>  <SCORE>
-8.60989

>  <SCORE.INTER>
-8.60989

>  <SCORE.INTER.CONST>
1

>  <SCORE.INTER.POLAR>
0

>  <SCORE.INTER.ROT>
0

>  <SCORE.INTER.SOLV>
8.388

>  <SCORE.INTER.VDW>
-12.1359

>  <SCORE.INTER.norm>
-1.07624

>  <SCORE.INTRA>
0

>  <SCORE.INTRA.DIHEDRAL>
0

>  <SCORE.INTRA.DIHEDRAL.0>
0

>  <SCORE.INTRA.POLAR>
0

>  <SCORE.INTRA.POLAR.0>
0

>  <SCORE.INTRA.REPUL>
0

>  <SCORE.INTRA.REPUL.0>
0

>  <SCORE.INTRA.SOLV>
0

>  <SCORE.INTRA.SOLV.lig_0>
-29.58

>  <SCORE.INTRA.VDW>
0

>  <SCORE.INTRA.VDW.0>
0

>  <SCORE.INTRA.norm>
0

>  <SCORE.RESTR>
0

>  <SCORE.RESTR.CAVITY>
0

>  <SCORE.RESTR.norm>
0

>  <SCORE.SYSTEM>
0

>  <SCORE.SYSTEM.CONST>
0

>  <SCORE.SYSTEM.DIHEDRAL>
0

>  <SCORE.SYSTEM.SOLV>
0

>  <SCORE.SYSTEM.norm>
0

>  <SCORE.heavy>
8

>  <SCORE.norm>
-1.07624

>  <RMSD>
3.461

$$$$
ligand
 OpenBabel02271912143D
libRbt.so/2013.1/901 2013/11/27
  8  8  0  0  0  0  0  0  0  0999 V2000
    9.2825   10.0780   -1.5273 C   0  0  0  0  0  0  0  0  0  0  0  0
    9.4048   10.3884   -0.2369 N   0  0  0  0  0  0  0  0  0  0  0  0
    9.9621   11.5504    0.1137 C   0  0  0  0  0  0  0  0  0  0  0  0
   10.3867   12.4164   -0.8359 N   0  0  0  0  0  0  0  0  0  0  0  0
   10.2633   12.0894   -2.1333 C   0  0  0  0  0  0  0  0  0  0  0  0
    9.7062   10.9201   -2.4845 N   0  0  0  0  0  0  0  0  0  0  0  0
   10.0845   11.8606    1.5537 N   0  0  0  0  0  0  0  0  0  0  0  0
    8.7119    8.8928   -1.8434 O   0  0  0  0  0  0  0  0  0  0  0  0
  1  2  1  0  0  0  0
  1  6  1  0  0  0  0
  1  8  2  0  0  0  0
  2  3  1  0  0  0  0
  3  4  2  0  0  0  0
  3  7  1  0  0  0  0
  4  5  1  0  0  0  0
  5  6  2  0  0  0  0
M  END
>  <CHROM.1>
9.70043531,10.97330496,-0.92688571,2.32117952,-1.12142693,-1.60885587

>  <Name>
ligand

>  <RI>
0

>  <Rbt.Current_Directory>
/home/itssahil/PROJECTS/Mol_Feturizer/Test_systems_manuscript/rnas/3la5

>  <Rbt.Executable>
rbdock ($Id: //depot/dev/client3/rdock/2013.1/src/exe/rbdock.cxx#4 $)

>  <Rbt.Library>
libRbt.so (2013.1, Build901 2013/11/27)

>  <Rbt.Parameter_File>
/export/apps/rDock/src/rDock_2013.1_src/data/scripts/dock_solv.prm

>  <Rbt.Receptor>
prm/pocket_docking_7.prm

>  <SCORE>
-8.63768

>  <SCORE.INTER>
-8.63768

>  <SCORE.INTER.CONST>
1

>  <SCORE.INTER.POLAR>
0

>  <SCORE.INTER.ROT>
0

>  <SCORE.INTER.SOLV>
8.36628

>  <SCORE.INTER.VDW>
-12.1472

>  <SCORE.INTER.norm>
-1.07971

>  <SCORE.INTRA>
0

>  <SCORE.INTRA.DIHEDRAL>
0

>  <SCORE.INTRA.DIHEDRAL.0>
0

>  <SCORE.INTRA.POLAR>
0

>  <SCORE.INTRA.POLAR.0>
0

>  <SCORE.INTRA.REPUL>
0

>  <SCORE.INTRA.REPUL.0>
0

>  <SCORE.INTRA.SOLV>
0

>  <SCORE.INTRA.SOLV.lig_0>
-29.58

>  <SCORE.INTRA.VDW>
0

>  <SCORE.INTRA.VDW.0>
0

>  <SCORE.INTRA.norm>
0

>  <SCORE.RESTR>
0

>  <SCORE.RESTR.CAVITY>
0

>  <SCORE.RESTR.norm>
0

>  <SCORE.SYSTEM>
0

>  <SCORE.SYSTEM.CONST>
0

>  <SCORE.SYSTEM.DIHEDRAL>
0

>  <SCORE.SYSTEM.SOLV>
0

>  <SCORE.SYSTEM.norm>
0

>  <SCORE.heavy>
8

>  <SCORE.norm>
-1.07971

>  <RMSD>
3.461

$$$$
ligand
 OpenBabel02271912143D
libRbt.so/2013.1/901 2013/11/27
  8  8  0  0  0  0  0  0  0  0999 V2000
    9.2770   10.0727   -1.5301 C   0  0  0  0  0  0  0  0  0  0  0  0
    9.4212   10.3699   -0.2389 N   0  0  0  0  0  0  0  0  0  0  0  0
    9.9819   11.5296    0.1141 C   0  0  0  0  0  0  0  0  0  0  0  0
   10.3878   12.4065   -0.8337 N   0  0  0  0  0  0  0  0  0  0  0  0
   10.2424   12.0928   -2.1321 C   0  0  0  0  0  0  0  0  0  0  0  0
    9.6819   10.9258   -2.4856 N   0  0  0  0  0  0  0  0  0  0  0  0
   10.1288   11.8251    1.5549 N   0  0  0  0  0  0  0  0  0  0  0  0
    8.7037    8.8894   -1.8485 O   0  0  0  0  0  0  0  0  0  0  0  0
  1  2  1  0  0  0  0
  1  6  1  0  0  0  0
  1  8  2  0  0  0  0
  2  3  1  0  0  0  0
  3  4  2  0  0  0  0
  3  7  1  0  0  0  0
  4  5  1  0  0  0  0
  5  6  2  0  0  0  0
M  END
>  <CHROM.1>
9.70333000,10.96271814,-0.92774601,2.36156429,-1.12409541,-1.56201022

>  <Name>
ligand

>  <RI>
0

>  <Rbt.Current_Directory>
/home/itssahil/PROJECTS/Mol_Feturizer/Test_systems_manuscript/rnas/3la5

>  <Rbt.Executable>
rbdock ($Id: //depot/dev/client3/rdock/2013.1/src/exe/rbdock.cxx#4 $)

>  <Rbt.Library>
libRbt.so (2013.1, Build901 2013/11/27)

>  <Rbt.Parameter_File>
/export/apps/rDock/src/rDock_2013.1_src/data/scripts/dock_solv.prm

>  <Rbt.Receptor>
prm/pocket_docking_8.prm

>  <SCORE>
-8.62795

>  <SCORE.INTER>
-8.62795

>  <SCORE.INTER.CONST>
1

>  <SCORE.INTER.POLAR>
0

>  <SCORE.INTER.ROT>
0

>  <SCORE.INTER.SOLV>
8.38169

>  <SCORE.INTER.VDW>
-12.1459

>  <SCORE.INTER.norm>
-1.07849

>  <SCORE.INTRA>
0

>  <SCORE.INTRA.DIHEDRAL>
0

>  <SCORE.INTRA.DIHEDRAL.0>
0

>  <SCORE.INTRA.POLAR>
0

>  <SCORE.INTRA.POLAR.0>
0

>  <SCORE.INTRA.REPUL>
0

>  <SCORE.INTRA.REPUL.0>
0

>  <SCORE.INTRA.SOLV>
0

>  <SCORE.INTRA.SOLV.lig_0>
-29.58

>  <SCORE.INTRA.VDW>
0

>  <SCORE.INTRA.VDW.0>
0

>  <SCORE.INTRA.norm>
0

>  <SCORE.RESTR>
0

>  <SCORE.RESTR.CAVITY>
0

>  <SCORE.RESTR.norm>
0

>  <SCORE.SYSTEM>
0

>  <SCORE.SYSTEM.CONST>
0

>  <SCORE.SYSTEM.DIHEDRAL>
0

>  <SCORE.SYSTEM.SOLV>
0

>  <SCORE.SYSTEM.norm>
0

>  <SCORE.heavy>
8

>  <SCORE.norm>
-1.07849

>  <RMSD>
3.461

$$$$
ligand
 OpenBabel02271912143D
libRbt.so/2013.1/901 2013/11/27
  8  8  0  0  0  0  0  0  0  0999 V2000
    9.2788   10.0707   -1.5278 C   0  0  0  0  0  0  0  0  0  0  0  0
    9.4189   10.3721   -0.2371 N   0  0  0  0  0  0  0  0  0  0  0  0
    9.9800   11.5323    0.1138 C   0  0  0  0  0  0  0  0  0  0  0  0
   10.3903   12.4053   -0.8356 N   0  0  0  0  0  0  0  0  0  0  0  0
   10.2490   12.0874   -2.1334 C   0  0  0  0  0  0  0  0  0  0  0  0
    9.6882   10.9199   -2.4849 N   0  0  0  0  0  0  0  0  0  0  0  0
   10.1222   11.8325    1.5541 N   0  0  0  0  0  0  0  0  0  0  0  0
    8.7050    8.8870   -1.8441 O   0  0  0  0  0  0  0  0  0  0  0  0
  1  2  1  0  0  0  0
  1  6  1  0  0  0  0
  1  8  2  0  0  0  0
  2  3  1  0  0  0  0
  3  4  2  0  0  0  0
  3  7  1  0  0  0  0
  4  5  1  0  0  0  0
  5  6  2  0  0  0  0
M  END
>  <CHROM.1>
9.70425617,10.96217351,-0.92702146,2.35349507,-1.12275532,-1.57272996

>  <Name>
ligand

>  <RI>
0

>  <Rbt.Current_Directory>
/home/itssahil/PROJECTS/Mol_Feturizer/Test_systems_manuscript/rnas/3la5

>  <Rbt.Executable>
rbdock ($Id: //depot/dev/client3/rdock/2013.1/src/exe/rbdock.cxx#4 $)

>  <Rbt.Library>
libRbt.so (2013.1, Build901 2013/11/27)

>  <Rbt.Parameter_File>
/export/apps/rDock/src/rDock_2013.1_src/data/scripts/dock_solv.prm

>  <Rbt.Receptor>
prm/blind_docking_20.prm

>  <SCORE>
-8.63116

>  <SCORE.INTER>
-8.63116

>  <SCORE.INTER.CONST>
1

>  <SCORE.INTER.POLAR>
0

>  <SCORE.INTER.ROT>
0

>  <SCORE.INTER.SOLV>
8.37633

>  <SCORE.INTER.VDW>
-12.1462

>  <SCORE.INTER.norm>
-1.0789

>  <SCORE.INTRA>
0

>  <SCORE.INTRA.DIHEDRAL>
0

>  <SCORE.INTRA.DIHEDRAL.0>
0

>  <SCORE.INTRA.POLAR>
0

>  <SCORE.INTRA.POLAR.0>
0

>  <SCORE.INTRA.REPUL>
0

>  <SCORE.INTRA.REPUL.0>
0

>  <SCORE.INTRA.SOLV>
0

>  <SCORE.INTRA.SOLV.lig_0>
-29.58

>  <SCORE.INTRA.VDW>
0

>  <SCORE.INTRA.VDW.0>
0

>  <SCORE.INTRA.norm>
0

>  <SCORE.RESTR>
0

>  <SCORE.RESTR.CAVITY>
0

>  <SCORE.RESTR.norm>
0

>  <SCORE.SYSTEM>
0

>  <SCORE.SYSTEM.CONST>
0

>  <SCORE.SYSTEM.DIHEDRAL>
0

>  <SCORE.SYSTEM.SOLV>
0

>  <SCORE.SYSTEM.norm>
0

>  <SCORE.heavy>
8

>  <SCORE.norm>
-1.0789

>  <RMSD>
3.462

$$$$
ligand
 OpenBabel02271912143D
libRbt.so/2013.1/901 2013/11/27
  8  8  0  0  0  0  0  0  0  0999 V2000
    9.2507   10.0848   -1.5080 C   0  0  0  0  0  0  0  0  0  0  0  0
    9.2909   10.4127   -0.2168 N   0  0  0  0  0  0  0  0  0  0  0  0
    9.8238   11.5804    0.1526 C   0  0  0  0  0  0  0  0  0  0  0  0
   10.3067   12.4343   -0.7799 N   0  0  0  0  0  0  0  0  0  0  0  0
   10.2658   12.0897   -2.0780 C   0  0  0  0  0  0  0  0  0  0  0  0
    9.7332   10.9147   -2.4478 N   0  0  0  0  0  0  0  0  0  0  0  0
    9.8546   11.9101    1.5931 N   0  0  0  0  0  0  0  0  0  0  0  0
    8.7023    8.8943   -1.8434 O   0  0  0  0  0  0  0  0  0  0  0  0
  1  2  1  0  0  0  0
  1  6  1  0  0  0  0
  1  8  2  0  0  0  0
  2  3  1  0  0  0  0
  3  4  2  0  0  0  0
  3  7  1  0  0  0  0
  4  5  1  0  0  0  0
  5  6  2  0  0  0  0
M  END
>  <CHROM.1>
9.62892866,10.98881654,-0.89454865,2.17686560,-1.11590989,-1.75221884

>  <Name>
ligand

>  <RI>
0

>  <Rbt.Current_Directory>
/home/itssahil/PROJECTS/Mol_Feturizer/Test_systems_manuscript/rnas/3la5

>  <Rbt.Executable>
rbdock ($Id: //depot/dev/client3/rdock/2013.1/src/exe/rbdock.cxx#4 $)

>  <Rbt.Library>
libRbt.so (2013.1, Build901 2013/11/27)

>  <Rbt.Parameter_File>
/export/apps/rDock/src/rDock_2013.1_src/data/scripts/dock_solv.prm

>  <Rbt.Receptor>
prm/blind_docking_20.prm

>  <SCORE>
-8.59764

>  <SCORE.INTER>
-8.59764

>  <SCORE.INTER.CONST>
1

>  <SCORE.INTER.POLAR>
0

>  <SCORE.INTER.ROT>
0

>  <SCORE.INTER.SOLV>
8.66519

>  <SCORE.INTER.VDW>
-12.2202

>  <SCORE.INTER.norm>
-1.07471

>  <SCORE.INTRA>
0

>  <SCORE.INTRA.DIHEDRAL>
0

>  <SCORE.INTRA.DIHEDRAL.0>
0

>  <SCORE.INTRA.POLAR>
0

>  <SCORE.INTRA.POLAR.0>
0

>  <SCORE.INTRA.REPUL>
0

>  <SCORE.INTRA.REPUL.0>
0

>  <SCORE.INTRA.SOLV>
0

>  <SCORE.INTRA.SOLV.lig_0>
-29.58

>  <SCORE.INTRA.VDW>
0

>  <SCORE.INTRA.VDW.0>
0

>  <SCORE.INTRA.norm>
0

>  <SCORE.RESTR>
0

>  <SCORE.RESTR.CAVITY>
0

>  <SCORE.RESTR.norm>
0

>  <SCORE.SYSTEM>
0

>  <SCORE.SYSTEM.CONST>
0

>  <SCORE.SYSTEM.DIHEDRAL>
0

>  <SCORE.SYSTEM.SOLV>
0

>  <SCORE.SYSTEM.norm>
0

>  <SCORE.heavy>
8

>  <SCORE.norm>
-1.07471

>  <RMSD>
3.462

$$$$
ligand
 OpenBabel02271912143D
libRbt.so/2013.1/901 2013/11/27
  8  8  0  0  0  0  0  0  0  0999 V2000
    9.2785   10.0758   -1.5255 C   0  0  0  0  0  0  0  0  0  0  0  0
    9.4067   10.3862   -0.2357 N   0  0  0  0  0  0  0  0  0  0  0  0
    9.9684   11.5469    0.1124 C   0  0  0  0  0  0  0  0  0  0  0  0
   10.3915   12.4115   -0.8391 N   0  0  0  0  0  0  0  0  0  0  0  0
   10.2622   12.0845   -2.1359 C   0  0  0  0  0  0  0  0  0  0  0  0
    9.7007   10.9165   -2.4845 N   0  0  0  0  0  0  0  0  0  0  0  0
   10.0972   11.8571    1.5518 N   0  0  0  0  0  0  0  0  0  0  0  0
    8.7036    8.8919   -1.8390 O   0  0  0  0  0  0  0  0  0  0  0  0
  1  2  1  0  0  0  0
  1  6  1  0  0  0  0
  1  8  2  0  0  0  0
  2  3  1  0  0  0  0
  3  4  2  0  0  0  0
  3  7  1  0  0  0  0
  4  5  1  0  0  0  0
  5  6  2  0  0  0  0
M  END
>  <CHROM.1>
9.70113581,10.97014016,-0.92698013,2.33037610,-1.11897179,-1.60085690

>  <Name>
ligand

>  <RI>
0

>  <Rbt.Current_Directory>
/home/itssahil/PROJECTS/Mol_Feturizer/Test_systems_manuscript/rnas/3la5

>  <Rbt.Executable>
rbdock ($Id: //depot/dev/client3/rdock/2013.1/src/exe/rbdock.cxx#4 $)

>  <Rbt.Library>
libRbt.so (2013.1, Build901 2013/11/27)

>  <Rbt.Parameter_File>
/export/apps/rDock/src/rDock_2013.1_src/data/scripts/dock_solv.prm

>  <Rbt.Receptor>
prm/blind_docking_80.prm

>  <SCORE>
-8.64061

>  <SCORE.INTER>
-8.64061

>  <SCORE.INTER.CONST>
1

>  <SCORE.INTER.POLAR>
0

>  <SCORE.INTER.ROT>
0

>  <SCORE.INTER.SOLV>
8.36853

>  <SCORE.INTER.VDW>
-12.1499

>  <SCORE.INTER.norm>
-1.08008

>  <SCORE.INTRA>
0

>  <SCORE.INTRA.DIHEDRAL>
0

>  <SCORE.INTRA.DIHEDRAL.0>
0

>  <SCORE.INTRA.POLAR>
0

>  <SCORE.INTRA.POLAR.0>
0

>  <SCORE.INTRA.REPUL>
0

>  <SCORE.INTRA.REPUL.0>
0

>  <SCORE.INTRA.SOLV>
0

>  <SCORE.INTRA.SOLV.lig_0>
-29.58

>  <SCORE.INTRA.VDW>
0

>  <SCORE.INTRA.VDW.0>
0

>  <SCORE.INTRA.norm>
0

>  <SCORE.RESTR>
0

>  <SCORE.RESTR.CAVITY>
0

>  <SCORE.RESTR.norm>
0

>  <SCORE.SYSTEM>
0

>  <SCORE.SYSTEM.CONST>
0

>  <SCORE.SYSTEM.DIHEDRAL>
0

>  <SCORE.SYSTEM.SOLV>
0

>  <SCORE.SYSTEM.norm>
0

>  <SCORE.heavy>
8

>  <SCORE.norm>
-1.08008

>  <RMSD>
3.462

$$$$
ligand
 OpenBabel02271912143D
libRbt.so/2013.1/901 2013/11/27
  8  8  0  0  0  0  0  0  0  0999 V2000
    9.2727   10.0799   -1.5266 C   0  0  0  0  0  0  0  0  0  0  0  0
    9.4065   10.3864   -0.2365 N   0  0  0  0  0  0  0  0  0  0  0  0
    9.9634   11.5492    0.1126 C   0  0  0  0  0  0  0  0  0  0  0  0
   10.3760   12.4196   -0.8382 N   0  0  0  0  0  0  0  0  0  0  0  0
   10.2410   12.0966   -2.1354 C   0  0  0  0  0  0  0  0  0  0  0  0
    9.6844   10.9266   -2.4850 N   0  0  0  0  0  0  0  0  0  0  0  0
   10.0987   11.8550    1.5524 N   0  0  0  0  0  0  0  0  0  0  0  0
    8.7029    8.8938   -1.8411 O   0  0  0  0  0  0  0  0  0  0  0  0
  1  2  1  0  0  0  0
  1  6  1  0  0  0  0
  1  8  2  0  0  0  0
  2  3  1  0  0  0  0
  3  4  2  0  0  0  0
  3  7  1  0  0  0  0
  4  5  1  0  0  0  0
  5  6  2  0  0  0  0
M  END
>  <CHROM.1>
9.69353718,10.97459198,-0.92731802,2.34338198,-1.12496801,-1.58552510

>  <Name>
ligand

>  <RI>
0

>  <Rbt.Current_Directory>
/home/itssahil/PROJECTS/Mol_Feturizer/Test_systems_manuscript/rnas/3la5

>  <Rbt.Executable>
rbdock ($Id: //depot/dev/client3/rdock/2013.1/src/exe/rbdock.cxx#4 $)

>  <Rbt.Library>
libRbt.so (2013.1, Build901 2013/11/27)

>  <Rbt.Parameter_File>
/export/apps/rDock/src/rDock_2013.1_src/data/scripts/dock_solv.prm

>  <Rbt.Receptor>
prm/pocket_docking_7.prm

>  <SCORE>
-8.63844

>  <SCORE.INTER>
-8.63844

>  <SCORE.INTER.CONST>
1

>  <SCORE.INTER.POLAR>
0

>  <SCORE.INTER.ROT>
0

>  <SCORE.INTER.SOLV>
8.37345

>  <SCORE.INTER.VDW>
-12.1501

>  <SCORE.INTER.norm>
-1.0798

>  <SCORE.INTRA>
0

>  <SCORE.INTRA.DIHEDRAL>
0

>  <SCORE.INTRA.DIHEDRAL.0>
0

>  <SCORE.INTRA.POLAR>
0

>  <SCORE.INTRA.POLAR.0>
0

>  <SCORE.INTRA.REPUL>
0

>  <SCORE.INTRA.REPUL.0>
0

>  <SCORE.INTRA.SOLV>
0

>  <SCORE.INTRA.SOLV.lig_0>
-29.58

>  <SCORE.INTRA.VDW>
0

>  <SCORE.INTRA.VDW.0>
0

>  <SCORE.INTRA.norm>
0

>  <SCORE.RESTR>
0

>  <SCORE.RESTR.CAVITY>
0

>  <SCORE.RESTR.norm>
0

>  <SCORE.SYSTEM>
0

>  <SCORE.SYSTEM.CONST>
0

>  <SCORE.SYSTEM.DIHEDRAL>
0

>  <SCORE.SYSTEM.SOLV>
0

>  <SCORE.SYSTEM.norm>
0

>  <SCORE.heavy>
8

>  <SCORE.norm>
-1.0798

>  <RMSD>
3.462

$$$$
ligand
 OpenBabel02271912143D
libRbt.so/2013.1/901 2013/11/27
  8  8  0  0  0  0  0  0  0  0999 V2000
    9.2787   10.0745   -1.5244 C   0  0  0  0  0  0  0  0  0  0  0  0
    9.4072   10.3847   -0.2346 N   0  0  0  0  0  0  0  0  0  0  0  0
    9.9671   11.5463    0.1135 C   0  0  0  0  0  0  0  0  0  0  0  0
   10.3880   12.4119   -0.8381 N   0  0  0  0  0  0  0  0  0  0  0  0
   10.2584   12.0851   -2.1349 C   0  0  0  0  0  0  0  0  0  0  0  0
    9.6987   10.9162   -2.4835 N   0  0  0  0  0  0  0  0  0  0  0  0
   10.0964   11.8564    1.5528 N   0  0  0  0  0  0  0  0  0  0  0  0
    8.7057    8.8896   -1.8378 O   0  0  0  0  0  0  0  0  0  0  0  0
  1  2  1  0  0  0  0
  1  6  1  0  0  0  0
  1  8  2  0  0  0  0
  2  3  1  0  0  0  0
  3  4  2  0  0  0  0
  3  7  1  0  0  0  0
  4  5  1  0  0  0  0
  5  6  2  0  0  0  0
M  END
>  <CHROM.1>
9.70015241,10.96940731,-0.92592007,2.33183916,-1.12077475,-1.59926928

>  <Name>
ligand

>  <RI>
0

>  <Rbt.Current_Directory>
/home/itssahil/PROJECTS/Mol_Feturizer/Test_systems_manuscript/rnas/3la5

>  <Rbt.Executable>
rbdock ($Id: //depot/dev/client3/rdock/2013.1/src/exe/rbdock.cxx#4 $)

>  <Rbt.Library>
libRbt.so (2013.1, Build901 2013/11/27)

>  <Rbt.Parameter_File>
/export/apps/rDock/src/rDock_2013.1_src/data/scripts/dock_solv.prm

>  <Rbt.Receptor>
prm/pocket_docking_7.prm

>  <SCORE>
-8.64033

>  <SCORE.INTER>
-8.64033

>  <SCORE.INTER.CONST>
1

>  <SCORE.INTER.POLAR>
0

>  <SCORE.INTER.ROT>
0

>  <SCORE.INTER.SOLV>
8.36914

>  <SCORE.INTER.VDW>
-12.1499

>  <SCORE.INTER.norm>
-1.08004

>  <SCORE.INTRA>
0

>  <SCORE.INTRA.DIHEDRAL>
0

>  <SCORE.INTRA.DIHEDRAL.0>
0

>  <SCORE.INTRA.POLAR>
0

>  <SCORE.INTRA.POLAR.0>
0

>  <SCORE.INTRA.REPUL>
0

>  <SCORE.INTRA.REPUL.0>
0

>  <SCORE.INTRA.SOLV>
0

>  <SCORE.INTRA.SOLV.lig_0>
-29.58

>  <SCORE.INTRA.VDW>
0

>  <SCORE.INTRA.VDW.0>
0

>  <SCORE.INTRA.norm>
0

>  <SCORE.RESTR>
0

>  <SCORE.RESTR.CAVITY>
0

>  <SCORE.RESTR.norm>
0

>  <SCORE.SYSTEM>
0

>  <SCORE.SYSTEM.CONST>
0

>  <SCORE.SYSTEM.DIHEDRAL>
0

>  <SCORE.SYSTEM.SOLV>
0

>  <SCORE.SYSTEM.norm>
0

>  <SCORE.heavy>
8

>  <SCORE.norm>
-1.08004

>  <RMSD>
3.462

$$$$
ligand
 OpenBabel02271912143D
libRbt.so/2013.1/901 2013/11/27
  8  8  0  0  0  0  0  0  0  0999 V2000
    9.2804   10.0687   -1.5293 C   0  0  0  0  0  0  0  0  0  0  0  0
    9.4373   10.3654   -0.2395 N   0  0  0  0  0  0  0  0  0  0  0  0
    9.9992   11.5262    0.1084 C   0  0  0  0  0  0  0  0  0  0  0  0
   10.3934   12.4044   -0.8430 N   0  0  0  0  0  0  0  0  0  0  0  0
   10.2353   12.0912   -2.1401 C   0  0  0  0  0  0  0  0  0  0  0  0
    9.6736   10.9232   -2.4885 N   0  0  0  0  0  0  0  0  0  0  0  0
   10.1603   11.8211    1.5477 N   0  0  0  0  0  0  0  0  0  0  0  0
    8.7063    8.8844   -1.8425 O   0  0  0  0  0  0  0  0  0  0  0  0
  1  2  1  0  0  0  0
  1  6  1  0  0  0  0
  1  8  2  0  0  0  0
  2  3  1  0  0  0  0
  3  4  2  0  0  0  0
  3  7  1  0  0  0  0
  4  5  1  0  0  0  0
  5  6  2  0  0  0  0
M  END
>  <CHROM.1>
9.71105094,10.95926374,-0.93088764,2.38558750,-1.12598894,-1.53973863

>  <Name>
ligand

>  <RI>
0

>  <Rbt.Current_Directory>
/home/itssahil/PROJECTS/Mol_Feturizer/Test_systems_manuscript/rnas/3la5

>  <Rbt.Executable>
rbdock ($Id: //depot/dev/client3/rdock/2013.1/src/exe/rbdock.cxx#4 $)

>  <Rbt.Library>
libRbt.so (2013.1, Build901 2013/11/27)

>  <Rbt.Parameter_File>
/export/apps/rDock/src/rDock_2013.1_src/data/scripts/dock_solv.prm

>  <Rbt.Receptor>
prm/pocket_docking_7.prm

>  <SCORE>
-8.6175

>  <SCORE.INTER>
-8.6175

>  <SCORE.INTER.CONST>
1

>  <SCORE.INTER.POLAR>
0

>  <SCORE.INTER.ROT>
0

>  <SCORE.INTER.SOLV>
8.34925

>  <SCORE.INTER.VDW>
-12.1281

>  <SCORE.INTER.norm>
-1.07719

>  <SCORE.INTRA>
0

>  <SCORE.INTRA.DIHEDRAL>
0

>  <SCORE.INTRA.DIHEDRAL.0>
0

>  <SCORE.INTRA.POLAR>
0

>  <SCORE.INTRA.POLAR.0>
0

>  <SCORE.INTRA.REPUL>
0

>  <SCORE.INTRA.REPUL.0>
0

>  <SCORE.INTRA.SOLV>
0

>  <SCORE.INTRA.SOLV.lig_0>
-29.58

>  <SCORE.INTRA.VDW>
0

>  <SCORE.INTRA.VDW.0>
0

>  <SCORE.INTRA.norm>
0

>  <SCORE.RESTR>
0

>  <SCORE.RESTR.CAVITY>
0

>  <SCORE.RESTR.norm>
0

>  <SCORE.SYSTEM>
0

>  <SCORE.SYSTEM.CONST>
0

>  <SCORE.SYSTEM.DIHEDRAL>
0

>  <SCORE.SYSTEM.SOLV>
0

>  <SCORE.SYSTEM.norm>
0

>  <SCORE.heavy>
8

>  <SCORE.norm>
-1.07719

>  <RMSD>
3.462

$$$$
ligand
 OpenBabel02271912143D
libRbt.so/2013.1/901 2013/11/27
  8  8  0  0  0  0  0  0  0  0999 V2000
    9.2638   10.1121   -1.5179 C   0  0  0  0  0  0  0  0  0  0  0  0
    9.3842   10.4507   -0.2344 N   0  0  0  0  0  0  0  0  0  0  0  0
    9.9599   11.6108    0.0922 C   0  0  0  0  0  0  0  0  0  0  0  0
   10.4052   12.4465   -0.8749 N   0  0  0  0  0  0  0  0  0  0  0  0
   10.2834   12.0912   -2.1650 C   0  0  0  0  0  0  0  0  0  0  0  0
    9.7078   10.9238   -2.4919 N   0  0  0  0  0  0  0  0  0  0  0  0
   10.0795   11.9527    1.5252 N   0  0  0  0  0  0  0  0  0  0  0  0
    8.6742    8.9299   -1.8095 O   0  0  0  0  0  0  0  0  0  0  0  0
  1  2  1  0  0  0  0
  1  6  1  0  0  0  0
  1  8  2  0  0  0  0
  2  3  1  0  0  0  0
  3  4  2  0  0  0  0
  3  7  1  0  0  0  0
  4  5  1  0  0  0  0
  5  6  2  0  0  0  0
M  END
>  <CHROM.1>
9.69403198,11.01387198,-0.93610998,2.30995587,-1.10354153,-1.64250393

>  <Name>
ligand

>  <RI>
0

>  <Rbt.Current_Directory>
/home/itssahil/PROJECTS/Mol_Feturizer/Test_systems_manuscript/rnas/3la5

>  <Rbt.Executable>
rbdock ($Id: //depot/dev/client3/rdock/2013.1/src/exe/rbdock.cxx#4 $)

>  <Rbt.Library>
libRbt.so (2013.1, Build901 2013/11/27)

>  <Rbt.Parameter_File>
/export/apps/rDock/src/rDock_2013.1_src/data/scripts/dock_solv.prm

>  <Rbt.Receptor>
prm/blind_docking_20.prm

>  <SCORE>
-8.61384

>  <SCORE.INTER>
-8.61384

>  <SCORE.INTER.CONST>
1

>  <SCORE.INTER.POLAR>
0

>  <SCORE.INTER.ROT>
0

>  <SCORE.INTER.SOLV>
8.36556

>  <SCORE.INTER.VDW>
-12.1311

>  <SCORE.INTER.norm>
-1.07673

>  <SCORE.INTRA>
0

>  <SCORE.INTRA.DIHEDRAL>
0

>  <SCORE.INTRA.DIHEDRAL.0>
0

>  <SCORE.INTRA.POLAR>
0

>  <SCORE.INTRA.POLAR.0>
0

>  <SCORE.INTRA.REPUL>
0

>  <SCORE.INTRA.REPUL.0>
0

>  <SCORE.INTRA.SOLV>
0

>  <SCORE.INTRA.SOLV.lig_0>
-29.58

>  <SCORE.INTRA.VDW>
0

>  <SCORE.INTRA.VDW.0>
0

>  <SCORE.INTRA.norm>
0

>  <SCORE.RESTR>
0

>  <SCORE.RESTR.CAVITY>
0

>  <SCORE.RESTR.norm>
0

>  <SCORE.SYSTEM>
0

>  <SCORE.SYSTEM.CONST>
0

>  <SCORE.SYSTEM.DIHEDRAL>
0

>  <SCORE.SYSTEM.SOLV>
0

>  <SCORE.SYSTEM.norm>
0

>  <SCORE.heavy>
8

>  <SCORE.norm>
-1.07673

>  <RMSD>
3.463

$$$$
ligand
 OpenBabel02271912143D
libRbt.so/2013.1/901 2013/11/27
  8  8  0  0  0  0  0  0  0  0999 V2000
    9.2499   10.0867   -1.5103 C   0  0  0  0  0  0  0  0  0  0  0  0
    9.2876   10.4148   -0.2190 N   0  0  0  0  0  0  0  0  0  0  0  0
    9.8177   11.5835    0.1510 C   0  0  0  0  0  0  0  0  0  0  0  0
   10.3005   12.4382   -0.7809 N   0  0  0  0  0  0  0  0  0  0  0  0
   10.2622   12.0934   -2.0790 C   0  0  0  0  0  0  0  0  0  0  0  0
    9.7323   10.9174   -2.4494 N   0  0  0  0  0  0  0  0  0  0  0  0
    9.8458   11.9135    1.5915 N   0  0  0  0  0  0  0  0  0  0  0  0
    8.7042    8.8952   -1.8463 O   0  0  0  0  0  0  0  0  0  0  0  0
  1  2  1  0  0  0  0
  1  6  1  0  0  0  0
  1  8  2  0  0  0  0
  2  3  1  0  0  0  0
  3  4  2  0  0  0  0
  3  7  1  0  0  0  0
  4  5  1  0  0  0  0
  5  6  2  0  0  0  0
M  END
>  <CHROM.1>
9.62557359,10.99149573,-0.89636474,2.17275780,-1.11743705,-1.75603706

>  <Name>
ligand

>  <RI>
0

>  <Rbt.Current_Directory>
/home/itssahil/PROJECTS/Mol_Feturizer/Test_systems_manuscript/rnas/3la5

>  <Rbt.Executable>
rbdock ($Id: //depot/dev/client3/rdock/2013.1/src/exe/rbdock.cxx#4 $)

>  <Rbt.Library>
libRbt.so (2013.1, Build901 2013/11/27)

>  <Rbt.Parameter_File>
/export/apps/rDock/src/rDock_2013.1_src/data/scripts/dock_solv.prm

>  <Rbt.Receptor>
prm/blind_docking_20.prm

>  <SCORE>
-8.59366

>  <SCORE.INTER>
-8.59366

>  <SCORE.INTER.CONST>
1

>  <SCORE.INTER.POLAR>
0

>  <SCORE.INTER.ROT>
0

>  <SCORE.INTER.SOLV>
8.67058

>  <SCORE.INTER.VDW>
-12.2193

>  <SCORE.INTER.norm>
-1.07421

>  <SCORE.INTRA>
0

>  <SCORE.INTRA.DIHEDRAL>
0

>  <SCORE.INTRA.DIHEDRAL.0>
0

>  <SCORE.INTRA.POLAR>
0

>  <SCORE.INTRA.POLAR.0>
0

>  <SCORE.INTRA.REPUL>
0

>  <SCORE.INTRA.REPUL.0>
0

>  <SCORE.INTRA.SOLV>
0

>  <SCORE.INTRA.SOLV.lig_0>
-29.58

>  <SCORE.INTRA.VDW>
0

>  <SCORE.INTRA.VDW.0>
0

>  <SCORE.INTRA.norm>
0

>  <SCORE.RESTR>
0

>  <SCORE.RESTR.CAVITY>
0

>  <SCORE.RESTR.norm>
0

>  <SCORE.SYSTEM>
0

>  <SCORE.SYSTEM.CONST>
0

>  <SCORE.SYSTEM.DIHEDRAL>
0

>  <SCORE.SYSTEM.SOLV>
0

>  <SCORE.SYSTEM.norm>
0

>  <SCORE.heavy>
8

>  <SCORE.norm>
-1.07421

>  <RMSD>
3.463

$$$$
ligand
 OpenBabel02271912143D
libRbt.so/2013.1/901 2013/11/27
  8  8  0  0  0  0  0  0  0  0999 V2000
    9.2798   10.0751   -1.5175 C   0  0  0  0  0  0  0  0  0  0  0  0
    9.4308   10.3917   -0.2317 N   0  0  0  0  0  0  0  0  0  0  0  0
    9.9909   11.5577    0.1008 C   0  0  0  0  0  0  0  0  0  0  0  0
   10.3895   12.4212   -0.8623 N   0  0  0  0  0  0  0  0  0  0  0  0
   10.2373   12.0880   -2.1550 C   0  0  0  0  0  0  0  0  0  0  0  0
    9.6774   10.9147   -2.4879 N   0  0  0  0  0  0  0  0  0  0  0  0
   10.1454   11.8749    1.5361 N   0  0  0  0  0  0  0  0  0  0  0  0
    8.7072    8.8859   -1.8150 O   0  0  0  0  0  0  0  0  0  0  0  0
  1  2  1  0  0  0  0
  1  6  1  0  0  0  0
  1  8  2  0  0  0  0
  2  3  1  0  0  0  0
  3  4  2  0  0  0  0
  3  7  1  0  0  0  0
  4  5  1  0  0  0  0
  5  6  2  0  0  0  0
M  END
>  <CHROM.1>
9.70764229,10.97479992,-0.93090926,2.37493605,-1.12618618,-1.56480089

>  <Name>
ligand

>  <RI>
0

>  <Rbt.Current_Directory>
/home/itssahil/PROJECTS/Mol_Feturizer/Test_systems_manuscript/rnas/3la5

>  <Rbt.Executable>
rbdock ($Id: //depot/dev/client3/rdock/2013.1/src/exe/rbdock.cxx#4 $)

>  <Rbt.Library>
libRbt.so (2013.1, Build901 2013/11/27)

>  <Rbt.Parameter_File>
/export/apps/rDock/src/rDock_2013.1_src/data/scripts/dock_solv.prm

>  <Rbt.Receptor>
prm/blind_docking_20.prm

>  <SCORE>
-8.58509

>  <SCORE.INTER>
-8.58509

>  <SCORE.INTER.CONST>
1

>  <SCORE.INTER.POLAR>
0

>  <SCORE.INTER.ROT>
0

>  <SCORE.INTER.SOLV>
8.29553

>  <SCORE.INTER.VDW>
-12.0886

>  <SCORE.INTER.norm>
-1.07314

>  <SCORE.INTRA>
0

>  <SCORE.INTRA.DIHEDRAL>
0

>  <SCORE.INTRA.DIHEDRAL.0>
0

>  <SCORE.INTRA.POLAR>
0

>  <SCORE.INTRA.POLAR.0>
0

>  <SCORE.INTRA.REPUL>
0

>  <SCORE.INTRA.REPUL.0>
0

>  <SCORE.INTRA.SOLV>
0

>  <SCORE.INTRA.SOLV.lig_0>
-29.58

>  <SCORE.INTRA.VDW>
0

>  <SCORE.INTRA.VDW.0>
0

>  <SCORE.INTRA.norm>
0

>  <SCORE.RESTR>
0

>  <SCORE.RESTR.CAVITY>
0

>  <SCORE.RESTR.norm>
0

>  <SCORE.SYSTEM>
0

>  <SCORE.SYSTEM.CONST>
0

>  <SCORE.SYSTEM.DIHEDRAL>
0

>  <SCORE.SYSTEM.SOLV>
0

>  <SCORE.SYSTEM.norm>
0

>  <SCORE.heavy>
8

>  <SCORE.norm>
-1.07314

>  <RMSD>
3.463

$$$$
ligand
 OpenBabel02271912143D
libRbt.so/2013.1/901 2013/11/27
  8  8  0  0  0  0  0  0  0  0999 V2000
    9.2781   10.0752   -1.5271 C   0  0  0  0  0  0  0  0  0  0  0  0
    9.4072   10.3847   -0.2372 N   0  0  0  0  0  0  0  0  0  0  0  0
    9.9687   11.5455    0.1112 C   0  0  0  0  0  0  0  0  0  0  0  0
   10.3907   12.4109   -0.8401 N   0  0  0  0  0  0  0  0  0  0  0  0
   10.2604   12.0847   -2.1370 C   0  0  0  0  0  0  0  0  0  0  0  0
    9.6991   10.9167   -2.4859 N   0  0  0  0  0  0  0  0  0  0  0  0
   10.0986   11.8548    1.5507 N   0  0  0  0  0  0  0  0  0  0  0  0
    8.7034    8.8913   -1.8410 O   0  0  0  0  0  0  0  0  0  0  0  0
  1  2  1  0  0  0  0
  1  6  1  0  0  0  0
  1  8  2  0  0  0  0
  2  3  1  0  0  0  0
  3  4  2  0  0  0  0
  3  7  1  0  0  0  0
  4  5  1  0  0  0  0
  5  6  2  0  0  0  0
M  END
>  <CHROM.1>
9.70080734,10.96930430,-0.92834403,2.33227074,-1.11942546,-1.59846728

>  <Name>
ligand

>  <RI>
0

>  <Rbt.Current_Directory>
/home/itssahil/PROJECTS/Mol_Feturizer/Test_systems_manuscript/rnas/3la5

>  <Rbt.Executable>
rbdock ($Id: //depot/dev/client3/rdock/2013.1/src/exe/rbdock.cxx#4 $)

>  <Rbt.Library>
libRbt.so (2013.1, Build901 2013/11/27)

>  <Rbt.Parameter_File>
/export/apps/rDock/src/rDock_2013.1_src/data/scripts/dock_solv.prm

>  <Rbt.Receptor>
prm/pocket_docking_4.prm

>  <SCORE>
-8.63921

>  <SCORE.INTER>
-8.63921

>  <SCORE.INTER.CONST>
1

>  <SCORE.INTER.POLAR>
0

>  <SCORE.INTER.ROT>
0

>  <SCORE.INTER.SOLV>
8.36876

>  <SCORE.INTER.VDW>
-12.1491

>  <SCORE.INTER.norm>
-1.0799

>  <SCORE.INTRA>
0

>  <SCORE.INTRA.DIHEDRAL>
0

>  <SCORE.INTRA.DIHEDRAL.0>
0

>  <SCORE.INTRA.POLAR>
0

>  <SCORE.INTRA.POLAR.0>
0

>  <SCORE.INTRA.REPUL>
0

>  <SCORE.INTRA.REPUL.0>
0

>  <SCORE.INTRA.SOLV>
0

>  <SCORE.INTRA.SOLV.lig_0>
-29.58

>  <SCORE.INTRA.VDW>
0

>  <SCORE.INTRA.VDW.0>
0

>  <SCORE.INTRA.norm>
0

>  <SCORE.RESTR>
0

>  <SCORE.RESTR.CAVITY>
0

>  <SCORE.RESTR.norm>
0

>  <SCORE.SYSTEM>
0

>  <SCORE.SYSTEM.CONST>
0

>  <SCORE.SYSTEM.DIHEDRAL>
0

>  <SCORE.SYSTEM.SOLV>
0

>  <SCORE.SYSTEM.norm>
0

>  <SCORE.heavy>
8

>  <SCORE.norm>
-1.0799

>  <RMSD>
3.463

$$$$
ligand
 OpenBabel02271912143D
libRbt.so/2013.1/901 2013/11/27
  8  8  0  0  0  0  0  0  0  0999 V2000
    9.2569   10.0803   -1.5097 C   0  0  0  0  0  0  0  0  0  0  0  0
    9.2926   10.4102   -0.2189 N   0  0  0  0  0  0  0  0  0  0  0  0
    9.8290   11.5762    0.1510 C   0  0  0  0  0  0  0  0  0  0  0  0
   10.3200   12.4263   -0.7807 N   0  0  0  0  0  0  0  0  0  0  0  0
   10.2837   12.0797   -2.0784 C   0  0  0  0  0  0  0  0  0  0  0  0
    9.7475   10.9065   -2.4487 N   0  0  0  0  0  0  0  0  0  0  0  0
    9.8546   11.9082    1.5911 N   0  0  0  0  0  0  0  0  0  0  0  0
    8.7048    8.8917   -1.8457 O   0  0  0  0  0  0  0  0  0  0  0  0
  1  2  1  0  0  0  0
  1  6  1  0  0  0  0
  1  8  2  0  0  0  0
  2  3  1  0  0  0  0
  3  4  2  0  0  0  0
  3  7  1  0  0  0  0
  4  5  1  0  0  0  0
  5  6  2  0  0  0  0
M  END
>  <CHROM.1>
9.63635241,10.98369611,-0.89605508,2.16839642,-1.11065457,-1.76150300

>  <Name>
ligand

>  <RI>
0

>  <Rbt.Current_Directory>
/home/itssahil/PROJECTS/Mol_Feturizer/Test_systems_manuscript/rnas/3la5

>  <Rbt.Executable>
rbdock ($Id: //depot/dev/client3/rdock/2013.1/src/exe/rbdock.cxx#4 $)

>  <Rbt.Library>
libRbt.so (2013.1, Build901 2013/11/27)

>  <Rbt.Parameter_File>
/export/apps/rDock/src/rDock_2013.1_src/data/scripts/dock_solv.prm

>  <Rbt.Receptor>
prm/pocket_docking_7.prm

>  <SCORE>
-8.59222

>  <SCORE.INTER>
-8.59222

>  <SCORE.INTER.CONST>
1

>  <SCORE.INTER.POLAR>
0

>  <SCORE.INTER.ROT>
0

>  <SCORE.INTER.SOLV>
8.65694

>  <SCORE.INTER.VDW>
-12.2138

>  <SCORE.INTER.norm>
-1.07403

>  <SCORE.INTRA>
0

>  <SCORE.INTRA.DIHEDRAL>
0

>  <SCORE.INTRA.DIHEDRAL.0>
0

>  <SCORE.INTRA.POLAR>
0

>  <SCORE.INTRA.POLAR.0>
0

>  <SCORE.INTRA.REPUL>
0

>  <SCORE.INTRA.REPUL.0>
0

>  <SCORE.INTRA.SOLV>
0

>  <SCORE.INTRA.SOLV.lig_0>
-29.58

>  <SCORE.INTRA.VDW>
0

>  <SCORE.INTRA.VDW.0>
0

>  <SCORE.INTRA.norm>
0

>  <SCORE.RESTR>
0

>  <SCORE.RESTR.CAVITY>
0

>  <SCORE.RESTR.norm>
0

>  <SCORE.SYSTEM>
0

>  <SCORE.SYSTEM.CONST>
0

>  <SCORE.SYSTEM.DIHEDRAL>
0

>  <SCORE.SYSTEM.SOLV>
0

>  <SCORE.SYSTEM.norm>
0

>  <SCORE.heavy>
8

>  <SCORE.norm>
-1.07403

>  <RMSD>
3.463

$$$$
ligand
 OpenBabel02271912143D
libRbt.so/2013.1/901 2013/11/27
  8  8  0  0  0  0  0  0  0  0999 V2000
    9.2502   10.0849   -1.5088 C   0  0  0  0  0  0  0  0  0  0  0  0
    9.2889   10.4140   -0.2179 N   0  0  0  0  0  0  0  0  0  0  0  0
    9.8216   11.5820    0.1510 C   0  0  0  0  0  0  0  0  0  0  0  0
   10.3058   12.4349   -0.7818 N   0  0  0  0  0  0  0  0  0  0  0  0
   10.2664   12.0891   -2.0795 C   0  0  0  0  0  0  0  0  0  0  0  0
    9.7340   10.9138   -2.4488 N   0  0  0  0  0  0  0  0  0  0  0  0
    9.8507   11.9131    1.5912 N   0  0  0  0  0  0  0  0  0  0  0  0
    8.7021    8.8942   -1.8437 O   0  0  0  0  0  0  0  0  0  0  0  0
  1  2  1  0  0  0  0
  1  6  1  0  0  0  0
  1  8  2  0  0  0  0
  2  3  1  0  0  0  0
  3  4  2  0  0  0  0
  3  7  1  0  0  0  0
  4  5  1  0  0  0  0
  5  6  2  0  0  0  0
M  END
>  <CHROM.1>
9.62791353,10.98945848,-0.89579373,2.17423782,-1.11550638,-1.75554995

>  <Name>
ligand

>  <RI>
0

>  <Rbt.Current_Directory>
/home/itssahil/PROJECTS/Mol_Feturizer/Test_systems_manuscript/rnas/3la5

>  <Rbt.Executable>
rbdock ($Id: //depot/dev/client3/rdock/2013.1/src/exe/rbdock.cxx#4 $)

>  <Rbt.Library>
libRbt.so (2013.1, Build901 2013/11/27)

>  <Rbt.Parameter_File>
/export/apps/rDock/src/rDock_2013.1_src/data/scripts/dock_solv.prm

>  <Rbt.Receptor>
prm/pocket_docking_8.prm

>  <SCORE>
-8.5972

>  <SCORE.INTER>
-8.5972

>  <SCORE.INTER.CONST>
1

>  <SCORE.INTER.POLAR>
0

>  <SCORE.INTER.ROT>
0

>  <SCORE.INTER.SOLV>
8.66643

>  <SCORE.INTER.VDW>
-12.2203

>  <SCORE.INTER.norm>
-1.07465

>  <SCORE.INTRA>
0

>  <SCORE.INTRA.DIHEDRAL>
0

>  <SCORE.INTRA.DIHEDRAL.0>
0

>  <SCORE.INTRA.POLAR>
0

>  <SCORE.INTRA.POLAR.0>
0

>  <SCORE.INTRA.REPUL>
0

>  <SCORE.INTRA.REPUL.0>
0

>  <SCORE.INTRA.SOLV>
0

>  <SCORE.INTRA.SOLV.lig_0>
-29.58

>  <SCORE.INTRA.VDW>
0

>  <SCORE.INTRA.VDW.0>
0

>  <SCORE.INTRA.norm>
0

>  <SCORE.RESTR>
0

>  <SCORE.RESTR.CAVITY>
0

>  <SCORE.RESTR.norm>
0

>  <SCORE.SYSTEM>
0

>  <SCORE.SYSTEM.CONST>
0

>  <SCORE.SYSTEM.DIHEDRAL>
0

>  <SCORE.SYSTEM.SOLV>
0

>  <SCORE.SYSTEM.norm>
0

>  <SCORE.heavy>
8

>  <SCORE.norm>
-1.07465

>  <RMSD>
3.463

$$$$
ligand
 OpenBabel02271912143D
libRbt.so/2013.1/901 2013/11/27
  8  8  0  0  0  0  0  0  0  0999 V2000
    9.2669   10.0681   -1.5203 C   0  0  0  0  0  0  0  0  0  0  0  0
    9.4419   10.3653   -0.2329 N   0  0  0  0  0  0  0  0  0  0  0  0
   10.0109   11.5250    0.1066 C   0  0  0  0  0  0  0  0  0  0  0  0
   10.3941   12.4018   -0.8507 N   0  0  0  0  0  0  0  0  0  0  0  0
   10.2177   12.0881   -2.1452 C   0  0  0  0  0  0  0  0  0  0  0  0
    9.6489   10.9211   -2.4853 N   0  0  0  0  0  0  0  0  0  0  0  0
   10.1921   11.8205    1.5434 N   0  0  0  0  0  0  0  0  0  0  0  0
    8.6861    8.8847   -1.8249 O   0  0  0  0  0  0  0  0  0  0  0  0
  1  2  1  0  0  0  0
  1  6  1  0  0  0  0
  1  8  2  0  0  0  0
  2  3  1  0  0  0  0
  3  4  2  0  0  0  0
  3  7  1  0  0  0  0
  4  5  1  0  0  0  0
  5  6  2  0  0  0  0
M  END
>  <CHROM.1>
9.70749729,10.95807465,-0.92830872,2.41675082,-1.12324640,-1.51229061

>  <Name>
ligand

>  <RI>
0

>  <Rbt.Current_Directory>
/home/itssahil/PROJECTS/Mol_Feturizer/Test_systems_manuscript/rnas/3la5

>  <Rbt.Executable>
rbdock ($Id: //depot/dev/client3/rdock/2013.1/src/exe/rbdock.cxx#4 $)

>  <Rbt.Library>
libRbt.so (2013.1, Build901 2013/11/27)

>  <Rbt.Parameter_File>
/export/apps/rDock/src/rDock_2013.1_src/data/scripts/dock_solv.prm

>  <Rbt.Receptor>
prm/pocket_docking_8.prm

>  <SCORE>
-8.62146

>  <SCORE.INTER>
-8.62146

>  <SCORE.INTER.CONST>
1

>  <SCORE.INTER.POLAR>
0

>  <SCORE.INTER.ROT>
0

>  <SCORE.INTER.SOLV>
8.36094

>  <SCORE.INTER.VDW>
-12.1346

>  <SCORE.INTER.norm>
-1.07768

>  <SCORE.INTRA>
0

>  <SCORE.INTRA.DIHEDRAL>
0

>  <SCORE.INTRA.DIHEDRAL.0>
0

>  <SCORE.INTRA.POLAR>
0

>  <SCORE.INTRA.POLAR.0>
0

>  <SCORE.INTRA.REPUL>
0

>  <SCORE.INTRA.REPUL.0>
0

>  <SCORE.INTRA.SOLV>
0

>  <SCORE.INTRA.SOLV.lig_0>
-29.58

>  <SCORE.INTRA.VDW>
0

>  <SCORE.INTRA.VDW.0>
0

>  <SCORE.INTRA.norm>
0

>  <SCORE.RESTR>
0

>  <SCORE.RESTR.CAVITY>
0

>  <SCORE.RESTR.norm>
0

>  <SCORE.SYSTEM>
0

>  <SCORE.SYSTEM.CONST>
0

>  <SCORE.SYSTEM.DIHEDRAL>
0

>  <SCORE.SYSTEM.SOLV>
0

>  <SCORE.SYSTEM.norm>
0

>  <SCORE.heavy>
8

>  <SCORE.norm>
-1.07768

>  <RMSD>
3.463

$$$$
ligand
 OpenBabel02271912143D
libRbt.so/2013.1/901 2013/11/27
  8  8  0  0  0  0  0  0  0  0999 V2000
    9.2733   10.0997   -1.5471 C   0  0  0  0  0  0  0  0  0  0  0  0
    9.3891   10.4034   -0.2545 N   0  0  0  0  0  0  0  0  0  0  0  0
    9.9488   11.5616    0.1050 C   0  0  0  0  0  0  0  0  0  0  0  0
   10.3824   12.4304   -0.8380 N   0  0  0  0  0  0  0  0  0  0  0  0
   10.2655   12.1101   -2.1376 C   0  0  0  0  0  0  0  0  0  0  0  0
    9.7060   10.9446   -2.4977 N   0  0  0  0  0  0  0  0  0  0  0  0
   10.0637   11.8644    1.5471 N   0  0  0  0  0  0  0  0  0  0  0  0
    8.7001    8.9181   -1.8723 O   0  0  0  0  0  0  0  0  0  0  0  0
  1  2  1  0  0  0  0
  1  6  1  0  0  0  0
  1  8  2  0  0  0  0
  2  3  1  0  0  0  0
  3  4  2  0  0  0  0
  3  7  1  0  0  0  0
  4  5  1  0  0  0  0
  5  6  2  0  0  0  0
M  END
>  <CHROM.1>
9.69110640,10.99042235,-0.93993657,2.30789193,-1.11733316,-1.61603222

>  <Name>
ligand

>  <RI>
0

>  <Rbt.Current_Directory>
/home/itssahil/PROJECTS/Mol_Feturizer/Test_systems_manuscript/rnas/3la5

>  <Rbt.Executable>
rbdock ($Id: //depot/dev/client3/rdock/2013.1/src/exe/rbdock.cxx#4 $)

>  <Rbt.Library>
libRbt.so (2013.1, Build901 2013/11/27)

>  <Rbt.Parameter_File>
/export/apps/rDock/src/rDock_2013.1_src/data/scripts/dock_solv.prm

>  <Rbt.Receptor>
prm/blind_docking_60.prm

>  <SCORE>
-8.59381

>  <SCORE.INTER>
-8.59381

>  <SCORE.INTER.CONST>
1

>  <SCORE.INTER.POLAR>
0

>  <SCORE.INTER.ROT>
0

>  <SCORE.INTER.SOLV>
8.38689

>  <SCORE.INTER.VDW>
-12.1248

>  <SCORE.INTER.norm>
-1.07423

>  <SCORE.INTRA>
0

>  <SCORE.INTRA.DIHEDRAL>
0

>  <SCORE.INTRA.DIHEDRAL.0>
0

>  <SCORE.INTRA.POLAR>
0

>  <SCORE.INTRA.POLAR.0>
0

>  <SCORE.INTRA.REPUL>
0

>  <SCORE.INTRA.REPUL.0>
0

>  <SCORE.INTRA.SOLV>
0

>  <SCORE.INTRA.SOLV.lig_0>
-29.58

>  <SCORE.INTRA.VDW>
0

>  <SCORE.INTRA.VDW.0>
0

>  <SCORE.INTRA.norm>
0

>  <SCORE.RESTR>
0

>  <SCORE.RESTR.CAVITY>
0

>  <SCORE.RESTR.norm>
0

>  <SCORE.SYSTEM>
0

>  <SCORE.SYSTEM.CONST>
0

>  <SCORE.SYSTEM.DIHEDRAL>
0

>  <SCORE.SYSTEM.SOLV>
0

>  <SCORE.SYSTEM.norm>
0

>  <SCORE.heavy>
8

>  <SCORE.norm>
-1.07423

>  <RMSD>
3.464

$$$$
ligand
 OpenBabel02271912143D
libRbt.so/2013.1/901 2013/11/27
  8  8  0  0  0  0  0  0  0  0999 V2000
    9.2848   10.0580   -1.5304 C   0  0  0  0  0  0  0  0  0  0  0  0
    9.4392   10.3521   -0.2396 N   0  0  0  0  0  0  0  0  0  0  0  0
    9.9999   11.5124    0.1116 C   0  0  0  0  0  0  0  0  0  0  0  0
   10.3954   12.3928   -0.8372 N   0  0  0  0  0  0  0  0  0  0  0  0
   10.2397   12.0822   -2.1352 C   0  0  0  0  0  0  0  0  0  0  0  0
    9.6793   10.9147   -2.4871 N   0  0  0  0  0  0  0  0  0  0  0  0
   10.1583   11.8044    1.5519 N   0  0  0  0  0  0  0  0  0  0  0  0
    8.7119    8.8740   -1.8471 O   0  0  0  0  0  0  0  0  0  0  0  0
  1  2  1  0  0  0  0
  1  6  1  0  0  0  0
  1  8  2  0  0  0  0
  2  3  1  0  0  0  0
  3  4  2  0  0  0  0
  3  7  1  0  0  0  0
  4  5  1  0  0  0  0
  5  6  2  0  0  0  0
M  END
>  <CHROM.1>
9.71391025,10.94752565,-0.92931616,2.38147058,-1.12656448,-1.54136678

>  <Name>
ligand

>  <RI>
0

>  <Rbt.Current_Directory>
/home/itssahil/PROJECTS/Mol_Feturizer/Test_systems_manuscript/rnas/3la5

>  <Rbt.Executable>
rbdock ($Id: //depot/dev/client3/rdock/2013.1/src/exe/rbdock.cxx#4 $)

>  <Rbt.Library>
libRbt.so (2013.1, Build901 2013/11/27)

>  <Rbt.Parameter_File>
/export/apps/rDock/src/rDock_2013.1_src/data/scripts/dock_solv.prm

>  <Rbt.Receptor>
prm/pocket_docking_7.prm

>  <SCORE>
-8.60741

>  <SCORE.INTER>
-8.60741

>  <SCORE.INTER.CONST>
1

>  <SCORE.INTER.POLAR>
0

>  <SCORE.INTER.ROT>
0

>  <SCORE.INTER.SOLV>
8.36363

>  <SCORE.INTER.VDW>
-12.1261

>  <SCORE.INTER.norm>
-1.07593

>  <SCORE.INTRA>
0

>  <SCORE.INTRA.DIHEDRAL>
0

>  <SCORE.INTRA.DIHEDRAL.0>
0

>  <SCORE.INTRA.POLAR>
0

>  <SCORE.INTRA.POLAR.0>
0

>  <SCORE.INTRA.REPUL>
0

>  <SCORE.INTRA.REPUL.0>
0

>  <SCORE.INTRA.SOLV>
0

>  <SCORE.INTRA.SOLV.lig_0>
-29.58

>  <SCORE.INTRA.VDW>
0

>  <SCORE.INTRA.VDW.0>
0

>  <SCORE.INTRA.norm>
0

>  <SCORE.RESTR>
0

>  <SCORE.RESTR.CAVITY>
0

>  <SCORE.RESTR.norm>
0

>  <SCORE.SYSTEM>
0

>  <SCORE.SYSTEM.CONST>
0

>  <SCORE.SYSTEM.DIHEDRAL>
0

>  <SCORE.SYSTEM.SOLV>
0

>  <SCORE.SYSTEM.norm>
0

>  <SCORE.heavy>
8

>  <SCORE.norm>
-1.07593

>  <RMSD>
3.464

$$$$
ligand
 OpenBabel02271912143D
libRbt.so/2013.1/901 2013/11/27
  8  8  0  0  0  0  0  0  0  0999 V2000
    9.2523   10.0993   -1.5105 C   0  0  0  0  0  0  0  0  0  0  0  0
    9.3623   10.4351   -0.2254 N   0  0  0  0  0  0  0  0  0  0  0  0
    9.9249   11.5997    0.1079 C   0  0  0  0  0  0  0  0  0  0  0  0
   10.3674   12.4427   -0.8542 N   0  0  0  0  0  0  0  0  0  0  0  0
   10.2563   12.0901   -2.1460 C   0  0  0  0  0  0  0  0  0  0  0  0
    9.6938   10.9182   -2.4797 N   0  0  0  0  0  0  0  0  0  0  0  0
   10.0331   11.9384    1.5426 N   0  0  0  0  0  0  0  0  0  0  0  0
    8.6759    8.9123   -1.8090 O   0  0  0  0  0  0  0  0  0  0  0  0
  1  2  1  0  0  0  0
  1  6  1  0  0  0  0
  1  8  2  0  0  0  0
  2  3  1  0  0  0  0
  3  4  2  0  0  0  0
  3  7  1  0  0  0  0
  4  5  1  0  0  0  0
  5  6  2  0  0  0  0
M  END
>  <CHROM.1>
9.67054030,11.00341533,-0.92368093,2.29583119,-1.11281637,-1.65211932

>  <Name>
ligand

>  <RI>
0

>  <Rbt.Current_Directory>
/home/itssahil/PROJECTS/Mol_Feturizer/Test_systems_manuscript/rnas/3la5

>  <Rbt.Executable>
rbdock ($Id: //depot/dev/client3/rdock/2013.1/src/exe/rbdock.cxx#4 $)

>  <Rbt.Library>
libRbt.so (2013.1, Build901 2013/11/27)

>  <Rbt.Parameter_File>
/export/apps/rDock/src/rDock_2013.1_src/data/scripts/dock_solv.prm

>  <Rbt.Receptor>
prm/blind_docking_20.prm

>  <SCORE>
-8.59319

>  <SCORE.INTER>
-8.59319

>  <SCORE.INTER.CONST>
1

>  <SCORE.INTER.POLAR>
0

>  <SCORE.INTER.ROT>
0

>  <SCORE.INTER.SOLV>
8.42941

>  <SCORE.INTER.VDW>
-12.1386

>  <SCORE.INTER.norm>
-1.07415

>  <SCORE.INTRA>
0

>  <SCORE.INTRA.DIHEDRAL>
0

>  <SCORE.INTRA.DIHEDRAL.0>
0

>  <SCORE.INTRA.POLAR>
0

>  <SCORE.INTRA.POLAR.0>
0

>  <SCORE.INTRA.REPUL>
0

>  <SCORE.INTRA.REPUL.0>
0

>  <SCORE.INTRA.SOLV>
0

>  <SCORE.INTRA.SOLV.lig_0>
-29.58

>  <SCORE.INTRA.VDW>
0

>  <SCORE.INTRA.VDW.0>
0

>  <SCORE.INTRA.norm>
0

>  <SCORE.RESTR>
0

>  <SCORE.RESTR.CAVITY>
0

>  <SCORE.RESTR.norm>
0

>  <SCORE.SYSTEM>
0

>  <SCORE.SYSTEM.CONST>
0

>  <SCORE.SYSTEM.DIHEDRAL>
0

>  <SCORE.SYSTEM.SOLV>
0

>  <SCORE.SYSTEM.norm>
0

>  <SCORE.heavy>
8

>  <SCORE.norm>
-1.07415

>  <RMSD>
3.465

$$$$
ligand
 OpenBabel02271912143D
libRbt.so/2013.1/901 2013/11/27
  8  8  0  0  0  0  0  0  0  0999 V2000
    9.2696   10.0715   -1.5293 C   0  0  0  0  0  0  0  0  0  0  0  0
    9.4402   10.3679   -0.2411 N   0  0  0  0  0  0  0  0  0  0  0  0
   10.0109   11.5260    0.1010 C   0  0  0  0  0  0  0  0  0  0  0  0
   10.4004   12.4020   -0.8545 N   0  0  0  0  0  0  0  0  0  0  0  0
   10.2285   12.0891   -2.1498 C   0  0  0  0  0  0  0  0  0  0  0  0
    9.6579   10.9237   -2.4925 N   0  0  0  0  0  0  0  0  0  0  0  0
   10.1871   11.8207    1.5386 N   0  0  0  0  0  0  0  0  0  0  0  0
    8.6868    8.8898   -1.8365 O   0  0  0  0  0  0  0  0  0  0  0  0
  1  2  1  0  0  0  0
  1  6  1  0  0  0  0
  1  8  2  0  0  0  0
  2  3  1  0  0  0  0
  3  4  2  0  0  0  0
  3  7  1  0  0  0  0
  4  5  1  0  0  0  0
  5  6  2  0  0  0  0
M  END
>  <CHROM.1>
9.71023138,10.96016268,-0.93528128,2.40699175,-1.12073677,-1.52082966

>  <Name>
ligand

>  <RI>
0

>  <Rbt.Current_Directory>
/home/itssahil/PROJECTS/Mol_Feturizer/Test_systems_manuscript/rnas/3la5

>  <Rbt.Executable>
rbdock ($Id: //depot/dev/client3/rdock/2013.1/src/exe/rbdock.cxx#4 $)

>  <Rbt.Library>
libRbt.so (2013.1, Build901 2013/11/27)

>  <Rbt.Parameter_File>
/export/apps/rDock/src/rDock_2013.1_src/data/scripts/dock_solv.prm

>  <Rbt.Receptor>
prm/blind_docking_20.prm

>  <SCORE>
-8.62668

>  <SCORE.INTER>
-8.62668

>  <SCORE.INTER.CONST>
1

>  <SCORE.INTER.POLAR>
0

>  <SCORE.INTER.ROT>
0

>  <SCORE.INTER.SOLV>
8.34714

>  <SCORE.INTER.VDW>
-12.1335

>  <SCORE.INTER.norm>
-1.07834

>  <SCORE.INTRA>
0

>  <SCORE.INTRA.DIHEDRAL>
0

>  <SCORE.INTRA.DIHEDRAL.0>
0

>  <SCORE.INTRA.POLAR>
0

>  <SCORE.INTRA.POLAR.0>
0

>  <SCORE.INTRA.REPUL>
0

>  <SCORE.INTRA.REPUL.0>
0

>  <SCORE.INTRA.SOLV>
0

>  <SCORE.INTRA.SOLV.lig_0>
-29.58

>  <SCORE.INTRA.VDW>
0

>  <SCORE.INTRA.VDW.0>
0

>  <SCORE.INTRA.norm>
0

>  <SCORE.RESTR>
0

>  <SCORE.RESTR.CAVITY>
0

>  <SCORE.RESTR.norm>
0

>  <SCORE.SYSTEM>
0

>  <SCORE.SYSTEM.CONST>
0

>  <SCORE.SYSTEM.DIHEDRAL>
0

>  <SCORE.SYSTEM.SOLV>
0

>  <SCORE.SYSTEM.norm>
0

>  <SCORE.heavy>
8

>  <SCORE.norm>
-1.07834

>  <RMSD>
3.465

$$$$
ligand
 OpenBabel02271912143D
libRbt.so/2013.1/901 2013/11/27
  8  8  0  0  0  0  0  0  0  0999 V2000
    9.2688   10.0731   -1.5309 C   0  0  0  0  0  0  0  0  0  0  0  0
    9.4167   10.3734   -0.2408 N   0  0  0  0  0  0  0  0  0  0  0  0
    9.9851   11.5307    0.1078 C   0  0  0  0  0  0  0  0  0  0  0  0
   10.3951   12.4021   -0.8433 N   0  0  0  0  0  0  0  0  0  0  0  0
   10.2459   12.0853   -2.1405 C   0  0  0  0  0  0  0  0  0  0  0  0
    9.6777   10.9207   -2.4896 N   0  0  0  0  0  0  0  0  0  0  0  0
   10.1359   11.8297    1.5475 N   0  0  0  0  0  0  0  0  0  0  0  0
    8.6877    8.8924   -1.8448 O   0  0  0  0  0  0  0  0  0  0  0  0
  1  2  1  0  0  0  0
  1  6  1  0  0  0  0
  1  8  2  0  0  0  0
  2  3  1  0  0  0  0
  3  4  2  0  0  0  0
  3  7  1  0  0  0  0
  4  5  1  0  0  0  0
  5  6  2  0  0  0  0
M  END
>  <CHROM.1>
9.70152832,10.96231457,-0.93187454,2.36469166,-1.11785715,-1.56228452

>  <Name>
ligand

>  <RI>
0

>  <Rbt.Current_Directory>
/home/itssahil/PROJECTS/Mol_Feturizer/Test_systems_manuscript/rnas/3la5

>  <Rbt.Executable>
rbdock ($Id: //depot/dev/client3/rdock/2013.1/src/exe/rbdock.cxx#4 $)

>  <Rbt.Library>
libRbt.so (2013.1, Build901 2013/11/27)

>  <Rbt.Parameter_File>
/export/apps/rDock/src/rDock_2013.1_src/data/scripts/dock_solv.prm

>  <Rbt.Receptor>
prm/blind_docking_60.prm

>  <SCORE>
-8.60876

>  <SCORE.INTER>
-8.60876

>  <SCORE.INTER.CONST>
1

>  <SCORE.INTER.POLAR>
0

>  <SCORE.INTER.ROT>
0

>  <SCORE.INTER.SOLV>
8.38142

>  <SCORE.INTER.VDW>
-12.133

>  <SCORE.INTER.norm>
-1.07609

>  <SCORE.INTRA>
0

>  <SCORE.INTRA.DIHEDRAL>
0

>  <SCORE.INTRA.DIHEDRAL.0>
0

>  <SCORE.INTRA.POLAR>
0

>  <SCORE.INTRA.POLAR.0>
0

>  <SCORE.INTRA.REPUL>
0

>  <SCORE.INTRA.REPUL.0>
0

>  <SCORE.INTRA.SOLV>
0

>  <SCORE.INTRA.SOLV.lig_0>
-29.58

>  <SCORE.INTRA.VDW>
0

>  <SCORE.INTRA.VDW.0>
0

>  <SCORE.INTRA.norm>
0

>  <SCORE.RESTR>
0

>  <SCORE.RESTR.CAVITY>
0

>  <SCORE.RESTR.norm>
0

>  <SCORE.SYSTEM>
0

>  <SCORE.SYSTEM.CONST>
0

>  <SCORE.SYSTEM.DIHEDRAL>
0

>  <SCORE.SYSTEM.SOLV>
0

>  <SCORE.SYSTEM.norm>
0

>  <SCORE.heavy>
8

>  <SCORE.norm>
-1.07609

>  <RMSD>
3.465

$$$$
ligand
 OpenBabel02271912143D
libRbt.so/2013.1/901 2013/11/27
  8  8  0  0  0  0  0  0  0  0999 V2000
    9.2685   10.1007   -1.5491 C   0  0  0  0  0  0  0  0  0  0  0  0
    9.3938   10.4026   -0.2570 N   0  0  0  0  0  0  0  0  0  0  0  0
    9.9545   11.5610    0.1001 C   0  0  0  0  0  0  0  0  0  0  0  0
   10.3796   12.4320   -0.8447 N   0  0  0  0  0  0  0  0  0  0  0  0
   10.2532   12.1136   -2.1440 C   0  0  0  0  0  0  0  0  0  0  0  0
    9.6926   10.9478   -2.5016 N   0  0  0  0  0  0  0  0  0  0  0  0
   10.0801   11.8617    1.5418 N   0  0  0  0  0  0  0  0  0  0  0  0
    8.6944    8.9189   -1.8717 O   0  0  0  0  0  0  0  0  0  0  0  0
  1  2  1  0  0  0  0
  1  6  1  0  0  0  0
  1  8  2  0  0  0  0
  2  3  1  0  0  0  0
  3  4  2  0  0  0  0
  3  7  1  0  0  0  0
  4  5  1  0  0  0  0
  5  6  2  0  0  0  0
M  END
>  <CHROM.1>
9.68964121,10.99114131,-0.94371348,2.32530646,-1.11905238,-1.59878575

>  <Name>
ligand

>  <RI>
0

>  <Rbt.Current_Directory>
/home/itssahil/PROJECTS/Mol_Feturizer/Test_systems_manuscript/rnas/3la5

>  <Rbt.Executable>
rbdock ($Id: //depot/dev/client3/rdock/2013.1/src/exe/rbdock.cxx#4 $)

>  <Rbt.Library>
libRbt.so (2013.1, Build901 2013/11/27)

>  <Rbt.Parameter_File>
/export/apps/rDock/src/rDock_2013.1_src/data/scripts/dock_solv.prm

>  <Rbt.Receptor>
prm/blind_docking_40.prm

>  <SCORE>
-8.61844

>  <SCORE.INTER>
-8.61844

>  <SCORE.INTER.CONST>
1

>  <SCORE.INTER.POLAR>
0

>  <SCORE.INTER.ROT>
0

>  <SCORE.INTER.SOLV>
8.38025

>  <SCORE.INTER.VDW>
-12.139

>  <SCORE.INTER.norm>
-1.07731

>  <SCORE.INTRA>
0

>  <SCORE.INTRA.DIHEDRAL>
0

>  <SCORE.INTRA.DIHEDRAL.0>
0

>  <SCORE.INTRA.POLAR>
0

>  <SCORE.INTRA.POLAR.0>
0

>  <SCORE.INTRA.REPUL>
0

>  <SCORE.INTRA.REPUL.0>
0

>  <SCORE.INTRA.SOLV>
0

>  <SCORE.INTRA.SOLV.lig_0>
-29.58

>  <SCORE.INTRA.VDW>
0

>  <SCORE.INTRA.VDW.0>
0

>  <SCORE.INTRA.norm>
0

>  <SCORE.RESTR>
0

>  <SCORE.RESTR.CAVITY>
0

>  <SCORE.RESTR.norm>
0

>  <SCORE.SYSTEM>
0

>  <SCORE.SYSTEM.CONST>
0

>  <SCORE.SYSTEM.DIHEDRAL>
0

>  <SCORE.SYSTEM.SOLV>
0

>  <SCORE.SYSTEM.norm>
0

>  <SCORE.heavy>
8

>  <SCORE.norm>
-1.07731

>  <RMSD>
3.466

$$$$
ligand
 OpenBabel02271912143D
libRbt.so/2013.1/901 2013/11/27
  8  8  0  0  0  0  0  0  0  0999 V2000
    9.2620   10.0691   -1.5275 C   0  0  0  0  0  0  0  0  0  0  0  0
    9.4136   10.3692   -0.2378 N   0  0  0  0  0  0  0  0  0  0  0  0
    9.9849   11.5255    0.1093 C   0  0  0  0  0  0  0  0  0  0  0  0
   10.3943   12.3960   -0.8429 N   0  0  0  0  0  0  0  0  0  0  0  0
   10.2414   12.0793   -2.1397 C   0  0  0  0  0  0  0  0  0  0  0  0
    9.6702   10.9158   -2.4874 N   0  0  0  0  0  0  0  0  0  0  0  0
   10.1397   11.8244    1.5485 N   0  0  0  0  0  0  0  0  0  0  0  0
    8.6779    8.8894   -1.8399 O   0  0  0  0  0  0  0  0  0  0  0  0
  1  2  1  0  0  0  0
  1  6  1  0  0  0  0
  1  8  2  0  0  0  0
  2  3  1  0  0  0  0
  3  4  2  0  0  0  0
  3  7  1  0  0  0  0
  4  5  1  0  0  0  0
  5  6  2  0  0  0  0
M  END
>  <CHROM.1>
9.69782046,10.95753222,-0.92967270,2.37008901,-1.11596495,-1.55756503

>  <Name>
ligand

>  <RI>
0

>  <Rbt.Current_Directory>
/home/itssahil/PROJECTS/Mol_Feturizer/Test_systems_manuscript/rnas/3la5

>  <Rbt.Executable>
rbdock ($Id: //depot/dev/client3/rdock/2013.1/src/exe/rbdock.cxx#4 $)

>  <Rbt.Library>
libRbt.so (2013.1, Build901 2013/11/27)

>  <Rbt.Parameter_File>
/export/apps/rDock/src/rDock_2013.1_src/data/scripts/dock_solv.prm

>  <Rbt.Receptor>
prm/blind_docking_40.prm

>  <SCORE>
-8.58554

>  <SCORE.INTER>
-8.58554

>  <SCORE.INTER.CONST>
1

>  <SCORE.INTER.POLAR>
0

>  <SCORE.INTER.ROT>
0

>  <SCORE.INTER.SOLV>
8.39794

>  <SCORE.INTER.VDW>
-12.123

>  <SCORE.INTER.norm>
-1.07319

>  <SCORE.INTRA>
0

>  <SCORE.INTRA.DIHEDRAL>
0

>  <SCORE.INTRA.DIHEDRAL.0>
0

>  <SCORE.INTRA.POLAR>
0

>  <SCORE.INTRA.POLAR.0>
0

>  <SCORE.INTRA.REPUL>
0

>  <SCORE.INTRA.REPUL.0>
0

>  <SCORE.INTRA.SOLV>
0

>  <SCORE.INTRA.SOLV.lig_0>
-29.58

>  <SCORE.INTRA.VDW>
0

>  <SCORE.INTRA.VDW.0>
0

>  <SCORE.INTRA.norm>
0

>  <SCORE.RESTR>
0

>  <SCORE.RESTR.CAVITY>
0

>  <SCORE.RESTR.norm>
0

>  <SCORE.SYSTEM>
0

>  <SCORE.SYSTEM.CONST>
0

>  <SCORE.SYSTEM.DIHEDRAL>
0

>  <SCORE.SYSTEM.SOLV>
0

>  <SCORE.SYSTEM.norm>
0

>  <SCORE.heavy>
8

>  <SCORE.norm>
-1.07319

>  <RMSD>
3.466

$$$$
ligand
 OpenBabel02271912143D
libRbt.so/2013.1/901 2013/11/27
  8  8  0  0  0  0  0  0  0  0999 V2000
    9.2533   10.1070   -1.5237 C   0  0  0  0  0  0  0  0  0  0  0  0
    9.3930   10.4313   -0.2385 N   0  0  0  0  0  0  0  0  0  0  0  0
    9.9619   11.5936    0.0921 C   0  0  0  0  0  0  0  0  0  0  0  0
   10.3808   12.4458   -0.8724 N   0  0  0  0  0  0  0  0  0  0  0  0
   10.2398   12.1048   -2.1644 C   0  0  0  0  0  0  0  0  0  0  0  0
    9.6710   10.9352   -2.4954 N   0  0  0  0  0  0  0  0  0  0  0  0
   10.1035   11.9195    1.5268 N   0  0  0  0  0  0  0  0  0  0  0  0
    8.6712    8.9220   -1.8192 O   0  0  0  0  0  0  0  0  0  0  0  0
  1  2  1  0  0  0  0
  1  6  1  0  0  0  0
  1  8  2  0  0  0  0
  2  3  1  0  0  0  0
  3  4  2  0  0  0  0
  3  7  1  0  0  0  0
  4  5  1  0  0  0  0
  5  6  2  0  0  0  0
M  END
>  <CHROM.1>
9.68413089,11.00632170,-0.93861907,2.34883582,-1.11525002,-1.59549424

>  <Name>
ligand

>  <RI>
0

>  <Rbt.Current_Directory>
/home/itssahil/PROJECTS/Mol_Feturizer/Test_systems_manuscript/rnas/3la5

>  <Rbt.Executable>
rbdock ($Id: //depot/dev/client3/rdock/2013.1/src/exe/rbdock.cxx#4 $)

>  <Rbt.Library>
libRbt.so (2013.1, Build901 2013/11/27)

>  <Rbt.Parameter_File>
/export/apps/rDock/src/rDock_2013.1_src/data/scripts/dock_solv.prm

>  <Rbt.Receptor>
prm/pocket_docking_5.prm

>  <SCORE>
-8.6367

>  <SCORE.INTER>
-8.6367

>  <SCORE.INTER.CONST>
1

>  <SCORE.INTER.POLAR>
0

>  <SCORE.INTER.ROT>
0

>  <SCORE.INTER.SOLV>
8.33106

>  <SCORE.INTER.VDW>
-12.1348

>  <SCORE.INTER.norm>
-1.07959

>  <SCORE.INTRA>
0

>  <SCORE.INTRA.DIHEDRAL>
0

>  <SCORE.INTRA.DIHEDRAL.0>
0

>  <SCORE.INTRA.POLAR>
0

>  <SCORE.INTRA.POLAR.0>
0

>  <SCORE.INTRA.REPUL>
0

>  <SCORE.INTRA.REPUL.0>
0

>  <SCORE.INTRA.SOLV>
0

>  <SCORE.INTRA.SOLV.lig_0>
-29.58

>  <SCORE.INTRA.VDW>
0

>  <SCORE.INTRA.VDW.0>
0

>  <SCORE.INTRA.norm>
0

>  <SCORE.RESTR>
0

>  <SCORE.RESTR.CAVITY>
0

>  <SCORE.RESTR.norm>
0

>  <SCORE.SYSTEM>
0

>  <SCORE.SYSTEM.CONST>
0

>  <SCORE.SYSTEM.DIHEDRAL>
0

>  <SCORE.SYSTEM.SOLV>
0

>  <SCORE.SYSTEM.norm>
0

>  <SCORE.heavy>
8

>  <SCORE.norm>
-1.07959

>  <RMSD>
3.466

$$$$
ligand
 OpenBabel02271912143D
libRbt.so/2013.1/901 2013/11/27
  8  8  0  0  0  0  0  0  0  0999 V2000
    9.2836   10.0750   -1.5328 C   0  0  0  0  0  0  0  0  0  0  0  0
    9.3929   10.3890   -0.2421 N   0  0  0  0  0  0  0  0  0  0  0  0
    9.9391   11.5558    0.1105 C   0  0  0  0  0  0  0  0  0  0  0  0
   10.3655   12.4226   -0.8374 N   0  0  0  0  0  0  0  0  0  0  0  0
   10.2552   12.0920   -2.1351 C   0  0  0  0  0  0  0  0  0  0  0  0
    9.7093   10.9180   -2.4883 N   0  0  0  0  0  0  0  0  0  0  0  0
   10.0472   11.8699    1.5508 N   0  0  0  0  0  0  0  0  0  0  0  0
    8.7241    8.8850   -1.8510 O   0  0  0  0  0  0  0  0  0  0  0  0
  1  2  1  0  0  0  0
  1  6  1  0  0  0  0
  1  8  2  0  0  0  0
  2  3  1  0  0  0  0
  3  4  2  0  0  0  0
  3  7  1  0  0  0  0
  4  5  1  0  0  0  0
  5  6  2  0  0  0  0
M  END
>  <CHROM.1>
9.69016491,10.97451834,-0.93092010,2.30107670,-1.12811222,-1.62919734

>  <Name>
ligand

>  <RI>
0

>  <Rbt.Current_Directory>
/home/itssahil/PROJECTS/Mol_Feturizer/Test_systems_manuscript/rnas/3la5

>  <Rbt.Executable>
rbdock ($Id: //depot/dev/client3/rdock/2013.1/src/exe/rbdock.cxx#4 $)

>  <Rbt.Library>
libRbt.so (2013.1, Build901 2013/11/27)

>  <Rbt.Parameter_File>
/export/apps/rDock/src/rDock_2013.1_src/data/scripts/dock_solv.prm

>  <Rbt.Receptor>
prm/pocket_docking_8.prm

>  <SCORE>
-8.60035

>  <SCORE.INTER>
-8.60035

>  <SCORE.INTER.CONST>
1

>  <SCORE.INTER.POLAR>
0

>  <SCORE.INTER.ROT>
0

>  <SCORE.INTER.SOLV>
8.36506

>  <SCORE.INTER.VDW>
-12.1219

>  <SCORE.INTER.norm>
-1.07504

>  <SCORE.INTRA>
0

>  <SCORE.INTRA.DIHEDRAL>
0

>  <SCORE.INTRA.DIHEDRAL.0>
0

>  <SCORE.INTRA.POLAR>
0

>  <SCORE.INTRA.POLAR.0>
0

>  <SCORE.INTRA.REPUL>
0

>  <SCORE.INTRA.REPUL.0>
0

>  <SCORE.INTRA.SOLV>
0

>  <SCORE.INTRA.SOLV.lig_0>
-29.58

>  <SCORE.INTRA.VDW>
0

>  <SCORE.INTRA.VDW.0>
0

>  <SCORE.INTRA.norm>
0

>  <SCORE.RESTR>
0

>  <SCORE.RESTR.CAVITY>
0

>  <SCORE.RESTR.norm>
0

>  <SCORE.SYSTEM>
0

>  <SCORE.SYSTEM.CONST>
0

>  <SCORE.SYSTEM.DIHEDRAL>
0

>  <SCORE.SYSTEM.SOLV>
0

>  <SCORE.SYSTEM.norm>
0

>  <SCORE.heavy>
8

>  <SCORE.norm>
-1.07504

>  <RMSD>
3.466

$$$$
ligand
 OpenBabel02271912143D
libRbt.so/2013.1/901 2013/11/27
  8  8  0  0  0  0  0  0  0  0999 V2000
    9.2250   10.1119   -1.5168 C   0  0  0  0  0  0  0  0  0  0  0  0
    9.3685   10.4354   -0.2318 N   0  0  0  0  0  0  0  0  0  0  0  0
    9.9512   11.5911    0.0979 C   0  0  0  0  0  0  0  0  0  0  0  0
   10.3803   12.4376   -0.8672 N   0  0  0  0  0  0  0  0  0  0  0  0
   10.2352   12.0974   -2.1589 C   0  0  0  0  0  0  0  0  0  0  0  0
    9.6525   10.9344   -2.4891 N   0  0  0  0  0  0  0  0  0  0  0  0
   10.0966   11.9163    1.5325 N   0  0  0  0  0  0  0  0  0  0  0  0
    8.6289    8.9337   -1.8115 O   0  0  0  0  0  0  0  0  0  0  0  0
  1  2  1  0  0  0  0
  1  6  1  0  0  0  0
  1  8  2  0  0  0  0
  2  3  1  0  0  0  0
  3  4  2  0  0  0  0
  3  7  1  0  0  0  0
  4  5  1  0  0  0  0
  5  6  2  0  0  0  0
M  END
>  <CHROM.1>
9.66648977,11.00644504,-0.93233803,2.34943987,-1.10335625,-1.59565165

>  <Name>
ligand

>  <RI>
0

>  <Rbt.Current_Directory>
/home/itssahil/PROJECTS/Mol_Feturizer/Test_systems_manuscript/rnas/3la5

>  <Rbt.Executable>
rbdock ($Id: //depot/dev/client3/rdock/2013.1/src/exe/rbdock.cxx#4 $)

>  <Rbt.Library>
libRbt.so (2013.1, Build901 2013/11/27)

>  <Rbt.Parameter_File>
/export/apps/rDock/src/rDock_2013.1_src/data/scripts/dock_solv.prm

>  <Rbt.Receptor>
prm/blind_docking_20.prm

>  <SCORE>
-8.58832

>  <SCORE.INTER>
-8.58832

>  <SCORE.INTER.CONST>
1

>  <SCORE.INTER.POLAR>
0

>  <SCORE.INTER.ROT>
0

>  <SCORE.INTER.SOLV>
8.39781

>  <SCORE.INTER.VDW>
-12.1248

>  <SCORE.INTER.norm>
-1.07354

>  <SCORE.INTRA>
0

>  <SCORE.INTRA.DIHEDRAL>
0

>  <SCORE.INTRA.DIHEDRAL.0>
0

>  <SCORE.INTRA.POLAR>
0

>  <SCORE.INTRA.POLAR.0>
0

>  <SCORE.INTRA.REPUL>
0

>  <SCORE.INTRA.REPUL.0>
0

>  <SCORE.INTRA.SOLV>
0

>  <SCORE.INTRA.SOLV.lig_0>
-29.58

>  <SCORE.INTRA.VDW>
0

>  <SCORE.INTRA.VDW.0>
0

>  <SCORE.INTRA.norm>
0

>  <SCORE.RESTR>
0

>  <SCORE.RESTR.CAVITY>
0

>  <SCORE.RESTR.norm>
0

>  <SCORE.SYSTEM>
0

>  <SCORE.SYSTEM.CONST>
0

>  <SCORE.SYSTEM.DIHEDRAL>
0

>  <SCORE.SYSTEM.SOLV>
0

>  <SCORE.SYSTEM.norm>
0

>  <SCORE.heavy>
8

>  <SCORE.norm>
-1.07354

>  <RMSD>
3.467

$$$$
ligand
 OpenBabel02271912143D
libRbt.so/2013.1/901 2013/11/27
  8  8  0  0  0  0  0  0  0  0999 V2000
    9.2463   10.0825   -1.5276 C   0  0  0  0  0  0  0  0  0  0  0  0
    9.4207   10.3800   -0.2402 N   0  0  0  0  0  0  0  0  0  0  0  0
   10.0078   11.5308    0.0988 C   0  0  0  0  0  0  0  0  0  0  0  0
   10.4100   12.3985   -0.8589 N   0  0  0  0  0  0  0  0  0  0  0  0
   10.2340   12.0844   -2.1534 C   0  0  0  0  0  0  0  0  0  0  0  0
    9.6470   10.9264   -2.4930 N   0  0  0  0  0  0  0  0  0  0  0  0
   10.1878   11.8269    1.5357 N   0  0  0  0  0  0  0  0  0  0  0  0
    8.6468    8.9084   -1.8318 O   0  0  0  0  0  0  0  0  0  0  0  0
  1  2  1  0  0  0  0
  1  6  1  0  0  0  0
  1  8  2  0  0  0  0
  2  3  1  0  0  0  0
  3  4  2  0  0  0  0
  3  7  1  0  0  0  0
  4  5  1  0  0  0  0
  5  6  2  0  0  0  0
M  END
>  <CHROM.1>
9.69940134,10.96640883,-0.93595341,2.40481816,-1.10653641,-1.52554460

>  <Name>
ligand

>  <RI>
0

>  <Rbt.Current_Directory>
/home/itssahil/PROJECTS/Mol_Feturizer/Test_systems_manuscript/rnas/3la5

>  <Rbt.Executable>
rbdock ($Id: //depot/dev/client3/rdock/2013.1/src/exe/rbdock.cxx#4 $)

>  <Rbt.Library>
libRbt.so (2013.1, Build901 2013/11/27)

>  <Rbt.Parameter_File>
/export/apps/rDock/src/rDock_2013.1_src/data/scripts/dock_solv.prm

>  <Rbt.Receptor>
prm/blind_docking_40.prm

>  <SCORE>
-8.59879

>  <SCORE.INTER>
-8.59879

>  <SCORE.INTER.CONST>
1

>  <SCORE.INTER.POLAR>
0

>  <SCORE.INTER.ROT>
0

>  <SCORE.INTER.SOLV>
8.38403

>  <SCORE.INTER.VDW>
-12.1272

>  <SCORE.INTER.norm>
-1.07485

>  <SCORE.INTRA>
0

>  <SCORE.INTRA.DIHEDRAL>
0

>  <SCORE.INTRA.DIHEDRAL.0>
0

>  <SCORE.INTRA.POLAR>
0

>  <SCORE.INTRA.POLAR.0>
0

>  <SCORE.INTRA.REPUL>
0

>  <SCORE.INTRA.REPUL.0>
0

>  <SCORE.INTRA.SOLV>
0

>  <SCORE.INTRA.SOLV.lig_0>
-29.58

>  <SCORE.INTRA.VDW>
0

>  <SCORE.INTRA.VDW.0>
0

>  <SCORE.INTRA.norm>
0

>  <SCORE.RESTR>
0

>  <SCORE.RESTR.CAVITY>
0

>  <SCORE.RESTR.norm>
0

>  <SCORE.SYSTEM>
0

>  <SCORE.SYSTEM.CONST>
0

>  <SCORE.SYSTEM.DIHEDRAL>
0

>  <SCORE.SYSTEM.SOLV>
0

>  <SCORE.SYSTEM.norm>
0

>  <SCORE.heavy>
8

>  <SCORE.norm>
-1.07485

>  <RMSD>
3.467

$$$$
ligand
 OpenBabel02271912143D
libRbt.so/2013.1/901 2013/11/27
  8  8  0  0  0  0  0  0  0  0999 V2000
    9.2677   10.0887   -1.5138 C   0  0  0  0  0  0  0  0  0  0  0  0
    9.3628   10.4264   -0.2280 N   0  0  0  0  0  0  0  0  0  0  0  0
    9.9114   11.5965    0.1095 C   0  0  0  0  0  0  0  0  0  0  0  0
   10.3547   12.4428   -0.8492 N   0  0  0  0  0  0  0  0  0  0  0  0
   10.2586   12.0884   -2.1417 C   0  0  0  0  0  0  0  0  0  0  0  0
    9.7102   10.9110   -2.4795 N   0  0  0  0  0  0  0  0  0  0  0  0
   10.0035   11.9372    1.5448 N   0  0  0  0  0  0  0  0  0  0  0  0
    8.7051    8.8961   -1.8165 O   0  0  0  0  0  0  0  0  0  0  0  0
  1  2  1  0  0  0  0
  1  6  1  0  0  0  0
  1  8  2  0  0  0  0
  2  3  1  0  0  0  0
  3  4  2  0  0  0  0
  3  7  1  0  0  0  0
  4  5  1  0  0  0  0
  5  6  2  0  0  0  0
M  END
>  <CHROM.1>
9.67203830,10.99708183,-0.92387428,2.27327319,-1.12130196,-1.67315351

>  <Name>
ligand

>  <RI>
0

>  <Rbt.Current_Directory>
/home/itssahil/PROJECTS/Mol_Feturizer/Test_systems_manuscript/rnas/3la5

>  <Rbt.Executable>
rbdock ($Id: //depot/dev/client3/rdock/2013.1/src/exe/rbdock.cxx#4 $)

>  <Rbt.Library>
libRbt.so (2013.1, Build901 2013/11/27)

>  <Rbt.Parameter_File>
/export/apps/rDock/src/rDock_2013.1_src/data/scripts/dock_solv.prm

>  <Rbt.Receptor>
prm/blind_docking_60.prm

>  <SCORE>
-8.6095

>  <SCORE.INTER>
-8.6095

>  <SCORE.INTER.CONST>
1

>  <SCORE.INTER.POLAR>
0

>  <SCORE.INTER.ROT>
0

>  <SCORE.INTER.SOLV>
8.4278

>  <SCORE.INTER.VDW>
-12.1489

>  <SCORE.INTER.norm>
-1.07619

>  <SCORE.INTRA>
0

>  <SCORE.INTRA.DIHEDRAL>
0

>  <SCORE.INTRA.DIHEDRAL.0>
0

>  <SCORE.INTRA.POLAR>
0

>  <SCORE.INTRA.POLAR.0>
0

>  <SCORE.INTRA.REPUL>
0

>  <SCORE.INTRA.REPUL.0>
0

>  <SCORE.INTRA.SOLV>
0

>  <SCORE.INTRA.SOLV.lig_0>
-29.58

>  <SCORE.INTRA.VDW>
0

>  <SCORE.INTRA.VDW.0>
0

>  <SCORE.INTRA.norm>
0

>  <SCORE.RESTR>
0

>  <SCORE.RESTR.CAVITY>
0

>  <SCORE.RESTR.norm>
0

>  <SCORE.SYSTEM>
0

>  <SCORE.SYSTEM.CONST>
0

>  <SCORE.SYSTEM.DIHEDRAL>
0

>  <SCORE.SYSTEM.SOLV>
0

>  <SCORE.SYSTEM.norm>
0

>  <SCORE.heavy>
8

>  <SCORE.norm>
-1.07619

>  <RMSD>
3.467

$$$$
ligand
 OpenBabel02271912143D
libRbt.so/2013.1/901 2013/11/27
  8  8  0  0  0  0  0  0  0  0999 V2000
    9.2702   10.0662   -1.5236 C   0  0  0  0  0  0  0  0  0  0  0  0
    9.4395   10.3698   -0.2369 N   0  0  0  0  0  0  0  0  0  0  0  0
   10.0107   11.5293    0.0993 C   0  0  0  0  0  0  0  0  0  0  0  0
   10.4021   12.3996   -0.8606 N   0  0  0  0  0  0  0  0  0  0  0  0
   10.2314   12.0795   -2.1544 C   0  0  0  0  0  0  0  0  0  0  0  0
    9.6603   10.9127   -2.4911 N   0  0  0  0  0  0  0  0  0  0  0  0
   10.1855   11.8319    1.5355 N   0  0  0  0  0  0  0  0  0  0  0  0
    8.6868    8.8833   -1.8249 O   0  0  0  0  0  0  0  0  0  0  0  0
  1  2  1  0  0  0  0
  1  6  1  0  0  0  0
  1  8  2  0  0  0  0
  2  3  1  0  0  0  0
  3  4  2  0  0  0  0
  3  7  1  0  0  0  0
  4  5  1  0  0  0  0
  5  6  2  0  0  0  0
M  END
>  <CHROM.1>
9.71082259,10.95785711,-0.93409167,2.40420588,-1.12000008,-1.52898114

>  <Name>
ligand

>  <RI>
0

>  <Rbt.Current_Directory>
/home/itssahil/PROJECTS/Mol_Feturizer/Test_systems_manuscript/rnas/3la5

>  <Rbt.Executable>
rbdock ($Id: //depot/dev/client3/rdock/2013.1/src/exe/rbdock.cxx#4 $)

>  <Rbt.Library>
libRbt.so (2013.1, Build901 2013/11/27)

>  <Rbt.Parameter_File>
/export/apps/rDock/src/rDock_2013.1_src/data/scripts/dock_solv.prm

>  <Rbt.Receptor>
prm/blind_docking_80.prm

>  <SCORE>
-8.63095

>  <SCORE.INTER>
-8.63095

>  <SCORE.INTER.CONST>
1

>  <SCORE.INTER.POLAR>
0

>  <SCORE.INTER.ROT>
0

>  <SCORE.INTER.SOLV>
8.32999

>  <SCORE.INTER.VDW>
-12.1306

>  <SCORE.INTER.norm>
-1.07887

>  <SCORE.INTRA>
0

>  <SCORE.INTRA.DIHEDRAL>
0

>  <SCORE.INTRA.DIHEDRAL.0>
0

>  <SCORE.INTRA.POLAR>
0

>  <SCORE.INTRA.POLAR.0>
0

>  <SCORE.INTRA.REPUL>
0

>  <SCORE.INTRA.REPUL.0>
0

>  <SCORE.INTRA.SOLV>
0

>  <SCORE.INTRA.SOLV.lig_0>
-29.58

>  <SCORE.INTRA.VDW>
0

>  <SCORE.INTRA.VDW.0>
0

>  <SCORE.INTRA.norm>
0

>  <SCORE.RESTR>
0

>  <SCORE.RESTR.CAVITY>
0

>  <SCORE.RESTR.norm>
0

>  <SCORE.SYSTEM>
0

>  <SCORE.SYSTEM.CONST>
0

>  <SCORE.SYSTEM.DIHEDRAL>
0

>  <SCORE.SYSTEM.SOLV>
0

>  <SCORE.SYSTEM.norm>
0

>  <SCORE.heavy>
8

>  <SCORE.norm>
-1.07887

>  <RMSD>
3.467

$$$$
ligand
 OpenBabel02271912143D
libRbt.so/2013.1/901 2013/11/27
  8  8  0  0  0  0  0  0  0  0999 V2000
    9.2780   10.0810   -1.5290 C   0  0  0  0  0  0  0  0  0  0  0  0
    9.3968   10.4021   -0.2409 N   0  0  0  0  0  0  0  0  0  0  0  0
    9.9527   11.5672    0.1016 C   0  0  0  0  0  0  0  0  0  0  0  0
   10.3795   12.4255   -0.8539 N   0  0  0  0  0  0  0  0  0  0  0  0
   10.2596   12.0878   -2.1489 C   0  0  0  0  0  0  0  0  0  0  0  0
    9.7039   10.9154   -2.4919 N   0  0  0  0  0  0  0  0  0  0  0  0
   10.0711   11.8893    1.5393 N   0  0  0  0  0  0  0  0  0  0  0  0
    8.7088    8.8929   -1.8368 O   0  0  0  0  0  0  0  0  0  0  0  0
  1  2  1  0  0  0  0
  1  6  1  0  0  0  0
  1  8  2  0  0  0  0
  2  3  1  0  0  0  0
  3  4  2  0  0  0  0
  3  7  1  0  0  0  0
  4  5  1  0  0  0  0
  5  6  2  0  0  0  0
M  END
>  <CHROM.1>
9.69400931,10.98140884,-0.93484724,2.31505342,-1.12174034,-1.62261431

>  <Name>
ligand

>  <RI>
0

>  <Rbt.Current_Directory>
/home/itssahil/PROJECTS/Mol_Feturizer/Test_systems_manuscript/rnas/3la5

>  <Rbt.Executable>
rbdock ($Id: //depot/dev/client3/rdock/2013.1/src/exe/rbdock.cxx#4 $)

>  <Rbt.Library>
libRbt.so (2013.1, Build901 2013/11/27)

>  <Rbt.Parameter_File>
/export/apps/rDock/src/rDock_2013.1_src/data/scripts/dock_solv.prm

>  <Rbt.Receptor>
prm/blind_docking_80.prm

>  <SCORE>
-8.60882

>  <SCORE.INTER>
-8.60882

>  <SCORE.INTER.CONST>
1

>  <SCORE.INTER.POLAR>
0

>  <SCORE.INTER.ROT>
0

>  <SCORE.INTER.SOLV>
8.33074

>  <SCORE.INTER.VDW>
-12.1161

>  <SCORE.INTER.norm>
-1.0761

>  <SCORE.INTRA>
0

>  <SCORE.INTRA.DIHEDRAL>
0

>  <SCORE.INTRA.DIHEDRAL.0>
0

>  <SCORE.INTRA.POLAR>
0

>  <SCORE.INTRA.POLAR.0>
0

>  <SCORE.INTRA.REPUL>
0

>  <SCORE.INTRA.REPUL.0>
0

>  <SCORE.INTRA.SOLV>
0

>  <SCORE.INTRA.SOLV.lig_0>
-29.58

>  <SCORE.INTRA.VDW>
0

>  <SCORE.INTRA.VDW.0>
0

>  <SCORE.INTRA.norm>
0

>  <SCORE.RESTR>
0

>  <SCORE.RESTR.CAVITY>
0

>  <SCORE.RESTR.norm>
0

>  <SCORE.SYSTEM>
0

>  <SCORE.SYSTEM.CONST>
0

>  <SCORE.SYSTEM.DIHEDRAL>
0

>  <SCORE.SYSTEM.SOLV>
0

>  <SCORE.SYSTEM.norm>
0

>  <SCORE.heavy>
8

>  <SCORE.norm>
-1.0761

>  <RMSD>
3.467

$$$$
ligand
 OpenBabel02271912143D
libRbt.so/2013.1/901 2013/11/27
  8  8  0  0  0  0  0  0  0  0999 V2000
    9.2715   10.0667   -1.5278 C   0  0  0  0  0  0  0  0  0  0  0  0
    9.4397   10.3682   -0.2405 N   0  0  0  0  0  0  0  0  0  0  0  0
   10.0112   11.5270    0.0980 C   0  0  0  0  0  0  0  0  0  0  0  0
   10.4038   12.3985   -0.8602 N   0  0  0  0  0  0  0  0  0  0  0  0
   10.2342   12.0805   -2.1546 C   0  0  0  0  0  0  0  0  0  0  0  0
    9.6629   10.9144   -2.4937 N   0  0  0  0  0  0  0  0  0  0  0  0
   10.1848   11.8273    1.5348 N   0  0  0  0  0  0  0  0  0  0  0  0
    8.6879    8.8845   -1.8314 O   0  0  0  0  0  0  0  0  0  0  0  0
  1  2  1  0  0  0  0
  1  6  1  0  0  0  0
  1  8  2  0  0  0  0
  2  3  1  0  0  0  0
  3  4  2  0  0  0  0
  3  7  1  0  0  0  0
  4  5  1  0  0  0  0
  5  6  2  0  0  0  0
M  END
>  <CHROM.1>
9.71201115,10.95722716,-0.93652703,2.40205219,-1.11960209,-1.52939506

>  <Name>
ligand

>  <RI>
0

>  <Rbt.Current_Directory>
/home/itssahil/PROJECTS/Mol_Feturizer/Test_systems_manuscript/rnas/3la5

>  <Rbt.Executable>
rbdock ($Id: //depot/dev/client3/rdock/2013.1/src/exe/rbdock.cxx#4 $)

>  <Rbt.Library>
libRbt.so (2013.1, Build901 2013/11/27)

>  <Rbt.Parameter_File>
/export/apps/rDock/src/rDock_2013.1_src/data/scripts/dock_solv.prm

>  <Rbt.Receptor>
prm/pocket_docking_5.prm

>  <SCORE>
-8.62942

>  <SCORE.INTER>
-8.62942

>  <SCORE.INTER.CONST>
1

>  <SCORE.INTER.POLAR>
0

>  <SCORE.INTER.ROT>
0

>  <SCORE.INTER.SOLV>
8.33147

>  <SCORE.INTER.VDW>
-12.1301

>  <SCORE.INTER.norm>
-1.07868

>  <SCORE.INTRA>
0

>  <SCORE.INTRA.DIHEDRAL>
0

>  <SCORE.INTRA.DIHEDRAL.0>
0

>  <SCORE.INTRA.POLAR>
0

>  <SCORE.INTRA.POLAR.0>
0

>  <SCORE.INTRA.REPUL>
0

>  <SCORE.INTRA.REPUL.0>
0

>  <SCORE.INTRA.SOLV>
0

>  <SCORE.INTRA.SOLV.lig_0>
-29.58

>  <SCORE.INTRA.VDW>
0

>  <SCORE.INTRA.VDW.0>
0

>  <SCORE.INTRA.norm>
0

>  <SCORE.RESTR>
0

>  <SCORE.RESTR.CAVITY>
0

>  <SCORE.RESTR.norm>
0

>  <SCORE.SYSTEM>
0

>  <SCORE.SYSTEM.CONST>
0

>  <SCORE.SYSTEM.DIHEDRAL>
0

>  <SCORE.SYSTEM.SOLV>
0

>  <SCORE.SYSTEM.norm>
0

>  <SCORE.heavy>
8

>  <SCORE.norm>
-1.07868

>  <RMSD>
3.467

$$$$
ligand
 OpenBabel02271912143D
libRbt.so/2013.1/901 2013/11/27
  8  8  0  0  0  0  0  0  0  0999 V2000
    9.2696   10.0915   -1.5279 C   0  0  0  0  0  0  0  0  0  0  0  0
    9.3989   10.4132   -0.2410 N   0  0  0  0  0  0  0  0  0  0  0  0
    9.9565   11.5791    0.0963 C   0  0  0  0  0  0  0  0  0  0  0  0
   10.3743   12.4373   -0.8632 N   0  0  0  0  0  0  0  0  0  0  0  0
   10.2439   12.0990   -2.1570 C   0  0  0  0  0  0  0  0  0  0  0  0
    9.6865   10.9259   -2.4948 N   0  0  0  0  0  0  0  0  0  0  0  0
   10.0867   11.9019    1.5328 N   0  0  0  0  0  0  0  0  0  0  0  0
    8.6989    8.9027   -1.8304 O   0  0  0  0  0  0  0  0  0  0  0  0
  1  2  1  0  0  0  0
  1  6  1  0  0  0  0
  1  8  2  0  0  0  0
  2  3  1  0  0  0  0
  3  4  2  0  0  0  0
  3  7  1  0  0  0  0
  4  5  1  0  0  0  0
  5  6  2  0  0  0  0
M  END
>  <CHROM.1>
9.68964736,10.99254124,-0.93769513,2.33441688,-1.12309653,-1.60559586

>  <Name>
ligand

>  <RI>
0

>  <Rbt.Current_Directory>
/home/itssahil/PROJECTS/Mol_Feturizer/Test_systems_manuscript/rnas/3la5

>  <Rbt.Executable>
rbdock ($Id: //depot/dev/client3/rdock/2013.1/src/exe/rbdock.cxx#4 $)

>  <Rbt.Library>
libRbt.so (2013.1, Build901 2013/11/27)

>  <Rbt.Parameter_File>
/export/apps/rDock/src/rDock_2013.1_src/data/scripts/dock_solv.prm

>  <Rbt.Receptor>
prm/pocket_docking_5.prm

>  <SCORE>
-8.65329

>  <SCORE.INTER>
-8.65329

>  <SCORE.INTER.CONST>
1

>  <SCORE.INTER.POLAR>
0

>  <SCORE.INTER.ROT>
0

>  <SCORE.INTER.SOLV>
8.31249

>  <SCORE.INTER.VDW>
-12.1397

>  <SCORE.INTER.norm>
-1.08166

>  <SCORE.INTRA>
0

>  <SCORE.INTRA.DIHEDRAL>
0

>  <SCORE.INTRA.DIHEDRAL.0>
0

>  <SCORE.INTRA.POLAR>
0

>  <SCORE.INTRA.POLAR.0>
0

>  <SCORE.INTRA.REPUL>
0

>  <SCORE.INTRA.REPUL.0>
0

>  <SCORE.INTRA.SOLV>
0

>  <SCORE.INTRA.SOLV.lig_0>
-29.58

>  <SCORE.INTRA.VDW>
0

>  <SCORE.INTRA.VDW.0>
0

>  <SCORE.INTRA.norm>
0

>  <SCORE.RESTR>
0

>  <SCORE.RESTR.CAVITY>
0

>  <SCORE.RESTR.norm>
0

>  <SCORE.SYSTEM>
0

>  <SCORE.SYSTEM.CONST>
0

>  <SCORE.SYSTEM.DIHEDRAL>
0

>  <SCORE.SYSTEM.SOLV>
0

>  <SCORE.SYSTEM.norm>
0

>  <SCORE.heavy>
8

>  <SCORE.norm>
-1.08166

>  <RMSD>
3.467

$$$$
ligand
 OpenBabel02271912143D
libRbt.so/2013.1/901 2013/11/27
  8  8  0  0  0  0  0  0  0  0999 V2000
    9.2509   10.0806   -1.5268 C   0  0  0  0  0  0  0  0  0  0  0  0
    9.4231   10.3808   -0.2396 N   0  0  0  0  0  0  0  0  0  0  0  0
   10.0086   11.5328    0.0981 C   0  0  0  0  0  0  0  0  0  0  0  0
   10.4113   12.3991   -0.8607 N   0  0  0  0  0  0  0  0  0  0  0  0
   10.2375   12.0824   -2.1549 C   0  0  0  0  0  0  0  0  0  0  0  0
    9.6522   10.9231   -2.4932 N   0  0  0  0  0  0  0  0  0  0  0  0
   10.1861   11.8318    1.5347 N   0  0  0  0  0  0  0  0  0  0  0  0
    8.6531    8.9053   -1.8296 O   0  0  0  0  0  0  0  0  0  0  0  0
  1  2  1  0  0  0  0
  1  6  1  0  0  0  0
  1  8  2  0  0  0  0
  2  3  1  0  0  0  0
  3  4  2  0  0  0  0
  3  7  1  0  0  0  0
  4  5  1  0  0  0  0
  5  6  2  0  0  0  0
M  END
>  <CHROM.1>
9.70224355,10.96613916,-0.93609304,2.40158646,-1.10762035,-1.53031968

>  <Name>
ligand

>  <RI>
0

>  <Rbt.Current_Directory>
/home/itssahil/PROJECTS/Mol_Feturizer/Test_systems_manuscript/rnas/3la5

>  <Rbt.Executable>
rbdock ($Id: //depot/dev/client3/rdock/2013.1/src/exe/rbdock.cxx#4 $)

>  <Rbt.Library>
libRbt.so (2013.1, Build901 2013/11/27)

>  <Rbt.Parameter_File>
/export/apps/rDock/src/rDock_2013.1_src/data/scripts/dock_solv.prm

>  <Rbt.Receptor>
prm/pocket_docking_5.prm

>  <SCORE>
-8.60036

>  <SCORE.INTER>
-8.60036

>  <SCORE.INTER.CONST>
1

>  <SCORE.INTER.POLAR>
0

>  <SCORE.INTER.ROT>
0

>  <SCORE.INTER.SOLV>
8.36874

>  <SCORE.INTER.VDW>
-12.1232

>  <SCORE.INTER.norm>
-1.07504

>  <SCORE.INTRA>
0

>  <SCORE.INTRA.DIHEDRAL>
0

>  <SCORE.INTRA.DIHEDRAL.0>
0

>  <SCORE.INTRA.POLAR>
0

>  <SCORE.INTRA.POLAR.0>
0

>  <SCORE.INTRA.REPUL>
0

>  <SCORE.INTRA.REPUL.0>
0

>  <SCORE.INTRA.SOLV>
0

>  <SCORE.INTRA.SOLV.lig_0>
-29.58

>  <SCORE.INTRA.VDW>
0

>  <SCORE.INTRA.VDW.0>
0

>  <SCORE.INTRA.norm>
0

>  <SCORE.RESTR>
0

>  <SCORE.RESTR.CAVITY>
0

>  <SCORE.RESTR.norm>
0

>  <SCORE.SYSTEM>
0

>  <SCORE.SYSTEM.CONST>
0

>  <SCORE.SYSTEM.DIHEDRAL>
0

>  <SCORE.SYSTEM.SOLV>
0

>  <SCORE.SYSTEM.norm>
0

>  <SCORE.heavy>
8

>  <SCORE.norm>
-1.07504

>  <RMSD>
3.467

$$$$
ligand
 OpenBabel02271912143D
libRbt.so/2013.1/901 2013/11/27
  8  8  0  0  0  0  0  0  0  0999 V2000
    9.2739   10.0550   -1.5250 C   0  0  0  0  0  0  0  0  0  0  0  0
    9.4431   10.3520   -0.2367 N   0  0  0  0  0  0  0  0  0  0  0  0
   10.0123   11.5108    0.1055 C   0  0  0  0  0  0  0  0  0  0  0  0
   10.4016   12.3870   -0.8499 N   0  0  0  0  0  0  0  0  0  0  0  0
   10.2310   12.0735   -2.1453 C   0  0  0  0  0  0  0  0  0  0  0  0
    9.6620   10.9074   -2.4881 N   0  0  0  0  0  0  0  0  0  0  0  0
   10.1870   11.8060    1.5432 N   0  0  0  0  0  0  0  0  0  0  0  0
    8.6926    8.8726   -1.8324 O   0  0  0  0  0  0  0  0  0  0  0  0
  1  2  1  0  0  0  0
  1  6  1  0  0  0  0
  1  8  2  0  0  0  0
  2  3  1  0  0  0  0
  3  4  2  0  0  0  0
  3  7  1  0  0  0  0
  4  5  1  0  0  0  0
  5  6  2  0  0  0  0
M  END
>  <CHROM.1>
9.71304430,10.94432309,-0.93088977,2.40531251,-1.12188719,-1.52259206

>  <Name>
ligand

>  <RI>
0

>  <Rbt.Current_Directory>
/home/itssahil/PROJECTS/Mol_Feturizer/Test_systems_manuscript/rnas/3la5

>  <Rbt.Executable>
rbdock ($Id: //depot/dev/client3/rdock/2013.1/src/exe/rbdock.cxx#4 $)

>  <Rbt.Library>
libRbt.so (2013.1, Build901 2013/11/27)

>  <Rbt.Parameter_File>
/export/apps/rDock/src/rDock_2013.1_src/data/scripts/dock_solv.prm

>  <Rbt.Receptor>
prm/pocket_docking_5.prm

>  <SCORE>
-8.61386

>  <SCORE.INTER>
-8.61386

>  <SCORE.INTER.CONST>
1

>  <SCORE.INTER.POLAR>
0

>  <SCORE.INTER.ROT>
0

>  <SCORE.INTER.SOLV>
8.36969

>  <SCORE.INTER.VDW>
-12.1325

>  <SCORE.INTER.norm>
-1.07673

>  <SCORE.INTRA>
0

>  <SCORE.INTRA.DIHEDRAL>
0

>  <SCORE.INTRA.DIHEDRAL.0>
0

>  <SCORE.INTRA.POLAR>
0

>  <SCORE.INTRA.POLAR.0>
0

>  <SCORE.INTRA.REPUL>
0

>  <SCORE.INTRA.REPUL.0>
0

>  <SCORE.INTRA.SOLV>
0

>  <SCORE.INTRA.SOLV.lig_0>
-29.58

>  <SCORE.INTRA.VDW>
0

>  <SCORE.INTRA.VDW.0>
0

>  <SCORE.INTRA.norm>
0

>  <SCORE.RESTR>
0

>  <SCORE.RESTR.CAVITY>
0

>  <SCORE.RESTR.norm>
0

>  <SCORE.SYSTEM>
0

>  <SCORE.SYSTEM.CONST>
0

>  <SCORE.SYSTEM.DIHEDRAL>
0

>  <SCORE.SYSTEM.SOLV>
0

>  <SCORE.SYSTEM.norm>
0

>  <SCORE.heavy>
8

>  <SCORE.norm>
-1.07673

>  <RMSD>
3.467

$$$$
ligand
 OpenBabel02271912143D
libRbt.so/2013.1/901 2013/11/27
  8  8  0  0  0  0  0  0  0  0999 V2000
    9.2808   10.1180   -1.5593 C   0  0  0  0  0  0  0  0  0  0  0  0
    9.3720   10.4378   -0.2686 N   0  0  0  0  0  0  0  0  0  0  0  0
    9.9331   11.5964    0.0875 C   0  0  0  0  0  0  0  0  0  0  0  0
   10.3930   12.4494   -0.8574 N   0  0  0  0  0  0  0  0  0  0  0  0
   10.3007   12.1130   -2.1549 C   0  0  0  0  0  0  0  0  0  0  0  0
    9.7397   10.9471   -2.5114 N   0  0  0  0  0  0  0  0  0  0  0  0
   10.0203   11.9173    1.5276 N   0  0  0  0  0  0  0  0  0  0  0  0
    8.7052    8.9366   -1.8809 O   0  0  0  0  0  0  0  0  0  0  0  0
  1  2  1  0  0  0  0
  1  6  1  0  0  0  0
  1  8  2  0  0  0  0
  2  3  1  0  0  0  0
  3  4  2  0  0  0  0
  3  7  1  0  0  0  0
  4  5  1  0  0  0  0
  5  6  2  0  0  0  0
M  END
>  <CHROM.1>
9.69276126,11.01348865,-0.95507710,2.26203379,-1.10815083,-1.67024022

>  <Name>
ligand

>  <RI>
0

>  <Rbt.Current_Directory>
/home/itssahil/PROJECTS/Mol_Feturizer/Test_systems_manuscript/rnas/3la5

>  <Rbt.Executable>
rbdock ($Id: //depot/dev/client3/rdock/2013.1/src/exe/rbdock.cxx#4 $)

>  <Rbt.Library>
libRbt.so (2013.1, Build901 2013/11/27)

>  <Rbt.Parameter_File>
/export/apps/rDock/src/rDock_2013.1_src/data/scripts/dock_solv.prm

>  <Rbt.Receptor>
prm/pocket_docking_4.prm

>  <SCORE>
-8.59035

>  <SCORE.INTER>
-8.59035

>  <SCORE.INTER.CONST>
1

>  <SCORE.INTER.POLAR>
0

>  <SCORE.INTER.ROT>
0

>  <SCORE.INTER.SOLV>
8.38528

>  <SCORE.INTER.VDW>
-12.122

>  <SCORE.INTER.norm>
-1.07379

>  <SCORE.INTRA>
0

>  <SCORE.INTRA.DIHEDRAL>
0

>  <SCORE.INTRA.DIHEDRAL.0>
0

>  <SCORE.INTRA.POLAR>
0

>  <SCORE.INTRA.POLAR.0>
0

>  <SCORE.INTRA.REPUL>
0

>  <SCORE.INTRA.REPUL.0>
0

>  <SCORE.INTRA.SOLV>
0

>  <SCORE.INTRA.SOLV.lig_0>
-29.58

>  <SCORE.INTRA.VDW>
0

>  <SCORE.INTRA.VDW.0>
0

>  <SCORE.INTRA.norm>
0

>  <SCORE.RESTR>
0

>  <SCORE.RESTR.CAVITY>
0

>  <SCORE.RESTR.norm>
0

>  <SCORE.SYSTEM>
0

>  <SCORE.SYSTEM.CONST>
0

>  <SCORE.SYSTEM.DIHEDRAL>
0

>  <SCORE.SYSTEM.SOLV>
0

>  <SCORE.SYSTEM.norm>
0

>  <SCORE.heavy>
8

>  <SCORE.norm>
-1.07379

>  <RMSD>
3.468

$$$$
ligand
 OpenBabel02271912143D
libRbt.so/2013.1/901 2013/11/27
  8  8  0  0  0  0  0  0  0  0999 V2000
    9.2738   10.0633   -1.5319 C   0  0  0  0  0  0  0  0  0  0  0  0
    9.4401   10.3619   -0.2436 N   0  0  0  0  0  0  0  0  0  0  0  0
   10.0100   11.5204    0.0984 C   0  0  0  0  0  0  0  0  0  0  0  0
   10.4029   12.3947   -0.8573 N   0  0  0  0  0  0  0  0  0  0  0  0
   10.2353   12.0796   -2.1526 C   0  0  0  0  0  0  0  0  0  0  0  0
    9.6656   10.9138   -2.4952 N   0  0  0  0  0  0  0  0  0  0  0  0
   10.1813   11.8175    1.5361 N   0  0  0  0  0  0  0  0  0  0  0  0
    8.6918    8.8813   -1.8391 O   0  0  0  0  0  0  0  0  0  0  0  0
  1  2  1  0  0  0  0
  1  6  1  0  0  0  0
  1  8  2  0  0  0  0
  2  3  1  0  0  0  0
  3  4  2  0  0  0  0
  3  7  1  0  0  0  0
  4  5  1  0  0  0  0
  5  6  2  0  0  0  0
M  END
>  <CHROM.1>
9.71266024,10.95286868,-0.93793303,2.39917201,-1.12065164,-1.52958126

>  <Name>
ligand

>  <RI>
0

>  <Rbt.Current_Directory>
/home/itssahil/PROJECTS/Mol_Feturizer/Test_systems_manuscript/rnas/3la5

>  <Rbt.Executable>
rbdock ($Id: //depot/dev/client3/rdock/2013.1/src/exe/rbdock.cxx#4 $)

>  <Rbt.Library>
libRbt.so (2013.1, Build901 2013/11/27)

>  <Rbt.Parameter_File>
/export/apps/rDock/src/rDock_2013.1_src/data/scripts/dock_solv.prm

>  <Rbt.Receptor>
prm/pocket_docking_6.prm

>  <SCORE>
-8.62407

>  <SCORE.INTER>
-8.62407

>  <SCORE.INTER.CONST>
1

>  <SCORE.INTER.POLAR>
0

>  <SCORE.INTER.ROT>
0

>  <SCORE.INTER.SOLV>
8.33946

>  <SCORE.INTER.VDW>
-12.1292

>  <SCORE.INTER.norm>
-1.07801

>  <SCORE.INTRA>
0

>  <SCORE.INTRA.DIHEDRAL>
0

>  <SCORE.INTRA.DIHEDRAL.0>
0

>  <SCORE.INTRA.POLAR>
0

>  <SCORE.INTRA.POLAR.0>
0

>  <SCORE.INTRA.REPUL>
0

>  <SCORE.INTRA.REPUL.0>
0

>  <SCORE.INTRA.SOLV>
0

>  <SCORE.INTRA.SOLV.lig_0>
-29.58

>  <SCORE.INTRA.VDW>
0

>  <SCORE.INTRA.VDW.0>
0

>  <SCORE.INTRA.norm>
0

>  <SCORE.RESTR>
0

>  <SCORE.RESTR.CAVITY>
0

>  <SCORE.RESTR.norm>
0

>  <SCORE.SYSTEM>
0

>  <SCORE.SYSTEM.CONST>
0

>  <SCORE.SYSTEM.DIHEDRAL>
0

>  <SCORE.SYSTEM.SOLV>
0

>  <SCORE.SYSTEM.norm>
0

>  <SCORE.heavy>
8

>  <SCORE.norm>
-1.07801

>  <RMSD>
3.468

$$$$
ligand
 OpenBabel02271912143D
libRbt.so/2013.1/901 2013/11/27
  8  8  0  0  0  0  0  0  0  0999 V2000
    9.2734   10.0638   -1.5290 C   0  0  0  0  0  0  0  0  0  0  0  0
    9.4384   10.3682   -0.2419 N   0  0  0  0  0  0  0  0  0  0  0  0
   10.0103   11.5271    0.0954 C   0  0  0  0  0  0  0  0  0  0  0  0
   10.4065   12.3960   -0.8638 N   0  0  0  0  0  0  0  0  0  0  0  0
   10.2401   12.0750   -2.1579 C   0  0  0  0  0  0  0  0  0  0  0  0
    9.6684   10.9089   -2.4958 N   0  0  0  0  0  0  0  0  0  0  0  0
   10.1802   11.8306    1.5319 N   0  0  0  0  0  0  0  0  0  0  0  0
    8.6893    8.8816   -1.8315 O   0  0  0  0  0  0  0  0  0  0  0  0
  1  2  1  0  0  0  0
  1  6  1  0  0  0  0
  1  8  2  0  0  0  0
  2  3  1  0  0  0  0
  3  4  2  0  0  0  0
  3  7  1  0  0  0  0
  4  5  1  0  0  0  0
  5  6  2  0  0  0  0
M  END
>  <CHROM.1>
9.71328390,10.95526880,-0.93863204,2.39564738,-1.11856711,-1.53750736

>  <Name>
ligand

>  <RI>
0

>  <Rbt.Current_Directory>
/home/itssahil/PROJECTS/Mol_Feturizer/Test_systems_manuscript/rnas/3la5

>  <Rbt.Executable>
rbdock ($Id: //depot/dev/client3/rdock/2013.1/src/exe/rbdock.cxx#4 $)

>  <Rbt.Library>
libRbt.so (2013.1, Build901 2013/11/27)

>  <Rbt.Parameter_File>
/export/apps/rDock/src/rDock_2013.1_src/data/scripts/dock_solv.prm

>  <Rbt.Receptor>
prm/pocket_docking_5.prm

>  <SCORE>
-8.62657

>  <SCORE.INTER>
-8.62657

>  <SCORE.INTER.CONST>
1

>  <SCORE.INTER.POLAR>
0

>  <SCORE.INTER.ROT>
0

>  <SCORE.INTER.SOLV>
8.32551

>  <SCORE.INTER.VDW>
-12.1262

>  <SCORE.INTER.norm>
-1.07832

>  <SCORE.INTRA>
0

>  <SCORE.INTRA.DIHEDRAL>
0

>  <SCORE.INTRA.DIHEDRAL.0>
0

>  <SCORE.INTRA.POLAR>
0

>  <SCORE.INTRA.POLAR.0>
0

>  <SCORE.INTRA.REPUL>
0

>  <SCORE.INTRA.REPUL.0>
0

>  <SCORE.INTRA.SOLV>
0

>  <SCORE.INTRA.SOLV.lig_0>
-29.58

>  <SCORE.INTRA.VDW>
0

>  <SCORE.INTRA.VDW.0>
0

>  <SCORE.INTRA.norm>
0

>  <SCORE.RESTR>
0

>  <SCORE.RESTR.CAVITY>
0

>  <SCORE.RESTR.norm>
0

>  <SCORE.SYSTEM>
0

>  <SCORE.SYSTEM.CONST>
0

>  <SCORE.SYSTEM.DIHEDRAL>
0

>  <SCORE.SYSTEM.SOLV>
0

>  <SCORE.SYSTEM.norm>
0

>  <SCORE.heavy>
8

>  <SCORE.norm>
-1.07832

>  <RMSD>
3.469

$$$$
ligand
 OpenBabel02271912143D
libRbt.so/2013.1/901 2013/11/27
  8  8  0  0  0  0  0  0  0  0999 V2000
    9.2769   10.0848   -1.5288 C   0  0  0  0  0  0  0  0  0  0  0  0
    9.3940   10.4104   -0.2417 N   0  0  0  0  0  0  0  0  0  0  0  0
    9.9442   11.5794    0.0972 C   0  0  0  0  0  0  0  0  0  0  0  0
   10.3669   12.4366   -0.8611 N   0  0  0  0  0  0  0  0  0  0  0  0
   10.2489   12.0943   -2.1550 C   0  0  0  0  0  0  0  0  0  0  0  0
    9.6989   10.9181   -2.4943 N   0  0  0  0  0  0  0  0  0  0  0  0
   10.0608   11.9066    1.5339 N   0  0  0  0  0  0  0  0  0  0  0  0
    8.7134    8.8929   -1.8328 O   0  0  0  0  0  0  0  0  0  0  0  0
  1  2  1  0  0  0  0
  1  6  1  0  0  0  0
  1  8  2  0  0  0  0
  2  3  1  0  0  0  0
  3  4  2  0  0  0  0
  3  7  1  0  0  0  0
  4  5  1  0  0  0  0
  5  6  2  0  0  0  0
M  END
>  <CHROM.1>
9.68845384,10.98901330,-0.93746356,2.31414963,-1.12655349,-1.62661786

>  <Name>
ligand

>  <RI>
0

>  <Rbt.Current_Directory>
/home/itssahil/PROJECTS/Mol_Feturizer/Test_systems_manuscript/rnas/3la5

>  <Rbt.Executable>
rbdock ($Id: //depot/dev/client3/rdock/2013.1/src/exe/rbdock.cxx#4 $)

>  <Rbt.Library>
libRbt.so (2013.1, Build901 2013/11/27)

>  <Rbt.Parameter_File>
/export/apps/rDock/src/rDock_2013.1_src/data/scripts/dock_solv.prm

>  <Rbt.Receptor>
prm/pocket_docking_7.prm

>  <SCORE>
-8.62983

>  <SCORE.INTER>
-8.62983

>  <SCORE.INTER.CONST>
1

>  <SCORE.INTER.POLAR>
0

>  <SCORE.INTER.ROT>
0

>  <SCORE.INTER.SOLV>
8.32613

>  <SCORE.INTER.VDW>
-12.1286

>  <SCORE.INTER.norm>
-1.07873

>  <SCORE.INTRA>
0

>  <SCORE.INTRA.DIHEDRAL>
0

>  <SCORE.INTRA.DIHEDRAL.0>
0

>  <SCORE.INTRA.POLAR>
0

>  <SCORE.INTRA.POLAR.0>
0

>  <SCORE.INTRA.REPUL>
0

>  <SCORE.INTRA.REPUL.0>
0

>  <SCORE.INTRA.SOLV>
0

>  <SCORE.INTRA.SOLV.lig_0>
-29.58

>  <SCORE.INTRA.VDW>
0

>  <SCORE.INTRA.VDW.0>
0

>  <SCORE.INTRA.norm>
0

>  <SCORE.RESTR>
0

>  <SCORE.RESTR.CAVITY>
0

>  <SCORE.RESTR.norm>
0

>  <SCORE.SYSTEM>
0

>  <SCORE.SYSTEM.CONST>
0

>  <SCORE.SYSTEM.DIHEDRAL>
0

>  <SCORE.SYSTEM.SOLV>
0

>  <SCORE.SYSTEM.norm>
0

>  <SCORE.heavy>
8

>  <SCORE.norm>
-1.07873

>  <RMSD>
3.469

$$$$
ligand
 OpenBabel02271912143D
libRbt.so/2013.1/901 2013/11/27
  8  8  0  0  0  0  0  0  0  0999 V2000
    9.2694   10.0833   -1.5284 C   0  0  0  0  0  0  0  0  0  0  0  0
    9.4003   10.4039   -0.2413 N   0  0  0  0  0  0  0  0  0  0  0  0
    9.9514   11.5727    0.0962 C   0  0  0  0  0  0  0  0  0  0  0  0
   10.3611   12.4351   -0.8632 N   0  0  0  0  0  0  0  0  0  0  0  0
   10.2292   12.0979   -2.1571 C   0  0  0  0  0  0  0  0  0  0  0  0
    9.6783   10.9218   -2.4951 N   0  0  0  0  0  0  0  0  0  0  0  0
   10.0836   11.8942    1.5328 N   0  0  0  0  0  0  0  0  0  0  0  0
    8.7054    8.8914   -1.8311 O   0  0  0  0  0  0  0  0  0  0  0  0
  1  2  1  0  0  0  0
  1  6  1  0  0  0  0
  1  8  2  0  0  0  0
  2  3  1  0  0  0  0
  3  4  2  0  0  0  0
  3  7  1  0  0  0  0
  4  5  1  0  0  0  0
  5  6  2  0  0  0  0
M  END
>  <CHROM.1>
9.68538621,10.98611693,-0.93798538,2.34041786,-1.12952329,-1.59865667

>  <Name>
ligand

>  <RI>
0

>  <Rbt.Current_Directory>
/home/itssahil/PROJECTS/Mol_Feturizer/Test_systems_manuscript/rnas/3la5

>  <Rbt.Executable>
rbdock ($Id: //depot/dev/client3/rdock/2013.1/src/exe/rbdock.cxx#4 $)

>  <Rbt.Library>
libRbt.so (2013.1, Build901 2013/11/27)

>  <Rbt.Parameter_File>
/export/apps/rDock/src/rDock_2013.1_src/data/scripts/dock_solv.prm

>  <Rbt.Receptor>
prm/blind_docking_100.prm

>  <SCORE>
-8.66488

>  <SCORE.INTER>
-8.66488

>  <SCORE.INTER.CONST>
1

>  <SCORE.INTER.POLAR>
0

>  <SCORE.INTER.ROT>
0

>  <SCORE.INTER.SOLV>
8.31639

>  <SCORE.INTER.VDW>
-12.1487

>  <SCORE.INTER.norm>
-1.08311

>  <SCORE.INTRA>
0

>  <SCORE.INTRA.DIHEDRAL>
0

>  <SCORE.INTRA.DIHEDRAL.0>
0

>  <SCORE.INTRA.POLAR>
0

>  <SCORE.INTRA.POLAR.0>
0

>  <SCORE.INTRA.REPUL>
0

>  <SCORE.INTRA.REPUL.0>
0

>  <SCORE.INTRA.SOLV>
0

>  <SCORE.INTRA.SOLV.lig_0>
-29.58

>  <SCORE.INTRA.VDW>
0

>  <SCORE.INTRA.VDW.0>
0

>  <SCORE.INTRA.norm>
0

>  <SCORE.RESTR>
0

>  <SCORE.RESTR.CAVITY>
0

>  <SCORE.RESTR.norm>
0

>  <SCORE.SYSTEM>
0

>  <SCORE.SYSTEM.CONST>
0

>  <SCORE.SYSTEM.DIHEDRAL>
0

>  <SCORE.SYSTEM.SOLV>
0

>  <SCORE.SYSTEM.norm>
0

>  <SCORE.heavy>
8

>  <SCORE.norm>
-1.08311

>  <RMSD>
3.470

$$$$
ligand
 OpenBabel02271912143D
libRbt.so/2013.1/901 2013/11/27
  8  8  0  0  0  0  0  0  0  0999 V2000
    9.2755   10.0777   -1.5219 C   0  0  0  0  0  0  0  0  0  0  0  0
    9.4062   10.4059   -0.2367 N   0  0  0  0  0  0  0  0  0  0  0  0
    9.9598   11.5756    0.0940 C   0  0  0  0  0  0  0  0  0  0  0  0
   10.3720   12.4311   -0.8704 N   0  0  0  0  0  0  0  0  0  0  0  0
   10.2402   12.0862   -2.1623 C   0  0  0  0  0  0  0  0  0  0  0  0
    9.6869   10.9093   -2.4934 N   0  0  0  0  0  0  0  0  0  0  0  0
   10.0917   11.9056    1.5287 N   0  0  0  0  0  0  0  0  0  0  0  0
    8.7090    8.8852   -1.8176 O   0  0  0  0  0  0  0  0  0  0  0  0
  1  2  1  0  0  0  0
  1  6  1  0  0  0  0
  1  8  2  0  0  0  0
  2  3  1  0  0  0  0
  3  4  2  0  0  0  0
  3  7  1  0  0  0  0
  4  5  1  0  0  0  0
  5  6  2  0  0  0  0
M  END
>  <CHROM.1>
9.69311799,10.98321130,-0.93672861,2.33902257,-1.12725937,-1.60607984

>  <Name>
ligand

>  <RI>
0

>  <Rbt.Current_Directory>
/home/itssahil/PROJECTS/Mol_Feturizer/Test_systems_manuscript/rnas/3la5

>  <Rbt.Executable>
rbdock ($Id: //depot/dev/client3/rdock/2013.1/src/exe/rbdock.cxx#4 $)

>  <Rbt.Library>
libRbt.so (2013.1, Build901 2013/11/27)

>  <Rbt.Parameter_File>
/export/apps/rDock/src/rDock_2013.1_src/data/scripts/dock_solv.prm

>  <Rbt.Receptor>
prm/blind_docking_60.prm

>  <SCORE>
-8.66454

>  <SCORE.INTER>
-8.66454

>  <SCORE.INTER.CONST>
1

>  <SCORE.INTER.POLAR>
0

>  <SCORE.INTER.ROT>
0

>  <SCORE.INTER.SOLV>
8.29286

>  <SCORE.INTER.VDW>
-12.1406

>  <SCORE.INTER.norm>
-1.08307

>  <SCORE.INTRA>
0

>  <SCORE.INTRA.DIHEDRAL>
0

>  <SCORE.INTRA.DIHEDRAL.0>
0

>  <SCORE.INTRA.POLAR>
0

>  <SCORE.INTRA.POLAR.0>
0

>  <SCORE.INTRA.REPUL>
0

>  <SCORE.INTRA.REPUL.0>
0

>  <SCORE.INTRA.SOLV>
0

>  <SCORE.INTRA.SOLV.lig_0>
-29.58

>  <SCORE.INTRA.VDW>
0

>  <SCORE.INTRA.VDW.0>
0

>  <SCORE.INTRA.norm>
0

>  <SCORE.RESTR>
0

>  <SCORE.RESTR.CAVITY>
0

>  <SCORE.RESTR.norm>
0

>  <SCORE.SYSTEM>
0

>  <SCORE.SYSTEM.CONST>
0

>  <SCORE.SYSTEM.DIHEDRAL>
0

>  <SCORE.SYSTEM.SOLV>
0

>  <SCORE.SYSTEM.norm>
0

>  <SCORE.heavy>
8

>  <SCORE.norm>
-1.08307

>  <RMSD>
3.470

$$$$
ligand
 OpenBabel02271912143D
libRbt.so/2013.1/901 2013/11/27
  8  8  0  0  0  0  0  0  0  0999 V2000
    9.2733   10.0812   -1.5336 C   0  0  0  0  0  0  0  0  0  0  0  0
    9.3982   10.3991   -0.2453 N   0  0  0  0  0  0  0  0  0  0  0  0
    9.9549   11.5639    0.0973 C   0  0  0  0  0  0  0  0  0  0  0  0
   10.3763   12.4248   -0.8583 N   0  0  0  0  0  0  0  0  0  0  0  0
   10.2503   12.0902   -2.1535 C   0  0  0  0  0  0  0  0  0  0  0  0
    9.6938   10.9182   -2.4966 N   0  0  0  0  0  0  0  0  0  0  0  0
   10.0802   11.8825    1.5352 N   0  0  0  0  0  0  0  0  0  0  0  0
    8.7034    8.8934   -1.8415 O   0  0  0  0  0  0  0  0  0  0  0  0
  1  2  1  0  0  0  0
  1  6  1  0  0  0  0
  1  8  2  0  0  0  0
  2  3  1  0  0  0  0
  3  4  2  0  0  0  0
  3  7  1  0  0  0  0
  4  5  1  0  0  0  0
  5  6  2  0  0  0  0
M  END
>  <CHROM.1>
9.69152197,10.98040343,-0.93932342,2.32634976,-1.12272580,-1.60999045

>  <Name>
ligand

>  <RI>
0

>  <Rbt.Current_Directory>
/home/itssahil/PROJECTS/Mol_Feturizer/Test_systems_manuscript/rnas/3la5

>  <Rbt.Executable>
rbdock ($Id: //depot/dev/client3/rdock/2013.1/src/exe/rbdock.cxx#4 $)

>  <Rbt.Library>
libRbt.so (2013.1, Build901 2013/11/27)

>  <Rbt.Parameter_File>
/export/apps/rDock/src/rDock_2013.1_src/data/scripts/dock_solv.prm

>  <Rbt.Receptor>
prm/blind_docking_60.prm

>  <SCORE>
-8.63974

>  <SCORE.INTER>
-8.63974

>  <SCORE.INTER.CONST>
1

>  <SCORE.INTER.POLAR>
0

>  <SCORE.INTER.ROT>
0

>  <SCORE.INTER.SOLV>
8.33366

>  <SCORE.INTER.VDW>
-12.1377

>  <SCORE.INTER.norm>
-1.07997

>  <SCORE.INTRA>
0

>  <SCORE.INTRA.DIHEDRAL>
0

>  <SCORE.INTRA.DIHEDRAL.0>
0

>  <SCORE.INTRA.POLAR>
0

>  <SCORE.INTRA.POLAR.0>
0

>  <SCORE.INTRA.REPUL>
0

>  <SCORE.INTRA.REPUL.0>
0

>  <SCORE.INTRA.SOLV>
0

>  <SCORE.INTRA.SOLV.lig_0>
-29.58

>  <SCORE.INTRA.VDW>
0

>  <SCORE.INTRA.VDW.0>
0

>  <SCORE.INTRA.norm>
0

>  <SCORE.RESTR>
0

>  <SCORE.RESTR.CAVITY>
0

>  <SCORE.RESTR.norm>
0

>  <SCORE.SYSTEM>
0

>  <SCORE.SYSTEM.CONST>
0

>  <SCORE.SYSTEM.DIHEDRAL>
0

>  <SCORE.SYSTEM.SOLV>
0

>  <SCORE.SYSTEM.norm>
0

>  <SCORE.heavy>
8

>  <SCORE.norm>
-1.07997

>  <RMSD>
3.470

$$$$
ligand
 OpenBabel02271912143D
libRbt.so/2013.1/901 2013/11/27
  8  8  0  0  0  0  0  0  0  0999 V2000
    9.2738   10.0809   -1.5276 C   0  0  0  0  0  0  0  0  0  0  0  0
    9.4091   10.4038   -0.2416 N   0  0  0  0  0  0  0  0  0  0  0  0
    9.9641   11.5720    0.0920 C   0  0  0  0  0  0  0  0  0  0  0  0
   10.3732   12.4314   -0.8703 N   0  0  0  0  0  0  0  0  0  0  0  0
   10.2369   12.0918   -2.1631 C   0  0  0  0  0  0  0  0  0  0  0  0
    9.6821   10.9164   -2.4972 N   0  0  0  0  0  0  0  0  0  0  0  0
   10.1011   11.8960    1.5276 N   0  0  0  0  0  0  0  0  0  0  0  0
    8.7060    8.8898   -1.8263 O   0  0  0  0  0  0  0  0  0  0  0  0
  1  2  1  0  0  0  0
  1  6  1  0  0  0  0
  1  8  2  0  0  0  0
  2  3  1  0  0  0  0
  3  4  2  0  0  0  0
  3  7  1  0  0  0  0
  4  5  1  0  0  0  0
  5  6  2  0  0  0  0
M  END
>  <CHROM.1>
9.69370220,10.98389568,-0.94020079,2.34712465,-1.12710710,-1.59464326

>  <Name>
ligand

>  <RI>
0

>  <Rbt.Current_Directory>
/home/itssahil/PROJECTS/Mol_Feturizer/Test_systems_manuscript/rnas/3la5

>  <Rbt.Executable>
rbdock ($Id: //depot/dev/client3/rdock/2013.1/src/exe/rbdock.cxx#4 $)

>  <Rbt.Library>
libRbt.so (2013.1, Build901 2013/11/27)

>  <Rbt.Parameter_File>
/export/apps/rDock/src/rDock_2013.1_src/data/scripts/dock_solv.prm

>  <Rbt.Receptor>
prm/pocket_docking_5.prm

>  <SCORE>
-8.66313

>  <SCORE.INTER>
-8.66313

>  <SCORE.INTER.CONST>
1

>  <SCORE.INTER.POLAR>
0

>  <SCORE.INTER.ROT>
0

>  <SCORE.INTER.SOLV>
8.29423

>  <SCORE.INTER.VDW>
-12.1402

>  <SCORE.INTER.norm>
-1.08289

>  <SCORE.INTRA>
0

>  <SCORE.INTRA.DIHEDRAL>
0

>  <SCORE.INTRA.DIHEDRAL.0>
0

>  <SCORE.INTRA.POLAR>
0

>  <SCORE.INTRA.POLAR.0>
0

>  <SCORE.INTRA.REPUL>
0

>  <SCORE.INTRA.REPUL.0>
0

>  <SCORE.INTRA.SOLV>
0

>  <SCORE.INTRA.SOLV.lig_0>
-29.58

>  <SCORE.INTRA.VDW>
0

>  <SCORE.INTRA.VDW.0>
0

>  <SCORE.INTRA.norm>
0

>  <SCORE.RESTR>
0

>  <SCORE.RESTR.CAVITY>
0

>  <SCORE.RESTR.norm>
0

>  <SCORE.SYSTEM>
0

>  <SCORE.SYSTEM.CONST>
0

>  <SCORE.SYSTEM.DIHEDRAL>
0

>  <SCORE.SYSTEM.SOLV>
0

>  <SCORE.SYSTEM.norm>
0

>  <SCORE.heavy>
8

>  <SCORE.norm>
-1.08289

>  <RMSD>
3.470

$$$$
ligand
 OpenBabel02271912143D
libRbt.so/2013.1/901 2013/11/27
  8  8  0  0  0  0  0  0  0  0999 V2000
    9.2723   10.0743   -1.5352 C   0  0  0  0  0  0  0  0  0  0  0  0
    9.4011   10.3846   -0.2454 N   0  0  0  0  0  0  0  0  0  0  0  0
    9.9537   11.5498    0.1024 C   0  0  0  0  0  0  0  0  0  0  0  0
   10.3670   12.4188   -0.8494 N   0  0  0  0  0  0  0  0  0  0  0  0
   10.2372   12.0919   -2.1462 C   0  0  0  0  0  0  0  0  0  0  0  0
    9.6848   10.9194   -2.4945 N   0  0  0  0  0  0  0  0  0  0  0  0
   10.0835   11.8599    1.5417 N   0  0  0  0  0  0  0  0  0  0  0  0
    8.7067    8.8858   -1.8483 O   0  0  0  0  0  0  0  0  0  0  0  0
  1  2  1  0  0  0  0
  1  6  1  0  0  0  0
  1  8  2  0  0  0  0
  2  3  1  0  0  0  0
  3  4  2  0  0  0  0
  3  7  1  0  0  0  0
  4  5  1  0  0  0  0
  5  6  2  0  0  0  0
M  END
>  <CHROM.1>
9.68876276,10.97169392,-0.93688357,2.33562230,-1.12757799,-1.59523699

>  <Name>
ligand

>  <RI>
0

>  <Rbt.Current_Directory>
/home/itssahil/PROJECTS/Mol_Feturizer/Test_systems_manuscript/rnas/3la5

>  <Rbt.Executable>
rbdock ($Id: //depot/dev/client3/rdock/2013.1/src/exe/rbdock.cxx#4 $)

>  <Rbt.Library>
libRbt.so (2013.1, Build901 2013/11/27)

>  <Rbt.Parameter_File>
/export/apps/rDock/src/rDock_2013.1_src/data/scripts/dock_solv.prm

>  <Rbt.Receptor>
prm/pocket_docking_6.prm

>  <SCORE>
-8.66918

>  <SCORE.INTER>
-8.66918

>  <SCORE.INTER.CONST>
1

>  <SCORE.INTER.POLAR>
0

>  <SCORE.INTER.ROT>
0

>  <SCORE.INTER.SOLV>
8.36032

>  <SCORE.INTER.VDW>
-12.1662

>  <SCORE.INTER.norm>
-1.08365

>  <SCORE.INTRA>
0

>  <SCORE.INTRA.DIHEDRAL>
0

>  <SCORE.INTRA.DIHEDRAL.0>
0

>  <SCORE.INTRA.POLAR>
0

>  <SCORE.INTRA.POLAR.0>
0

>  <SCORE.INTRA.REPUL>
0

>  <SCORE.INTRA.REPUL.0>
0

>  <SCORE.INTRA.SOLV>
0

>  <SCORE.INTRA.SOLV.lig_0>
-29.58

>  <SCORE.INTRA.VDW>
0

>  <SCORE.INTRA.VDW.0>
0

>  <SCORE.INTRA.norm>
0

>  <SCORE.RESTR>
0

>  <SCORE.RESTR.CAVITY>
0

>  <SCORE.RESTR.norm>
0

>  <SCORE.SYSTEM>
0

>  <SCORE.SYSTEM.CONST>
0

>  <SCORE.SYSTEM.DIHEDRAL>
0

>  <SCORE.SYSTEM.SOLV>
0

>  <SCORE.SYSTEM.norm>
0

>  <SCORE.heavy>
8

>  <SCORE.norm>
-1.08365

>  <RMSD>
3.470

$$$$
ligand
 OpenBabel02271912143D
libRbt.so/2013.1/901 2013/11/27
  8  8  0  0  0  0  0  0  0  0999 V2000
    9.2416   10.0809   -1.5275 C   0  0  0  0  0  0  0  0  0  0  0  0
    9.4134   10.3834   -0.2409 N   0  0  0  0  0  0  0  0  0  0  0  0
   10.0072   11.5318    0.0947 C   0  0  0  0  0  0  0  0  0  0  0  0
   10.4188   12.3921   -0.8657 N   0  0  0  0  0  0  0  0  0  0  0  0
   10.2454   12.0729   -2.1593 C   0  0  0  0  0  0  0  0  0  0  0  0
    9.6516   10.9173   -2.4955 N   0  0  0  0  0  0  0  0  0  0  0  0
   10.1840   11.8336    1.5308 N   0  0  0  0  0  0  0  0  0  0  0  0
    8.6352    8.9095   -1.8282 O   0  0  0  0  0  0  0  0  0  0  0  0
  1  2  1  0  0  0  0
  1  6  1  0  0  0  0
  1  8  2  0  0  0  0
  2  3  1  0  0  0  0
  3  4  2  0  0  0  0
  3  7  1  0  0  0  0
  4  5  1  0  0  0  0
  5  6  2  0  0  0  0
M  END
>  <CHROM.1>
9.69865306,10.96452923,-0.93844310,2.39613577,-1.09979911,-1.53813071

>  <Name>
ligand

>  <RI>
0

>  <Rbt.Current_Directory>
/home/itssahil/PROJECTS/Mol_Feturizer/Test_systems_manuscript/rnas/3la5

>  <Rbt.Executable>
rbdock ($Id: //depot/dev/client3/rdock/2013.1/src/exe/rbdock.cxx#4 $)

>  <Rbt.Library>
libRbt.so (2013.1, Build901 2013/11/27)

>  <Rbt.Parameter_File>
/export/apps/rDock/src/rDock_2013.1_src/data/scripts/dock_solv.prm

>  <Rbt.Receptor>
prm/pocket_docking_7.prm

>  <SCORE>
-8.60258

>  <SCORE.INTER>
-8.60258

>  <SCORE.INTER.CONST>
1

>  <SCORE.INTER.POLAR>
0

>  <SCORE.INTER.ROT>
0

>  <SCORE.INTER.SOLV>
8.38498

>  <SCORE.INTER.VDW>
-12.13

>  <SCORE.INTER.norm>
-1.07532

>  <SCORE.INTRA>
0

>  <SCORE.INTRA.DIHEDRAL>
0

>  <SCORE.INTRA.DIHEDRAL.0>
0

>  <SCORE.INTRA.POLAR>
0

>  <SCORE.INTRA.POLAR.0>
0

>  <SCORE.INTRA.REPUL>
0

>  <SCORE.INTRA.REPUL.0>
0

>  <SCORE.INTRA.SOLV>
0

>  <SCORE.INTRA.SOLV.lig_0>
-29.58

>  <SCORE.INTRA.VDW>
0

>  <SCORE.INTRA.VDW.0>
0

>  <SCORE.INTRA.norm>
0

>  <SCORE.RESTR>
0

>  <SCORE.RESTR.CAVITY>
0

>  <SCORE.RESTR.norm>
0

>  <SCORE.SYSTEM>
0

>  <SCORE.SYSTEM.CONST>
0

>  <SCORE.SYSTEM.DIHEDRAL>
0

>  <SCORE.SYSTEM.SOLV>
0

>  <SCORE.SYSTEM.norm>
0

>  <SCORE.heavy>
8

>  <SCORE.norm>
-1.07532

>  <RMSD>
3.470

$$$$
ligand
 OpenBabel02271912143D
libRbt.so/2013.1/901 2013/11/27
  8  8  0  0  0  0  0  0  0  0999 V2000
    9.2787   10.0779   -1.5284 C   0  0  0  0  0  0  0  0  0  0  0  0
    9.4399   10.3945   -0.2438 N   0  0  0  0  0  0  0  0  0  0  0  0
   10.0006   11.5616    0.0841 C   0  0  0  0  0  0  0  0  0  0  0  0
   10.3892   12.4261   -0.8820 N   0  0  0  0  0  0  0  0  0  0  0  0
   10.2267   12.0929   -2.1735 C   0  0  0  0  0  0  0  0  0  0  0  0
    9.6663   10.9186   -2.5020 N   0  0  0  0  0  0  0  0  0  0  0  0
   10.1666   11.8787    1.5182 N   0  0  0  0  0  0  0  0  0  0  0  0
    8.7060    8.8877   -1.8214 O   0  0  0  0  0  0  0  0  0  0  0  0
  1  2  1  0  0  0  0
  1  6  1  0  0  0  0
  1  8  2  0  0  0  0
  2  3  1  0  0  0  0
  3  4  2  0  0  0  0
  3  7  1  0  0  0  0
  4  5  1  0  0  0  0
  5  6  2  0  0  0  0
M  END
>  <CHROM.1>
9.70969353,10.97835604,-0.94524681,2.39479738,-1.12805299,-1.54660184

>  <Name>
ligand

>  <RI>
0

>  <Rbt.Current_Directory>
/home/itssahil/PROJECTS/Mol_Feturizer/Test_systems_manuscript/rnas/3la5

>  <Rbt.Executable>
rbdock ($Id: //depot/dev/client3/rdock/2013.1/src/exe/rbdock.cxx#4 $)

>  <Rbt.Library>
libRbt.so (2013.1, Build901 2013/11/27)

>  <Rbt.Parameter_File>
/export/apps/rDock/src/rDock_2013.1_src/data/scripts/dock_solv.prm

>  <Rbt.Receptor>
prm/pocket_docking_8.prm

>  <SCORE>
-8.59826

>  <SCORE.INTER>
-8.59826

>  <SCORE.INTER.CONST>
1

>  <SCORE.INTER.POLAR>
0

>  <SCORE.INTER.ROT>
0

>  <SCORE.INTER.SOLV>
8.25273

>  <SCORE.INTER.VDW>
-12.0831

>  <SCORE.INTER.norm>
-1.07478

>  <SCORE.INTRA>
0

>  <SCORE.INTRA.DIHEDRAL>
0

>  <SCORE.INTRA.DIHEDRAL.0>
0

>  <SCORE.INTRA.POLAR>
0

>  <SCORE.INTRA.POLAR.0>
0

>  <SCORE.INTRA.REPUL>
0

>  <SCORE.INTRA.REPUL.0>
0

>  <SCORE.INTRA.SOLV>
0

>  <SCORE.INTRA.SOLV.lig_0>
-29.58

>  <SCORE.INTRA.VDW>
0

>  <SCORE.INTRA.VDW.0>
0

>  <SCORE.INTRA.norm>
0

>  <SCORE.RESTR>
0

>  <SCORE.RESTR.CAVITY>
0

>  <SCORE.RESTR.norm>
0

>  <SCORE.SYSTEM>
0

>  <SCORE.SYSTEM.CONST>
0

>  <SCORE.SYSTEM.DIHEDRAL>
0

>  <SCORE.SYSTEM.SOLV>
0

>  <SCORE.SYSTEM.norm>
0

>  <SCORE.heavy>
8

>  <SCORE.norm>
-1.07478

>  <RMSD>
3.470

$$$$
ligand
 OpenBabel02271912143D
libRbt.so/2013.1/901 2013/11/27
  8  8  0  0  0  0  0  0  0  0999 V2000
    9.2689   10.0781   -1.5372 C   0  0  0  0  0  0  0  0  0  0  0  0
    9.4017   10.3855   -0.2471 N   0  0  0  0  0  0  0  0  0  0  0  0
    9.9538   11.5506    0.1015 C   0  0  0  0  0  0  0  0  0  0  0  0
   10.3625   12.4225   -0.8496 N   0  0  0  0  0  0  0  0  0  0  0  0
   10.2287   12.0985   -2.1467 C   0  0  0  0  0  0  0  0  0  0  0  0
    9.6769   10.9261   -2.4959 N   0  0  0  0  0  0  0  0  0  0  0  0
   10.0881   11.8574    1.5412 N   0  0  0  0  0  0  0  0  0  0  0  0
    8.7040    8.8895   -1.8512 O   0  0  0  0  0  0  0  0  0  0  0  0
  1  2  1  0  0  0  0
  1  6  1  0  0  0  0
  1  8  2  0  0  0  0
  2  3  1  0  0  0  0
  3  4  2  0  0  0  0
  3  7  1  0  0  0  0
  4  5  1  0  0  0  0
  5  6  2  0  0  0  0
M  END
>  <CHROM.1>
9.68611621,10.97463112,-0.93817199,2.34367706,-1.12914817,-1.58554604

>  <Name>
ligand

>  <RI>
0

>  <Rbt.Current_Directory>
/home/itssahil/PROJECTS/Mol_Feturizer/Test_systems_manuscript/rnas/3la5

>  <Rbt.Executable>
rbdock ($Id: //depot/dev/client3/rdock/2013.1/src/exe/rbdock.cxx#4 $)

>  <Rbt.Library>
libRbt.so (2013.1, Build901 2013/11/27)

>  <Rbt.Parameter_File>
/export/apps/rDock/src/rDock_2013.1_src/data/scripts/dock_solv.prm

>  <Rbt.Receptor>
prm/pocket_docking_8.prm

>  <SCORE>
-8.66205

>  <SCORE.INTER>
-8.66205

>  <SCORE.INTER.CONST>
1

>  <SCORE.INTER.POLAR>
0

>  <SCORE.INTER.ROT>
0

>  <SCORE.INTER.SOLV>
8.3631

>  <SCORE.INTER.VDW>
-12.1624

>  <SCORE.INTER.norm>
-1.08276

>  <SCORE.INTRA>
0

>  <SCORE.INTRA.DIHEDRAL>
0

>  <SCORE.INTRA.DIHEDRAL.0>
0

>  <SCORE.INTRA.POLAR>
0

>  <SCORE.INTRA.POLAR.0>
0

>  <SCORE.INTRA.REPUL>
0

>  <SCORE.INTRA.REPUL.0>
0

>  <SCORE.INTRA.SOLV>
0

>  <SCORE.INTRA.SOLV.lig_0>
-29.58

>  <SCORE.INTRA.VDW>
0

>  <SCORE.INTRA.VDW.0>
0

>  <SCORE.INTRA.norm>
0

>  <SCORE.RESTR>
0

>  <SCORE.RESTR.CAVITY>
0

>  <SCORE.RESTR.norm>
0

>  <SCORE.SYSTEM>
0

>  <SCORE.SYSTEM.CONST>
0

>  <SCORE.SYSTEM.DIHEDRAL>
0

>  <SCORE.SYSTEM.SOLV>
0

>  <SCORE.SYSTEM.norm>
0

>  <SCORE.heavy>
8

>  <SCORE.norm>
-1.08276

>  <RMSD>
3.470

$$$$
ligand
 OpenBabel02271912143D
libRbt.so/2013.1/901 2013/11/27
  8  8  0  0  0  0  0  0  0  0999 V2000
    9.2740   10.0776   -1.5396 C   0  0  0  0  0  0  0  0  0  0  0  0
    9.3975   10.3872   -0.2491 N   0  0  0  0  0  0  0  0  0  0  0  0
    9.9541   11.5495    0.1017 C   0  0  0  0  0  0  0  0  0  0  0  0
   10.3768   12.4166   -0.8478 N   0  0  0  0  0  0  0  0  0  0  0  0
   10.2522   12.0904   -2.1453 C   0  0  0  0  0  0  0  0  0  0  0  0
    9.6958   10.9208   -2.4966 N   0  0  0  0  0  0  0  0  0  0  0  0
   10.0779   11.8588    1.5418 N   0  0  0  0  0  0  0  0  0  0  0  0
    8.7042    8.8920   -1.8558 O   0  0  0  0  0  0  0  0  0  0  0  0
  1  2  1  0  0  0  0
  1  6  1  0  0  0  0
  1  8  2  0  0  0  0
  2  3  1  0  0  0  0
  3  4  2  0  0  0  0
  3  7  1  0  0  0  0
  4  5  1  0  0  0  0
  5  6  2  0  0  0  0
M  END
>  <CHROM.1>
9.69178255,10.97287457,-0.93898843,2.32378507,-1.12242896,-1.60580911

>  <Name>
ligand

>  <RI>
0

>  <Rbt.Current_Directory>
/home/itssahil/PROJECTS/Mol_Feturizer/Test_systems_manuscript/rnas/3la5

>  <Rbt.Executable>
rbdock ($Id: //depot/dev/client3/rdock/2013.1/src/exe/rbdock.cxx#4 $)

>  <Rbt.Library>
libRbt.so (2013.1, Build901 2013/11/27)

>  <Rbt.Parameter_File>
/export/apps/rDock/src/rDock_2013.1_src/data/scripts/dock_solv.prm

>  <Rbt.Receptor>
prm/pocket_docking_8.prm

>  <SCORE>
-8.67096

>  <SCORE.INTER>
-8.67096

>  <SCORE.INTER.CONST>
1

>  <SCORE.INTER.POLAR>
0

>  <SCORE.INTER.ROT>
0

>  <SCORE.INTER.SOLV>
8.36704

>  <SCORE.INTER.VDW>
-12.1697

>  <SCORE.INTER.norm>
-1.08387

>  <SCORE.INTRA>
0

>  <SCORE.INTRA.DIHEDRAL>
0

>  <SCORE.INTRA.DIHEDRAL.0>
0

>  <SCORE.INTRA.POLAR>
0

>  <SCORE.INTRA.POLAR.0>
0

>  <SCORE.INTRA.REPUL>
0

>  <SCORE.INTRA.REPUL.0>
0

>  <SCORE.INTRA.SOLV>
0

>  <SCORE.INTRA.SOLV.lig_0>
-29.58

>  <SCORE.INTRA.VDW>
0

>  <SCORE.INTRA.VDW.0>
0

>  <SCORE.INTRA.norm>
0

>  <SCORE.RESTR>
0

>  <SCORE.RESTR.CAVITY>
0

>  <SCORE.RESTR.norm>
0

>  <SCORE.SYSTEM>
0

>  <SCORE.SYSTEM.CONST>
0

>  <SCORE.SYSTEM.DIHEDRAL>
0

>  <SCORE.SYSTEM.SOLV>
0

>  <SCORE.SYSTEM.norm>
0

>  <SCORE.heavy>
8

>  <SCORE.norm>
-1.08387

>  <RMSD>
3.470

$$$$
ligand
 OpenBabel02271912143D
libRbt.so/2013.1/901 2013/11/27
  8  8  0  0  0  0  0  0  0  0999 V2000
    9.2757   10.0797   -1.5276 C   0  0  0  0  0  0  0  0  0  0  0  0
    9.4040   10.4063   -0.2418 N   0  0  0  0  0  0  0  0  0  0  0  0
    9.9586   11.5748    0.0914 C   0  0  0  0  0  0  0  0  0  0  0  0
   10.3744   12.4307   -0.8711 N   0  0  0  0  0  0  0  0  0  0  0  0
   10.2451   12.0874   -2.1637 C   0  0  0  0  0  0  0  0  0  0  0  0
    9.6907   10.9117   -2.4974 N   0  0  0  0  0  0  0  0  0  0  0  0
   10.0878   11.9030    1.5268 N   0  0  0  0  0  0  0  0  0  0  0  0
    8.7081    8.8884   -1.8260 O   0  0  0  0  0  0  0  0  0  0  0  0
  1  2  1  0  0  0  0
  1  6  1  0  0  0  0
  1  8  2  0  0  0  0
  2  3  1  0  0  0  0
  3  4  2  0  0  0  0
  3  7  1  0  0  0  0
  4  5  1  0  0  0  0
  5  6  2  0  0  0  0
M  END
>  <CHROM.1>
9.69338859,10.98388868,-0.94056918,2.33380918,-1.12561007,-1.60971055

>  <Name>
ligand

>  <RI>
0

>  <Rbt.Current_Directory>
/home/itssahil/PROJECTS/Mol_Feturizer/Test_systems_manuscript/rnas/3la5

>  <Rbt.Executable>
rbdock ($Id: //depot/dev/client3/rdock/2013.1/src/exe/rbdock.cxx#4 $)

>  <Rbt.Library>
libRbt.so (2013.1, Build901 2013/11/27)

>  <Rbt.Parameter_File>
/export/apps/rDock/src/rDock_2013.1_src/data/scripts/dock_solv.prm

>  <Rbt.Receptor>
prm/blind_docking_100.prm

>  <SCORE>
-8.66629

>  <SCORE.INTER>
-8.66629

>  <SCORE.INTER.CONST>
1

>  <SCORE.INTER.POLAR>
0

>  <SCORE.INTER.ROT>
0

>  <SCORE.INTER.SOLV>
8.29277

>  <SCORE.INTER.VDW>
-12.1418

>  <SCORE.INTER.norm>
-1.08329

>  <SCORE.INTRA>
0

>  <SCORE.INTRA.DIHEDRAL>
0

>  <SCORE.INTRA.DIHEDRAL.0>
0

>  <SCORE.INTRA.POLAR>
0

>  <SCORE.INTRA.POLAR.0>
0

>  <SCORE.INTRA.REPUL>
0

>  <SCORE.INTRA.REPUL.0>
0

>  <SCORE.INTRA.SOLV>
0

>  <SCORE.INTRA.SOLV.lig_0>
-29.58

>  <SCORE.INTRA.VDW>
0

>  <SCORE.INTRA.VDW.0>
0

>  <SCORE.INTRA.norm>
0

>  <SCORE.RESTR>
0

>  <SCORE.RESTR.CAVITY>
0

>  <SCORE.RESTR.norm>
0

>  <SCORE.SYSTEM>
0

>  <SCORE.SYSTEM.CONST>
0

>  <SCORE.SYSTEM.DIHEDRAL>
0

>  <SCORE.SYSTEM.SOLV>
0

>  <SCORE.SYSTEM.norm>
0

>  <SCORE.heavy>
8

>  <SCORE.norm>
-1.08329

>  <RMSD>
3.471

$$$$
ligand
 OpenBabel02271912143D
libRbt.so/2013.1/901 2013/11/27
  8  8  0  0  0  0  0  0  0  0999 V2000
    9.2704   10.0808   -1.5274 C   0  0  0  0  0  0  0  0  0  0  0  0
    9.4022   10.4030   -0.2409 N   0  0  0  0  0  0  0  0  0  0  0  0
    9.9547   11.5717    0.0948 C   0  0  0  0  0  0  0  0  0  0  0  0
   10.3649   12.4323   -0.8660 N   0  0  0  0  0  0  0  0  0  0  0  0
   10.2321   12.0934   -2.1594 C   0  0  0  0  0  0  0  0  0  0  0  0
    9.6798   10.9174   -2.4955 N   0  0  0  0  0  0  0  0  0  0  0  0
   10.0878   11.8951    1.5309 N   0  0  0  0  0  0  0  0  0  0  0  0
    8.7050    8.8890   -1.8282 O   0  0  0  0  0  0  0  0  0  0  0  0
  1  2  1  0  0  0  0
  1  6  1  0  0  0  0
  1  8  2  0  0  0  0
  2  3  1  0  0  0  0
  3  4  2  0  0  0  0
  3  7  1  0  0  0  0
  4  5  1  0  0  0  0
  5  6  2  0  0  0  0
M  END
>  <CHROM.1>
9.68761169,10.98394740,-0.93846515,2.34149404,-1.12847943,-1.59908771

>  <Name>
ligand

>  <RI>
0

>  <Rbt.Current_Directory>
/home/itssahil/PROJECTS/Mol_Feturizer/Test_systems_manuscript/rnas/3la5

>  <Rbt.Executable>
rbdock ($Id: //depot/dev/client3/rdock/2013.1/src/exe/rbdock.cxx#4 $)

>  <Rbt.Library>
libRbt.so (2013.1, Build901 2013/11/27)

>  <Rbt.Parameter_File>
/export/apps/rDock/src/rDock_2013.1_src/data/scripts/dock_solv.prm

>  <Rbt.Receptor>
prm/blind_docking_20.prm

>  <SCORE>
-8.66687

>  <SCORE.INTER>
-8.66687

>  <SCORE.INTER.CONST>
1

>  <SCORE.INTER.POLAR>
0

>  <SCORE.INTER.ROT>
0

>  <SCORE.INTER.SOLV>
8.31051

>  <SCORE.INTER.VDW>
-12.1481

>  <SCORE.INTER.norm>
-1.08336

>  <SCORE.INTRA>
0

>  <SCORE.INTRA.DIHEDRAL>
0

>  <SCORE.INTRA.DIHEDRAL.0>
0

>  <SCORE.INTRA.POLAR>
0

>  <SCORE.INTRA.POLAR.0>
0

>  <SCORE.INTRA.REPUL>
0

>  <SCORE.INTRA.REPUL.0>
0

>  <SCORE.INTRA.SOLV>
0

>  <SCORE.INTRA.SOLV.lig_0>
-29.58

>  <SCORE.INTRA.VDW>
0

>  <SCORE.INTRA.VDW.0>
0

>  <SCORE.INTRA.norm>
0

>  <SCORE.RESTR>
0

>  <SCORE.RESTR.CAVITY>
0

>  <SCORE.RESTR.norm>
0

>  <SCORE.SYSTEM>
0

>  <SCORE.SYSTEM.CONST>
0

>  <SCORE.SYSTEM.DIHEDRAL>
0

>  <SCORE.SYSTEM.SOLV>
0

>  <SCORE.SYSTEM.norm>
0

>  <SCORE.heavy>
8

>  <SCORE.norm>
-1.08336

>  <RMSD>
3.471

$$$$
ligand
 OpenBabel02271912143D
libRbt.so/2013.1/901 2013/11/27
  8  8  0  0  0  0  0  0  0  0999 V2000
    9.2683   10.0707   -1.5328 C   0  0  0  0  0  0  0  0  0  0  0  0
    9.4077   10.3785   -0.2435 N   0  0  0  0  0  0  0  0  0  0  0  0
    9.9546   11.5470    0.1019 C   0  0  0  0  0  0  0  0  0  0  0  0
   10.3513   12.4219   -0.8516 N   0  0  0  0  0  0  0  0  0  0  0  0
   10.2109   12.0975   -2.1479 C   0  0  0  0  0  0  0  0  0  0  0  0
    9.6643   10.9217   -2.4939 N   0  0  0  0  0  0  0  0  0  0  0  0
   10.0966   11.8541    1.5407 N   0  0  0  0  0  0  0  0  0  0  0  0
    8.7089    8.8786   -1.8435 O   0  0  0  0  0  0  0  0  0  0  0  0
  1  2  1  0  0  0  0
  1  6  1  0  0  0  0
  1  8  2  0  0  0  0
  2  3  1  0  0  0  0
  3  4  2  0  0  0  0
  3  7  1  0  0  0  0
  4  5  1  0  0  0  0
  5  6  2  0  0  0  0
M  END
>  <CHROM.1>
9.68367859,10.96971383,-0.93623342,2.35935521,-1.13563132,-1.57095603

>  <Name>
ligand

>  <RI>
0

>  <Rbt.Current_Directory>
/home/itssahil/PROJECTS/Mol_Feturizer/Test_systems_manuscript/rnas/3la5

>  <Rbt.Executable>
rbdock ($Id: //depot/dev/client3/rdock/2013.1/src/exe/rbdock.cxx#4 $)

>  <Rbt.Library>
libRbt.so (2013.1, Build901 2013/11/27)

>  <Rbt.Parameter_File>
/export/apps/rDock/src/rDock_2013.1_src/data/scripts/dock_solv.prm

>  <Rbt.Receptor>
prm/blind_docking_20.prm

>  <SCORE>
-8.64878

>  <SCORE.INTER>
-8.64878

>  <SCORE.INTER.CONST>
1

>  <SCORE.INTER.POLAR>
0

>  <SCORE.INTER.ROT>
0

>  <SCORE.INTER.SOLV>
8.35513

>  <SCORE.INTER.VDW>
-12.1509

>  <SCORE.INTER.norm>
-1.0811

>  <SCORE.INTRA>
0

>  <SCORE.INTRA.DIHEDRAL>
0

>  <SCORE.INTRA.DIHEDRAL.0>
0

>  <SCORE.INTRA.POLAR>
0

>  <SCORE.INTRA.POLAR.0>
0

>  <SCORE.INTRA.REPUL>
0

>  <SCORE.INTRA.REPUL.0>
0

>  <SCORE.INTRA.SOLV>
0

>  <SCORE.INTRA.SOLV.lig_0>
-29.58

>  <SCORE.INTRA.VDW>
0

>  <SCORE.INTRA.VDW.0>
0

>  <SCORE.INTRA.norm>
0

>  <SCORE.RESTR>
0

>  <SCORE.RESTR.CAVITY>
0

>  <SCORE.RESTR.norm>
0

>  <SCORE.SYSTEM>
0

>  <SCORE.SYSTEM.CONST>
0

>  <SCORE.SYSTEM.DIHEDRAL>
0

>  <SCORE.SYSTEM.SOLV>
0

>  <SCORE.SYSTEM.norm>
0

>  <SCORE.heavy>
8

>  <SCORE.norm>
-1.0811

>  <RMSD>
3.471

$$$$
ligand
 OpenBabel02271912143D
libRbt.so/2013.1/901 2013/11/27
  8  8  0  0  0  0  0  0  0  0999 V2000
    9.2729   10.0771   -1.5251 C   0  0  0  0  0  0  0  0  0  0  0  0
    9.4096   10.4001   -0.2393 N   0  0  0  0  0  0  0  0  0  0  0  0
    9.9623   11.5696    0.0935 C   0  0  0  0  0  0  0  0  0  0  0  0
   10.3676   12.4301   -0.8694 N   0  0  0  0  0  0  0  0  0  0  0  0
   10.2299   12.0904   -2.1620 C   0  0  0  0  0  0  0  0  0  0  0  0
    9.6774   10.9137   -2.4953 N   0  0  0  0  0  0  0  0  0  0  0  0
   10.1010   11.8938    1.5289 N   0  0  0  0  0  0  0  0  0  0  0  0
    8.7075    8.8846   -1.8230 O   0  0  0  0  0  0  0  0  0  0  0  0
  1  2  1  0  0  0  0
  1  6  1  0  0  0  0
  1  8  2  0  0  0  0
  2  3  1  0  0  0  0
  3  4  2  0  0  0  0
  3  7  1  0  0  0  0
  4  5  1  0  0  0  0
  5  6  2  0  0  0  0
M  END
>  <CHROM.1>
9.69155449,10.98097800,-0.93833253,2.35103526,-1.12960170,-1.59096575

>  <Name>
ligand

>  <RI>
0

>  <Rbt.Current_Directory>
/home/itssahil/PROJECTS/Mol_Feturizer/Test_systems_manuscript/rnas/3la5

>  <Rbt.Executable>
rbdock ($Id: //depot/dev/client3/rdock/2013.1/src/exe/rbdock.cxx#4 $)

>  <Rbt.Library>
libRbt.so (2013.1, Build901 2013/11/27)

>  <Rbt.Parameter_File>
/export/apps/rDock/src/rDock_2013.1_src/data/scripts/dock_solv.prm

>  <Rbt.Receptor>
prm/blind_docking_20.prm

>  <SCORE>
-8.6613

>  <SCORE.INTER>
-8.6613

>  <SCORE.INTER.CONST>
1

>  <SCORE.INTER.POLAR>
0

>  <SCORE.INTER.ROT>
0

>  <SCORE.INTER.SOLV>
8.29792

>  <SCORE.INTER.VDW>
-12.1402

>  <SCORE.INTER.norm>
-1.08266

>  <SCORE.INTRA>
0

>  <SCORE.INTRA.DIHEDRAL>
0

>  <SCORE.INTRA.DIHEDRAL.0>
0

>  <SCORE.INTRA.POLAR>
0

>  <SCORE.INTRA.POLAR.0>
0

>  <SCORE.INTRA.REPUL>
0

>  <SCORE.INTRA.REPUL.0>
0

>  <SCORE.INTRA.SOLV>
0

>  <SCORE.INTRA.SOLV.lig_0>
-29.58

>  <SCORE.INTRA.VDW>
0

>  <SCORE.INTRA.VDW.0>
0

>  <SCORE.INTRA.norm>
0

>  <SCORE.RESTR>
0

>  <SCORE.RESTR.CAVITY>
0

>  <SCORE.RESTR.norm>
0

>  <SCORE.SYSTEM>
0

>  <SCORE.SYSTEM.CONST>
0

>  <SCORE.SYSTEM.DIHEDRAL>
0

>  <SCORE.SYSTEM.SOLV>
0

>  <SCORE.SYSTEM.norm>
0

>  <SCORE.heavy>
8

>  <SCORE.norm>
-1.08266

>  <RMSD>
3.471

$$$$
ligand
 OpenBabel02271912143D
libRbt.so/2013.1/901 2013/11/27
  8  8  0  0  0  0  0  0  0  0999 V2000
    9.2721   10.0708   -1.5329 C   0  0  0  0  0  0  0  0  0  0  0  0
    9.4032   10.3816   -0.2435 N   0  0  0  0  0  0  0  0  0  0  0  0
    9.9535   11.5483    0.1028 C   0  0  0  0  0  0  0  0  0  0  0  0
   10.3622   12.4183   -0.8501 N   0  0  0  0  0  0  0  0  0  0  0  0
   10.2301   12.0909   -2.1466 C   0  0  0  0  0  0  0  0  0  0  0  0
    9.6800   10.9169   -2.4933 N   0  0  0  0  0  0  0  0  0  0  0  0
   10.0860   11.8589    1.5418 N   0  0  0  0  0  0  0  0  0  0  0  0
    8.7090    8.8807   -1.8445 O   0  0  0  0  0  0  0  0  0  0  0  0
  1  2  1  0  0  0  0
  1  6  1  0  0  0  0
  1  8  2  0  0  0  0
  2  3  1  0  0  0  0
  3  4  2  0  0  0  0
  3  7  1  0  0  0  0
  4  5  1  0  0  0  0
  5  6  2  0  0  0  0
M  END
>  <CHROM.1>
9.68760133,10.96937111,-0.93574753,2.34125413,-1.13034390,-1.59026166

>  <Name>
ligand

>  <RI>
0

>  <Rbt.Current_Directory>
/home/itssahil/PROJECTS/Mol_Feturizer/Test_systems_manuscript/rnas/3la5

>  <Rbt.Executable>
rbdock ($Id: //depot/dev/client3/rdock/2013.1/src/exe/rbdock.cxx#4 $)

>  <Rbt.Library>
libRbt.so (2013.1, Build901 2013/11/27)

>  <Rbt.Parameter_File>
/export/apps/rDock/src/rDock_2013.1_src/data/scripts/dock_solv.prm

>  <Rbt.Receptor>
prm/blind_docking_80.prm

>  <SCORE>
-8.66595

>  <SCORE.INTER>
-8.66595

>  <SCORE.INTER.CONST>
1

>  <SCORE.INTER.POLAR>
0

>  <SCORE.INTER.ROT>
0

>  <SCORE.INTER.SOLV>
8.35732

>  <SCORE.INTER.VDW>
-12.1631

>  <SCORE.INTER.norm>
-1.08324

>  <SCORE.INTRA>
0

>  <SCORE.INTRA.DIHEDRAL>
0

>  <SCORE.INTRA.DIHEDRAL.0>
0

>  <SCORE.INTRA.POLAR>
0

>  <SCORE.INTRA.POLAR.0>
0

>  <SCORE.INTRA.REPUL>
0

>  <SCORE.INTRA.REPUL.0>
0

>  <SCORE.INTRA.SOLV>
0

>  <SCORE.INTRA.SOLV.lig_0>
-29.58

>  <SCORE.INTRA.VDW>
0

>  <SCORE.INTRA.VDW.0>
0

>  <SCORE.INTRA.norm>
0

>  <SCORE.RESTR>
0

>  <SCORE.RESTR.CAVITY>
0

>  <SCORE.RESTR.norm>
0

>  <SCORE.SYSTEM>
0

>  <SCORE.SYSTEM.CONST>
0

>  <SCORE.SYSTEM.DIHEDRAL>
0

>  <SCORE.SYSTEM.SOLV>
0

>  <SCORE.SYSTEM.norm>
0

>  <SCORE.heavy>
8

>  <SCORE.norm>
-1.08324

>  <RMSD>
3.471

$$$$
ligand
 OpenBabel02271912143D
libRbt.so/2013.1/901 2013/11/27
  8  8  0  0  0  0  0  0  0  0999 V2000
    9.2683   10.0829   -1.5321 C   0  0  0  0  0  0  0  0  0  0  0  0
    9.4059   10.3984   -0.2445 N   0  0  0  0  0  0  0  0  0  0  0  0
    9.9568   11.5669    0.0947 C   0  0  0  0  0  0  0  0  0  0  0  0
   10.3595   12.4340   -0.8634 N   0  0  0  0  0  0  0  0  0  0  0  0
   10.2208   12.1019   -2.1579 C   0  0  0  0  0  0  0  0  0  0  0  0
    9.6701   10.9261   -2.4977 N   0  0  0  0  0  0  0  0  0  0  0  0
   10.0967   11.8827    1.5319 N   0  0  0  0  0  0  0  0  0  0  0  0
    8.7047    8.8912   -1.8365 O   0  0  0  0  0  0  0  0  0  0  0  0
  1  2  1  0  0  0  0
  1  6  1  0  0  0  0
  1  8  2  0  0  0  0
  2  3  1  0  0  0  0
  3  4  2  0  0  0  0
  3  7  1  0  0  0  0
  4  5  1  0  0  0  0
  5  6  2  0  0  0  0
M  END
>  <CHROM.1>
9.68598377,10.98405793,-0.94033863,2.35375492,-1.13147627,-1.58245498

>  <Name>
ligand

>  <RI>
0

>  <Rbt.Current_Directory>
/home/itssahil/PROJECTS/Mol_Feturizer/Test_systems_manuscript/rnas/3la5

>  <Rbt.Executable>
rbdock ($Id: //depot/dev/client3/rdock/2013.1/src/exe/rbdock.cxx#4 $)

>  <Rbt.Library>
libRbt.so (2013.1, Build901 2013/11/27)

>  <Rbt.Parameter_File>
/export/apps/rDock/src/rDock_2013.1_src/data/scripts/dock_solv.prm

>  <Rbt.Receptor>
prm/pocket_docking_4.prm

>  <SCORE>
-8.65254

>  <SCORE.INTER>
-8.65254

>  <SCORE.INTER.CONST>
1

>  <SCORE.INTER.POLAR>
0

>  <SCORE.INTER.ROT>
0

>  <SCORE.INTER.SOLV>
8.31929

>  <SCORE.INTER.VDW>
-12.1415

>  <SCORE.INTER.norm>
-1.08157

>  <SCORE.INTRA>
0

>  <SCORE.INTRA.DIHEDRAL>
0

>  <SCORE.INTRA.DIHEDRAL.0>
0

>  <SCORE.INTRA.POLAR>
0

>  <SCORE.INTRA.POLAR.0>
0

>  <SCORE.INTRA.REPUL>
0

>  <SCORE.INTRA.REPUL.0>
0

>  <SCORE.INTRA.SOLV>
0

>  <SCORE.INTRA.SOLV.lig_0>
-29.58

>  <SCORE.INTRA.VDW>
0

>  <SCORE.INTRA.VDW.0>
0

>  <SCORE.INTRA.norm>
0

>  <SCORE.RESTR>
0

>  <SCORE.RESTR.CAVITY>
0

>  <SCORE.RESTR.norm>
0

>  <SCORE.SYSTEM>
0

>  <SCORE.SYSTEM.CONST>
0

>  <SCORE.SYSTEM.DIHEDRAL>
0

>  <SCORE.SYSTEM.SOLV>
0

>  <SCORE.SYSTEM.norm>
0

>  <SCORE.heavy>
8

>  <SCORE.norm>
-1.08157

>  <RMSD>
3.471

$$$$
ligand
 OpenBabel02271912143D
libRbt.so/2013.1/901 2013/11/27
  8  8  0  0  0  0  0  0  0  0999 V2000
    9.2908   10.0838   -1.5383 C   0  0  0  0  0  0  0  0  0  0  0  0
    9.3868   10.4130   -0.2504 N   0  0  0  0  0  0  0  0  0  0  0  0
    9.9305   11.5833    0.0941 C   0  0  0  0  0  0  0  0  0  0  0  0
   10.3679   12.4384   -0.8595 N   0  0  0  0  0  0  0  0  0  0  0  0
   10.2710   12.0925   -2.1542 C   0  0  0  0  0  0  0  0  0  0  0  0
    9.7276   10.9150   -2.4992 N   0  0  0  0  0  0  0  0  0  0  0  0
   10.0238   11.9145    1.5316 N   0  0  0  0  0  0  0  0  0  0  0  0
    8.7333    8.8907   -1.8483 O   0  0  0  0  0  0  0  0  0  0  0  0
  1  2  1  0  0  0  0
  1  6  1  0  0  0  0
  1  8  2  0  0  0  0
  2  3  1  0  0  0  0
  3  4  2  0  0  0  0
  3  7  1  0  0  0  0
  4  5  1  0  0  0  0
  5  6  2  0  0  0  0
M  END
>  <CHROM.1>
9.69200161,10.99001188,-0.94290720,2.27668722,-1.12622610,-1.66309810

>  <Name>
ligand

>  <RI>
0

>  <Rbt.Current_Directory>
/home/itssahil/PROJECTS/Mol_Feturizer/Test_systems_manuscript/rnas/3la5

>  <Rbt.Executable>
rbdock ($Id: //depot/dev/client3/rdock/2013.1/src/exe/rbdock.cxx#4 $)

>  <Rbt.Library>
libRbt.so (2013.1, Build901 2013/11/27)

>  <Rbt.Parameter_File>
/export/apps/rDock/src/rDock_2013.1_src/data/scripts/dock_solv.prm

>  <Rbt.Receptor>
prm/pocket_docking_5.prm

>  <SCORE>
-8.63376

>  <SCORE.INTER>
-8.63376

>  <SCORE.INTER.CONST>
1

>  <SCORE.INTER.POLAR>
0

>  <SCORE.INTER.ROT>
0

>  <SCORE.INTER.SOLV>
8.34336

>  <SCORE.INTER.VDW>
-12.137

>  <SCORE.INTER.norm>
-1.07922

>  <SCORE.INTRA>
0

>  <SCORE.INTRA.DIHEDRAL>
0

>  <SCORE.INTRA.DIHEDRAL.0>
0

>  <SCORE.INTRA.POLAR>
0

>  <SCORE.INTRA.POLAR.0>
0

>  <SCORE.INTRA.REPUL>
0

>  <SCORE.INTRA.REPUL.0>
0

>  <SCORE.INTRA.SOLV>
0

>  <SCORE.INTRA.SOLV.lig_0>
-29.58

>  <SCORE.INTRA.VDW>
0

>  <SCORE.INTRA.VDW.0>
0

>  <SCORE.INTRA.norm>
0

>  <SCORE.RESTR>
0

>  <SCORE.RESTR.CAVITY>
0

>  <SCORE.RESTR.norm>
0

>  <SCORE.SYSTEM>
0

>  <SCORE.SYSTEM.CONST>
0

>  <SCORE.SYSTEM.DIHEDRAL>
0

>  <SCORE.SYSTEM.SOLV>
0

>  <SCORE.SYSTEM.norm>
0

>  <SCORE.heavy>
8

>  <SCORE.norm>
-1.07922

>  <RMSD>
3.471

$$$$
ligand
 OpenBabel02271912143D
libRbt.so/2013.1/901 2013/11/27
  8  8  0  0  0  0  0  0  0  0999 V2000
    9.2591   10.0828   -1.5128 C   0  0  0  0  0  0  0  0  0  0  0  0
    9.3194   10.4249   -0.2261 N   0  0  0  0  0  0  0  0  0  0  0  0
    9.8504   11.6001    0.1215 C   0  0  0  0  0  0  0  0  0  0  0  0
   10.3113   12.4471   -0.8284 N   0  0  0  0  0  0  0  0  0  0  0  0
   10.2505   12.0881   -2.1218 C   0  0  0  0  0  0  0  0  0  0  0  0
    9.7196   10.9057   -2.4697 N   0  0  0  0  0  0  0  0  0  0  0  0
    9.9038   11.9457    1.5576 N   0  0  0  0  0  0  0  0  0  0  0  0
    8.7133    8.8851   -1.8259 O   0  0  0  0  0  0  0  0  0  0  0  0
  1  2  1  0  0  0  0
  1  6  1  0  0  0  0
  1  8  2  0  0  0  0
  2  3  1  0  0  0  0
  3  4  2  0  0  0  0
  3  7  1  0  0  0  0
  4  5  1  0  0  0  0
  5  6  2  0  0  0  0
M  END
>  <CHROM.1>
9.64168375,10.99593857,-0.91574842,2.21336926,-1.12554842,-1.73014828

>  <Name>
ligand

>  <RI>
0

>  <Rbt.Current_Directory>
/home/itssahil/PROJECTS/Mol_Feturizer/Test_systems_manuscript/rnas/3la5

>  <Rbt.Executable>
rbdock ($Id: //depot/dev/client3/rdock/2013.1/src/exe/rbdock.cxx#4 $)

>  <Rbt.Library>
libRbt.so (2013.1, Build901 2013/11/27)

>  <Rbt.Parameter_File>
/export/apps/rDock/src/rDock_2013.1_src/data/scripts/dock_solv.prm

>  <Rbt.Receptor>
prm/pocket_docking_7.prm

>  <SCORE>
-8.56102

>  <SCORE.INTER>
-8.56102

>  <SCORE.INTER.CONST>
1

>  <SCORE.INTER.POLAR>
0

>  <SCORE.INTER.ROT>
0

>  <SCORE.INTER.SOLV>
8.5498

>  <SCORE.INTER.VDW>
-12.1573

>  <SCORE.INTER.norm>
-1.07013

>  <SCORE.INTRA>
0

>  <SCORE.INTRA.DIHEDRAL>
0

>  <SCORE.INTRA.DIHEDRAL.0>
0

>  <SCORE.INTRA.POLAR>
0

>  <SCORE.INTRA.POLAR.0>
0

>  <SCORE.INTRA.REPUL>
0

>  <SCORE.INTRA.REPUL.0>
0

>  <SCORE.INTRA.SOLV>
0

>  <SCORE.INTRA.SOLV.lig_0>
-29.58

>  <SCORE.INTRA.VDW>
0

>  <SCORE.INTRA.VDW.0>
0

>  <SCORE.INTRA.norm>
0

>  <SCORE.RESTR>
0

>  <SCORE.RESTR.CAVITY>
0

>  <SCORE.RESTR.norm>
0

>  <SCORE.SYSTEM>
0

>  <SCORE.SYSTEM.CONST>
0

>  <SCORE.SYSTEM.DIHEDRAL>
0

>  <SCORE.SYSTEM.SOLV>
0

>  <SCORE.SYSTEM.norm>
0

>  <SCORE.heavy>
8

>  <SCORE.norm>
-1.07013

>  <RMSD>
3.471

$$$$
ligand
 OpenBabel02271912143D
libRbt.so/2013.1/901 2013/11/27
  8  8  0  0  0  0  0  0  0  0999 V2000
    9.2717   10.0750   -1.5382 C   0  0  0  0  0  0  0  0  0  0  0  0
    9.4012   10.3840   -0.2482 N   0  0  0  0  0  0  0  0  0  0  0  0
    9.9552   11.5482    0.1005 C   0  0  0  0  0  0  0  0  0  0  0  0
   10.3692   12.4177   -0.8506 N   0  0  0  0  0  0  0  0  0  0  0  0
   10.2386   12.0921   -2.1477 C   0  0  0  0  0  0  0  0  0  0  0  0
    9.6848   10.9206   -2.4969 N   0  0  0  0  0  0  0  0  0  0  0  0
   10.0859   11.8568    1.5401 N   0  0  0  0  0  0  0  0  0  0  0  0
    8.7047    8.8875   -1.8523 O   0  0  0  0  0  0  0  0  0  0  0  0
  1  2  1  0  0  0  0
  1  6  1  0  0  0  0
  1  8  2  0  0  0  0
  2  3  1  0  0  0  0
  3  4  2  0  0  0  0
  3  7  1  0  0  0  0
  4  5  1  0  0  0  0
  5  6  2  0  0  0  0
M  END
>  <CHROM.1>
9.68931622,10.97140540,-0.93923931,2.33650021,-1.12648108,-1.59348406

>  <Name>
ligand

>  <RI>
0

>  <Rbt.Current_Directory>
/home/itssahil/PROJECTS/Mol_Feturizer/Test_systems_manuscript/rnas/3la5

>  <Rbt.Executable>
rbdock ($Id: //depot/dev/client3/rdock/2013.1/src/exe/rbdock.cxx#4 $)

>  <Rbt.Library>
libRbt.so (2013.1, Build901 2013/11/27)

>  <Rbt.Parameter_File>
/export/apps/rDock/src/rDock_2013.1_src/data/scripts/dock_solv.prm

>  <Rbt.Receptor>
prm/pocket_docking_8.prm

>  <SCORE>
-8.66692

>  <SCORE.INTER>
-8.66692

>  <SCORE.INTER.CONST>
1

>  <SCORE.INTER.POLAR>
0

>  <SCORE.INTER.ROT>
0

>  <SCORE.INTER.SOLV>
8.36196

>  <SCORE.INTER.VDW>
-12.1653

>  <SCORE.INTER.norm>
-1.08336

>  <SCORE.INTRA>
0

>  <SCORE.INTRA.DIHEDRAL>
0

>  <SCORE.INTRA.DIHEDRAL.0>
0

>  <SCORE.INTRA.POLAR>
0

>  <SCORE.INTRA.POLAR.0>
0

>  <SCORE.INTRA.REPUL>
0

>  <SCORE.INTRA.REPUL.0>
0

>  <SCORE.INTRA.SOLV>
0

>  <SCORE.INTRA.SOLV.lig_0>
-29.58

>  <SCORE.INTRA.VDW>
0

>  <SCORE.INTRA.VDW.0>
0

>  <SCORE.INTRA.norm>
0

>  <SCORE.RESTR>
0

>  <SCORE.RESTR.CAVITY>
0

>  <SCORE.RESTR.norm>
0

>  <SCORE.SYSTEM>
0

>  <SCORE.SYSTEM.CONST>
0

>  <SCORE.SYSTEM.DIHEDRAL>
0

>  <SCORE.SYSTEM.SOLV>
0

>  <SCORE.SYSTEM.norm>
0

>  <SCORE.heavy>
8

>  <SCORE.norm>
-1.08336

>  <RMSD>
3.471

$$$$
ligand
 OpenBabel02271912143D
libRbt.so/2013.1/901 2013/11/27
  8  8  0  0  0  0  0  0  0  0999 V2000
    9.2600   10.0694   -1.5272 C   0  0  0  0  0  0  0  0  0  0  0  0
    9.3904   10.3815   -0.2380 N   0  0  0  0  0  0  0  0  0  0  0  0
    9.9474   11.5453    0.1074 C   0  0  0  0  0  0  0  0  0  0  0  0
   10.3635   12.4111   -0.8461 N   0  0  0  0  0  0  0  0  0  0  0  0
   10.2319   12.0824   -2.1422 C   0  0  0  0  0  0  0  0  0  0  0  0
    9.6751   10.9113   -2.4882 N   0  0  0  0  0  0  0  0  0  0  0  0
   10.0789   11.8575    1.5462 N   0  0  0  0  0  0  0  0  0  0  0  0
    8.6900    8.8824   -1.8379 O   0  0  0  0  0  0  0  0  0  0  0  0
  1  2  1  0  0  0  0
  1  6  1  0  0  0  0
  1  8  2  0  0  0  0
  2  3  1  0  0  0  0
  3  4  2  0  0  0  0
  3  7  1  0  0  0  0
  4  5  1  0  0  0  0
  5  6  2  0  0  0  0
M  END
>  <CHROM.1>
9.67991850,10.96634257,-0.93065959,2.33683671,-1.12398287,-1.59591663

>  <Name>
ligand

>  <RI>
0

>  <Rbt.Current_Directory>
/home/itssahil/PROJECTS/Mol_Feturizer/Test_systems_manuscript/rnas/3la5

>  <Rbt.Executable>
rbdock ($Id: //depot/dev/client3/rdock/2013.1/src/exe/rbdock.cxx#4 $)

>  <Rbt.Library>
libRbt.so (2013.1, Build901 2013/11/27)

>  <Rbt.Parameter_File>
/export/apps/rDock/src/rDock_2013.1_src/data/scripts/dock_solv.prm

>  <Rbt.Receptor>
prm/pocket_docking_8.prm

>  <SCORE>
-8.62273

>  <SCORE.INTER>
-8.62273

>  <SCORE.INTER.CONST>
1

>  <SCORE.INTER.POLAR>
0

>  <SCORE.INTER.ROT>
0

>  <SCORE.INTER.SOLV>
8.39375

>  <SCORE.INTER.VDW>
-12.1464

>  <SCORE.INTER.norm>
-1.07784

>  <SCORE.INTRA>
0

>  <SCORE.INTRA.DIHEDRAL>
0

>  <SCORE.INTRA.DIHEDRAL.0>
0

>  <SCORE.INTRA.POLAR>
0

>  <SCORE.INTRA.POLAR.0>
0

>  <SCORE.INTRA.REPUL>
0

>  <SCORE.INTRA.REPUL.0>
0

>  <SCORE.INTRA.SOLV>
0

>  <SCORE.INTRA.SOLV.lig_0>
-29.58

>  <SCORE.INTRA.VDW>
0

>  <SCORE.INTRA.VDW.0>
0

>  <SCORE.INTRA.norm>
0

>  <SCORE.RESTR>
0

>  <SCORE.RESTR.CAVITY>
0

>  <SCORE.RESTR.norm>
0

>  <SCORE.SYSTEM>
0

>  <SCORE.SYSTEM.CONST>
0

>  <SCORE.SYSTEM.DIHEDRAL>
0

>  <SCORE.SYSTEM.SOLV>
0

>  <SCORE.SYSTEM.norm>
0

>  <SCORE.heavy>
8

>  <SCORE.norm>
-1.07784

>  <RMSD>
3.471

$$$$
ligand
 OpenBabel02271912143D
libRbt.so/2013.1/901 2013/11/27
  8  8  0  0  0  0  0  0  0  0999 V2000
    9.2749   10.0679   -1.5350 C   0  0  0  0  0  0  0  0  0  0  0  0
    9.4026   10.3799   -0.2455 N   0  0  0  0  0  0  0  0  0  0  0  0
    9.9556   11.5451    0.1013 C   0  0  0  0  0  0  0  0  0  0  0  0
   10.3705   12.4126   -0.8513 N   0  0  0  0  0  0  0  0  0  0  0  0
   10.2418   12.0840   -2.1478 C   0  0  0  0  0  0  0  0  0  0  0  0
    9.6890   10.9115   -2.4950 N   0  0  0  0  0  0  0  0  0  0  0  0
   10.0842   11.8570    1.5403 N   0  0  0  0  0  0  0  0  0  0  0  0
    8.7089    8.8794   -1.8471 O   0  0  0  0  0  0  0  0  0  0  0  0
  1  2  1  0  0  0  0
  1  6  1  0  0  0  0
  1  8  2  0  0  0  0
  2  3  1  0  0  0  0
  3  4  2  0  0  0  0
  3  7  1  0  0  0  0
  4  5  1  0  0  0  0
  5  6  2  0  0  0  0
M  END
>  <CHROM.1>
9.69138204,10.96582643,-0.93749769,2.33332079,-1.12689602,-1.59864084

>  <Name>
ligand

>  <RI>
0

>  <Rbt.Current_Directory>
/home/itssahil/PROJECTS/Mol_Feturizer/Test_systems_manuscript/rnas/3la5

>  <Rbt.Executable>
rbdock ($Id: //depot/dev/client3/rdock/2013.1/src/exe/rbdock.cxx#4 $)

>  <Rbt.Library>
libRbt.so (2013.1, Build901 2013/11/27)

>  <Rbt.Parameter_File>
/export/apps/rDock/src/rDock_2013.1_src/data/scripts/dock_solv.prm

>  <Rbt.Receptor>
prm/blind_docking_100.prm

>  <SCORE>
-8.66771

>  <SCORE.INTER>
-8.66771

>  <SCORE.INTER.CONST>
1

>  <SCORE.INTER.POLAR>
0

>  <SCORE.INTER.ROT>
0

>  <SCORE.INTER.SOLV>
8.35729

>  <SCORE.INTER.VDW>
-12.1642

>  <SCORE.INTER.norm>
-1.08346

>  <SCORE.INTRA>
0

>  <SCORE.INTRA.DIHEDRAL>
0

>  <SCORE.INTRA.DIHEDRAL.0>
0

>  <SCORE.INTRA.POLAR>
0

>  <SCORE.INTRA.POLAR.0>
0

>  <SCORE.INTRA.REPUL>
0

>  <SCORE.INTRA.REPUL.0>
0

>  <SCORE.INTRA.SOLV>
0

>  <SCORE.INTRA.SOLV.lig_0>
-29.58

>  <SCORE.INTRA.VDW>
0

>  <SCORE.INTRA.VDW.0>
0

>  <SCORE.INTRA.norm>
0

>  <SCORE.RESTR>
0

>  <SCORE.RESTR.CAVITY>
0

>  <SCORE.RESTR.norm>
0

>  <SCORE.SYSTEM>
0

>  <SCORE.SYSTEM.CONST>
0

>  <SCORE.SYSTEM.DIHEDRAL>
0

>  <SCORE.SYSTEM.SOLV>
0

>  <SCORE.SYSTEM.norm>
0

>  <SCORE.heavy>
8

>  <SCORE.norm>
-1.08346

>  <RMSD>
3.472

$$$$
ligand
 OpenBabel02271912143D
libRbt.so/2013.1/901 2013/11/27
  8  8  0  0  0  0  0  0  0  0999 V2000
    9.2751   10.0697   -1.5358 C   0  0  0  0  0  0  0  0  0  0  0  0
    9.4050   10.3804   -0.2463 N   0  0  0  0  0  0  0  0  0  0  0  0
    9.9563   11.5465    0.1006 C   0  0  0  0  0  0  0  0  0  0  0  0
   10.3672   12.4159   -0.8518 N   0  0  0  0  0  0  0  0  0  0  0  0
   10.2362   12.0886   -2.1484 C   0  0  0  0  0  0  0  0  0  0  0  0
    9.6851   10.9153   -2.4958 N   0  0  0  0  0  0  0  0  0  0  0  0
   10.0874   11.8569    1.5398 N   0  0  0  0  0  0  0  0  0  0  0  0
    8.7109    8.8803   -1.8481 O   0  0  0  0  0  0  0  0  0  0  0  0
  1  2  1  0  0  0  0
  1  6  1  0  0  0  0
  1  8  2  0  0  0  0
  2  3  1  0  0  0  0
  3  4  2  0  0  0  0
  3  7  1  0  0  0  0
  4  5  1  0  0  0  0
  5  6  2  0  0  0  0
M  END
>  <CHROM.1>
9.69092960,10.96781480,-0.93821654,2.33846108,-1.12910323,-1.59281970

>  <Name>
ligand

>  <RI>
0

>  <Rbt.Current_Directory>
/home/itssahil/PROJECTS/Mol_Feturizer/Test_systems_manuscript/rnas/3la5

>  <Rbt.Executable>
rbdock ($Id: //depot/dev/client3/rdock/2013.1/src/exe/rbdock.cxx#4 $)

>  <Rbt.Library>
libRbt.so (2013.1, Build901 2013/11/27)

>  <Rbt.Parameter_File>
/export/apps/rDock/src/rDock_2013.1_src/data/scripts/dock_solv.prm

>  <Rbt.Receptor>
prm/blind_docking_20.prm

>  <SCORE>
-8.66339

>  <SCORE.INTER>
-8.66339

>  <SCORE.INTER.CONST>
1

>  <SCORE.INTER.POLAR>
0

>  <SCORE.INTER.ROT>
0

>  <SCORE.INTER.SOLV>
8.35269

>  <SCORE.INTER.VDW>
-12.1598

>  <SCORE.INTER.norm>
-1.08292

>  <SCORE.INTRA>
0

>  <SCORE.INTRA.DIHEDRAL>
0

>  <SCORE.INTRA.DIHEDRAL.0>
0

>  <SCORE.INTRA.POLAR>
0

>  <SCORE.INTRA.POLAR.0>
0

>  <SCORE.INTRA.REPUL>
0

>  <SCORE.INTRA.REPUL.0>
0

>  <SCORE.INTRA.SOLV>
0

>  <SCORE.INTRA.SOLV.lig_0>
-29.58

>  <SCORE.INTRA.VDW>
0

>  <SCORE.INTRA.VDW.0>
0

>  <SCORE.INTRA.norm>
0

>  <SCORE.RESTR>
0

>  <SCORE.RESTR.CAVITY>
0

>  <SCORE.RESTR.norm>
0

>  <SCORE.SYSTEM>
0

>  <SCORE.SYSTEM.CONST>
0

>  <SCORE.SYSTEM.DIHEDRAL>
0

>  <SCORE.SYSTEM.SOLV>
0

>  <SCORE.SYSTEM.norm>
0

>  <SCORE.heavy>
8

>  <SCORE.norm>
-1.08292

>  <RMSD>
3.472

$$$$
ligand
 OpenBabel02271912143D
libRbt.so/2013.1/901 2013/11/27
  8  8  0  0  0  0  0  0  0  0999 V2000
    9.2800   10.0642   -1.5327 C   0  0  0  0  0  0  0  0  0  0  0  0
    9.4038   10.3790   -0.2435 N   0  0  0  0  0  0  0  0  0  0  0  0
    9.9542   11.5458    0.1023 C   0  0  0  0  0  0  0  0  0  0  0  0
   10.3705   12.4118   -0.8509 N   0  0  0  0  0  0  0  0  0  0  0  0
   10.2457   12.0804   -2.1471 C   0  0  0  0  0  0  0  0  0  0  0  0
    9.6955   10.9063   -2.4934 N   0  0  0  0  0  0  0  0  0  0  0  0
   10.0785   11.8608    1.5411 N   0  0  0  0  0  0  0  0  0  0  0  0
    8.7165    8.8742   -1.8438 O   0  0  0  0  0  0  0  0  0  0  0  0
  1  2  1  0  0  0  0
  1  6  1  0  0  0  0
  1  8  2  0  0  0  0
  2  3  1  0  0  0  0
  3  4  2  0  0  0  0
  3  7  1  0  0  0  0
  4  5  1  0  0  0  0
  5  6  2  0  0  0  0
M  END
>  <CHROM.1>
9.69360105,10.96392298,-0.93593163,2.32694807,-1.12821614,-1.60649275

>  <Name>
ligand

>  <RI>
0

>  <Rbt.Current_Directory>
/home/itssahil/PROJECTS/Mol_Feturizer/Test_systems_manuscript/rnas/3la5

>  <Rbt.Executable>
rbdock ($Id: //depot/dev/client3/rdock/2013.1/src/exe/rbdock.cxx#4 $)

>  <Rbt.Library>
libRbt.so (2013.1, Build901 2013/11/27)

>  <Rbt.Parameter_File>
/export/apps/rDock/src/rDock_2013.1_src/data/scripts/dock_solv.prm

>  <Rbt.Receptor>
prm/blind_docking_40.prm

>  <SCORE>
-8.66403

>  <SCORE.INTER>
-8.66403

>  <SCORE.INTER.CONST>
1

>  <SCORE.INTER.POLAR>
0

>  <SCORE.INTER.ROT>
0

>  <SCORE.INTER.SOLV>
8.34849

>  <SCORE.INTER.VDW>
-12.1589

>  <SCORE.INTER.norm>
-1.083

>  <SCORE.INTRA>
0

>  <SCORE.INTRA.DIHEDRAL>
0

>  <SCORE.INTRA.DIHEDRAL.0>
0

>  <SCORE.INTRA.POLAR>
0

>  <SCORE.INTRA.POLAR.0>
0

>  <SCORE.INTRA.REPUL>
0

>  <SCORE.INTRA.REPUL.0>
0

>  <SCORE.INTRA.SOLV>
0

>  <SCORE.INTRA.SOLV.lig_0>
-29.58

>  <SCORE.INTRA.VDW>
0

>  <SCORE.INTRA.VDW.0>
0

>  <SCORE.INTRA.norm>
0

>  <SCORE.RESTR>
0

>  <SCORE.RESTR.CAVITY>
0

>  <SCORE.RESTR.norm>
0

>  <SCORE.SYSTEM>
0

>  <SCORE.SYSTEM.CONST>
0

>  <SCORE.SYSTEM.DIHEDRAL>
0

>  <SCORE.SYSTEM.SOLV>
0

>  <SCORE.SYSTEM.norm>
0

>  <SCORE.heavy>
8

>  <SCORE.norm>
-1.083

>  <RMSD>
3.472

$$$$
ligand
 OpenBabel02271912143D
libRbt.so/2013.1/901 2013/11/27
  8  8  0  0  0  0  0  0  0  0999 V2000
    9.2544   10.0838   -1.5244 C   0  0  0  0  0  0  0  0  0  0  0  0
    9.3996   10.4038   -0.2387 N   0  0  0  0  0  0  0  0  0  0  0  0
    9.9601   11.5698    0.0933 C   0  0  0  0  0  0  0  0  0  0  0  0
   10.3649   12.4299   -0.8701 N   0  0  0  0  0  0  0  0  0  0  0  0
   10.2185   12.0933   -2.1627 C   0  0  0  0  0  0  0  0  0  0  0  0
    9.6582   10.9201   -2.4951 N   0  0  0  0  0  0  0  0  0  0  0  0
   10.1081   11.8906    1.5285 N   0  0  0  0  0  0  0  0  0  0  0  0
    8.6812    8.8949   -1.8214 O   0  0  0  0  0  0  0  0  0  0  0  0
  1  2  1  0  0  0  0
  1  6  1  0  0  0  0
  1  8  2  0  0  0  0
  2  3  1  0  0  0  0
  3  4  2  0  0  0  0
  3  7  1  0  0  0  0
  4  5  1  0  0  0  0
  5  6  2  0  0  0  0
M  END
>  <CHROM.1>
9.68087320,10.98447565,-0.93813816,2.36350428,-1.12446023,-1.57787602

>  <Name>
ligand

>  <RI>
0

>  <Rbt.Current_Directory>
/home/itssahil/PROJECTS/Mol_Feturizer/Test_systems_manuscript/rnas/3la5

>  <Rbt.Executable>
rbdock ($Id: //depot/dev/client3/rdock/2013.1/src/exe/rbdock.cxx#4 $)

>  <Rbt.Library>
libRbt.so (2013.1, Build901 2013/11/27)

>  <Rbt.Parameter_File>
/export/apps/rDock/src/rDock_2013.1_src/data/scripts/dock_solv.prm

>  <Rbt.Receptor>
prm/pocket_docking_4.prm

>  <SCORE>
-8.6204

>  <SCORE.INTER>
-8.6204

>  <SCORE.INTER.CONST>
1

>  <SCORE.INTER.POLAR>
0

>  <SCORE.INTER.ROT>
0

>  <SCORE.INTER.SOLV>
8.32976

>  <SCORE.INTER.VDW>
-12.1235

>  <SCORE.INTER.norm>
-1.07755

>  <SCORE.INTRA>
0

>  <SCORE.INTRA.DIHEDRAL>
0

>  <SCORE.INTRA.DIHEDRAL.0>
0

>  <SCORE.INTRA.POLAR>
0

>  <SCORE.INTRA.POLAR.0>
0

>  <SCORE.INTRA.REPUL>
0

>  <SCORE.INTRA.REPUL.0>
0

>  <SCORE.INTRA.SOLV>
0

>  <SCORE.INTRA.SOLV.lig_0>
-29.58

>  <SCORE.INTRA.VDW>
0

>  <SCORE.INTRA.VDW.0>
0

>  <SCORE.INTRA.norm>
0

>  <SCORE.RESTR>
0

>  <SCORE.RESTR.CAVITY>
0

>  <SCORE.RESTR.norm>
0

>  <SCORE.SYSTEM>
0

>  <SCORE.SYSTEM.CONST>
0

>  <SCORE.SYSTEM.DIHEDRAL>
0

>  <SCORE.SYSTEM.SOLV>
0

>  <SCORE.SYSTEM.norm>
0

>  <SCORE.heavy>
8

>  <SCORE.norm>
-1.07755

>  <RMSD>
3.472

$$$$
ligand
 OpenBabel02271912143D
libRbt.so/2013.1/901 2013/11/27
  8  8  0  0  0  0  0  0  0  0999 V2000
    9.2702   10.0811   -1.5313 C   0  0  0  0  0  0  0  0  0  0  0  0
    9.4011   10.4010   -0.2441 N   0  0  0  0  0  0  0  0  0  0  0  0
    9.9526   11.5696    0.0940 C   0  0  0  0  0  0  0  0  0  0  0  0
   10.3627   12.4322   -0.8649 N   0  0  0  0  0  0  0  0  0  0  0  0
   10.2308   12.0956   -2.1590 C   0  0  0  0  0  0  0  0  0  0  0  0
    9.6795   10.9198   -2.4976 N   0  0  0  0  0  0  0  0  0  0  0  0
   10.0848   11.8903    1.5308 N   0  0  0  0  0  0  0  0  0  0  0  0
    8.7059    8.8895   -1.8346 O   0  0  0  0  0  0  0  0  0  0  0  0
  1  2  1  0  0  0  0
  1  6  1  0  0  0  0
  1  8  2  0  0  0  0
  2  3  1  0  0  0  0
  3  4  2  0  0  0  0
  3  7  1  0  0  0  0
  4  5  1  0  0  0  0
  5  6  2  0  0  0  0
M  END
>  <CHROM.1>
9.68646990,10.98348463,-0.94042038,2.34026842,-1.12918337,-1.59834635

>  <Name>
ligand

>  <RI>
0

>  <Rbt.Current_Directory>
/home/itssahil/PROJECTS/Mol_Feturizer/Test_systems_manuscript/rnas/3la5

>  <Rbt.Executable>
rbdock ($Id: //depot/dev/client3/rdock/2013.1/src/exe/rbdock.cxx#4 $)

>  <Rbt.Library>
libRbt.so (2013.1, Build901 2013/11/27)

>  <Rbt.Parameter_File>
/export/apps/rDock/src/rDock_2013.1_src/data/scripts/dock_solv.prm

>  <Rbt.Receptor>
prm/pocket_docking_4.prm

>  <SCORE>
-8.66381

>  <SCORE.INTER>
-8.66381

>  <SCORE.INTER.CONST>
1

>  <SCORE.INTER.POLAR>
0

>  <SCORE.INTER.ROT>
0

>  <SCORE.INTER.SOLV>
8.31583

>  <SCORE.INTER.VDW>
-12.1478

>  <SCORE.INTER.norm>
-1.08298

>  <SCORE.INTRA>
0

>  <SCORE.INTRA.DIHEDRAL>
0

>  <SCORE.INTRA.DIHEDRAL.0>
0

>  <SCORE.INTRA.POLAR>
0

>  <SCORE.INTRA.POLAR.0>
0

>  <SCORE.INTRA.REPUL>
0

>  <SCORE.INTRA.REPUL.0>
0

>  <SCORE.INTRA.SOLV>
0

>  <SCORE.INTRA.SOLV.lig_0>
-29.58

>  <SCORE.INTRA.VDW>
0

>  <SCORE.INTRA.VDW.0>
0

>  <SCORE.INTRA.norm>
0

>  <SCORE.RESTR>
0

>  <SCORE.RESTR.CAVITY>
0

>  <SCORE.RESTR.norm>
0

>  <SCORE.SYSTEM>
0

>  <SCORE.SYSTEM.CONST>
0

>  <SCORE.SYSTEM.DIHEDRAL>
0

>  <SCORE.SYSTEM.SOLV>
0

>  <SCORE.SYSTEM.norm>
0

>  <SCORE.heavy>
8

>  <SCORE.norm>
-1.08298

>  <RMSD>
3.472

$$$$
ligand
 OpenBabel02271912143D
libRbt.so/2013.1/901 2013/11/27
  8  8  0  0  0  0  0  0  0  0999 V2000
    9.2726   10.0691   -1.5333 C   0  0  0  0  0  0  0  0  0  0  0  0
    9.4039   10.3808   -0.2440 N   0  0  0  0  0  0  0  0  0  0  0  0
    9.9552   11.5472    0.1014 C   0  0  0  0  0  0  0  0  0  0  0  0
   10.3647   12.4162   -0.8521 N   0  0  0  0  0  0  0  0  0  0  0  0
   10.2324   12.0879   -2.1483 C   0  0  0  0  0  0  0  0  0  0  0  0
    9.6814   10.9142   -2.4943 N   0  0  0  0  0  0  0  0  0  0  0  0
   10.0879   11.8588    1.5402 N   0  0  0  0  0  0  0  0  0  0  0  0
    8.7085    8.8793   -1.8440 O   0  0  0  0  0  0  0  0  0  0  0  0
  1  2  1  0  0  0  0
  1  6  1  0  0  0  0
  1  8  2  0  0  0  0
  2  3  1  0  0  0  0
  3  4  2  0  0  0  0
  3  7  1  0  0  0  0
  4  5  1  0  0  0  0
  5  6  2  0  0  0  0
M  END
>  <CHROM.1>
9.68887931,10.96775395,-0.93673490,2.34109174,-1.12944276,-1.59114909

>  <Name>
ligand

>  <RI>
0

>  <Rbt.Current_Directory>
/home/itssahil/PROJECTS/Mol_Feturizer/Test_systems_manuscript/rnas/3la5

>  <Rbt.Executable>
rbdock ($Id: //depot/dev/client3/rdock/2013.1/src/exe/rbdock.cxx#4 $)

>  <Rbt.Library>
libRbt.so (2013.1, Build901 2013/11/27)

>  <Rbt.Parameter_File>
/export/apps/rDock/src/rDock_2013.1_src/data/scripts/dock_solv.prm

>  <Rbt.Receptor>
prm/pocket_docking_5.prm

>  <SCORE>
-8.66649

>  <SCORE.INTER>
-8.66649

>  <SCORE.INTER.CONST>
1

>  <SCORE.INTER.POLAR>
0

>  <SCORE.INTER.ROT>
0

>  <SCORE.INTER.SOLV>
8.35431

>  <SCORE.INTER.VDW>
-12.1624

>  <SCORE.INTER.norm>
-1.08331

>  <SCORE.INTRA>
0

>  <SCORE.INTRA.DIHEDRAL>
0

>  <SCORE.INTRA.DIHEDRAL.0>
0

>  <SCORE.INTRA.POLAR>
0

>  <SCORE.INTRA.POLAR.0>
0

>  <SCORE.INTRA.REPUL>
0

>  <SCORE.INTRA.REPUL.0>
0

>  <SCORE.INTRA.SOLV>
0

>  <SCORE.INTRA.SOLV.lig_0>
-29.58

>  <SCORE.INTRA.VDW>
0

>  <SCORE.INTRA.VDW.0>
0

>  <SCORE.INTRA.norm>
0

>  <SCORE.RESTR>
0

>  <SCORE.RESTR.CAVITY>
0

>  <SCORE.RESTR.norm>
0

>  <SCORE.SYSTEM>
0

>  <SCORE.SYSTEM.CONST>
0

>  <SCORE.SYSTEM.DIHEDRAL>
0

>  <SCORE.SYSTEM.SOLV>
0

>  <SCORE.SYSTEM.norm>
0

>  <SCORE.heavy>
8

>  <SCORE.norm>
-1.08331

>  <RMSD>
3.472

$$$$
ligand
 OpenBabel02271912143D
libRbt.so/2013.1/901 2013/11/27
  8  8  0  0  0  0  0  0  0  0999 V2000
    9.2726   10.0809   -1.5302 C   0  0  0  0  0  0  0  0  0  0  0  0
    9.4021   10.4048   -0.2438 N   0  0  0  0  0  0  0  0  0  0  0  0
    9.9558   11.5732    0.0913 C   0  0  0  0  0  0  0  0  0  0  0  0
   10.3695   12.4317   -0.8698 N   0  0  0  0  0  0  0  0  0  0  0  0
   10.2390   12.0911   -2.1630 C   0  0  0  0  0  0  0  0  0  0  0  0
    9.6855   10.9155   -2.4986 N   0  0  0  0  0  0  0  0  0  0  0  0
   10.0863   11.8984    1.5273 N   0  0  0  0  0  0  0  0  0  0  0  0
    8.7059    8.8897   -1.8305 O   0  0  0  0  0  0  0  0  0  0  0  0
  1  2  1  0  0  0  0
  1  6  1  0  0  0  0
  1  8  2  0  0  0  0
  2  3  1  0  0  0  0
  3  4  2  0  0  0  0
  3  7  1  0  0  0  0
  4  5  1  0  0  0  0
  5  6  2  0  0  0  0
M  END
>  <CHROM.1>
9.69001707,10.98428932,-0.94161502,2.33647051,-1.12674989,-1.60509870

>  <Name>
ligand

>  <RI>
0

>  <Rbt.Current_Directory>
/home/itssahil/PROJECTS/Mol_Feturizer/Test_systems_manuscript/rnas/3la5

>  <Rbt.Executable>
rbdock ($Id: //depot/dev/client3/rdock/2013.1/src/exe/rbdock.cxx#4 $)

>  <Rbt.Library>
libRbt.so (2013.1, Build901 2013/11/27)

>  <Rbt.Parameter_File>
/export/apps/rDock/src/rDock_2013.1_src/data/scripts/dock_solv.prm

>  <Rbt.Receptor>
prm/pocket_docking_5.prm

>  <SCORE>
-8.66652

>  <SCORE.INTER>
-8.66652

>  <SCORE.INTER.CONST>
1

>  <SCORE.INTER.POLAR>
0

>  <SCORE.INTER.ROT>
0

>  <SCORE.INTER.SOLV>
8.30082

>  <SCORE.INTER.VDW>
-12.1446

>  <SCORE.INTER.norm>
-1.08331

>  <SCORE.INTRA>
0

>  <SCORE.INTRA.DIHEDRAL>
0

>  <SCORE.INTRA.DIHEDRAL.0>
0

>  <SCORE.INTRA.POLAR>
0

>  <SCORE.INTRA.POLAR.0>
0

>  <SCORE.INTRA.REPUL>
0

>  <SCORE.INTRA.REPUL.0>
0

>  <SCORE.INTRA.SOLV>
0

>  <SCORE.INTRA.SOLV.lig_0>
-29.58

>  <SCORE.INTRA.VDW>
0

>  <SCORE.INTRA.VDW.0>
0

>  <SCORE.INTRA.norm>
0

>  <SCORE.RESTR>
0

>  <SCORE.RESTR.CAVITY>
0

>  <SCORE.RESTR.norm>
0

>  <SCORE.SYSTEM>
0

>  <SCORE.SYSTEM.CONST>
0

>  <SCORE.SYSTEM.DIHEDRAL>
0

>  <SCORE.SYSTEM.SOLV>
0

>  <SCORE.SYSTEM.norm>
0

>  <SCORE.heavy>
8

>  <SCORE.norm>
-1.08331

>  <RMSD>
3.472

$$$$
ligand
 OpenBabel02271912143D
libRbt.so/2013.1/901 2013/11/27
  8  8  0  0  0  0  0  0  0  0999 V2000
    9.2756   10.0689   -1.5351 C   0  0  0  0  0  0  0  0  0  0  0  0
    9.4050   10.3804   -0.2457 N   0  0  0  0  0  0  0  0  0  0  0  0
    9.9562   11.5466    0.1006 C   0  0  0  0  0  0  0  0  0  0  0  0
   10.3676   12.4154   -0.8522 N   0  0  0  0  0  0  0  0  0  0  0  0
   10.2372   12.0873   -2.1486 C   0  0  0  0  0  0  0  0  0  0  0  0
    9.6862   10.9138   -2.4955 N   0  0  0  0  0  0  0  0  0  0  0  0
   10.0868   11.8580    1.5396 N   0  0  0  0  0  0  0  0  0  0  0  0
    8.7114    8.8794   -1.8468 O   0  0  0  0  0  0  0  0  0  0  0  0
  1  2  1  0  0  0  0
  1  6  1  0  0  0  0
  1  8  2  0  0  0  0
  2  3  1  0  0  0  0
  3  4  2  0  0  0  0
  3  7  1  0  0  0  0
  4  5  1  0  0  0  0
  5  6  2  0  0  0  0
M  END
>  <CHROM.1>
9.69127337,10.96732827,-0.93792446,2.33745356,-1.12898572,-1.59438310

>  <Name>
ligand

>  <RI>
0

>  <Rbt.Current_Directory>
/home/itssahil/PROJECTS/Mol_Feturizer/Test_systems_manuscript/rnas/3la5

>  <Rbt.Executable>
rbdock ($Id: //depot/dev/client3/rdock/2013.1/src/exe/rbdock.cxx#4 $)

>  <Rbt.Library>
libRbt.so (2013.1, Build901 2013/11/27)

>  <Rbt.Parameter_File>
/export/apps/rDock/src/rDock_2013.1_src/data/scripts/dock_solv.prm

>  <Rbt.Receptor>
prm/pocket_docking_7.prm

>  <SCORE>
-8.66406

>  <SCORE.INTER>
-8.66406

>  <SCORE.INTER.CONST>
1

>  <SCORE.INTER.POLAR>
0

>  <SCORE.INTER.ROT>
0

>  <SCORE.INTER.SOLV>
8.35111

>  <SCORE.INTER.VDW>
-12.1597

>  <SCORE.INTER.norm>
-1.08301

>  <SCORE.INTRA>
0

>  <SCORE.INTRA.DIHEDRAL>
0

>  <SCORE.INTRA.DIHEDRAL.0>
0

>  <SCORE.INTRA.POLAR>
0

>  <SCORE.INTRA.POLAR.0>
0

>  <SCORE.INTRA.REPUL>
0

>  <SCORE.INTRA.REPUL.0>
0

>  <SCORE.INTRA.SOLV>
0

>  <SCORE.INTRA.SOLV.lig_0>
-29.58

>  <SCORE.INTRA.VDW>
0

>  <SCORE.INTRA.VDW.0>
0

>  <SCORE.INTRA.norm>
0

>  <SCORE.RESTR>
0

>  <SCORE.RESTR.CAVITY>
0

>  <SCORE.RESTR.norm>
0

>  <SCORE.SYSTEM>
0

>  <SCORE.SYSTEM.CONST>
0

>  <SCORE.SYSTEM.DIHEDRAL>
0

>  <SCORE.SYSTEM.SOLV>
0

>  <SCORE.SYSTEM.norm>
0

>  <SCORE.heavy>
8

>  <SCORE.norm>
-1.08301

>  <RMSD>
3.472

$$$$
ligand
 OpenBabel02271912143D
libRbt.so/2013.1/901 2013/11/27
  8  8  0  0  0  0  0  0  0  0999 V2000
    9.2764   10.0639   -1.5320 C   0  0  0  0  0  0  0  0  0  0  0  0
    9.4043   10.3781   -0.2430 N   0  0  0  0  0  0  0  0  0  0  0  0
    9.9547   11.5453    0.1015 C   0  0  0  0  0  0  0  0  0  0  0  0
   10.3667   12.4123   -0.8526 N   0  0  0  0  0  0  0  0  0  0  0  0
   10.2378   12.0815   -2.1485 C   0  0  0  0  0  0  0  0  0  0  0  0
    9.6876   10.9071   -2.4936 N   0  0  0  0  0  0  0  0  0  0  0  0
   10.0836   11.8597    1.5400 N   0  0  0  0  0  0  0  0  0  0  0  0
    8.7130    8.8735   -1.8418 O   0  0  0  0  0  0  0  0  0  0  0  0
  1  2  1  0  0  0  0
  1  6  1  0  0  0  0
  1  8  2  0  0  0  0
  2  3  1  0  0  0  0
  3  4  2  0  0  0  0
  3  7  1  0  0  0  0
  4  5  1  0  0  0  0
  5  6  2  0  0  0  0
M  END
>  <CHROM.1>
9.69107752,10.96374954,-0.93614302,2.33498429,-1.12938692,-1.59865164

>  <Name>
ligand

>  <RI>
0

>  <Rbt.Current_Directory>
/home/itssahil/PROJECTS/Mol_Feturizer/Test_systems_manuscript/rnas/3la5

>  <Rbt.Executable>
rbdock ($Id: //depot/dev/client3/rdock/2013.1/src/exe/rbdock.cxx#4 $)

>  <Rbt.Library>
libRbt.so (2013.1, Build901 2013/11/27)

>  <Rbt.Parameter_File>
/export/apps/rDock/src/rDock_2013.1_src/data/scripts/dock_solv.prm

>  <Rbt.Receptor>
prm/pocket_docking_8.prm

>  <SCORE>
-8.66496

>  <SCORE.INTER>
-8.66496

>  <SCORE.INTER.CONST>
1

>  <SCORE.INTER.POLAR>
0

>  <SCORE.INTER.ROT>
0

>  <SCORE.INTER.SOLV>
8.35017

>  <SCORE.INTER.VDW>
-12.16

>  <SCORE.INTER.norm>
-1.08312

>  <SCORE.INTRA>
0

>  <SCORE.INTRA.DIHEDRAL>
0

>  <SCORE.INTRA.DIHEDRAL.0>
0

>  <SCORE.INTRA.POLAR>
0

>  <SCORE.INTRA.POLAR.0>
0

>  <SCORE.INTRA.REPUL>
0

>  <SCORE.INTRA.REPUL.0>
0

>  <SCORE.INTRA.SOLV>
0

>  <SCORE.INTRA.SOLV.lig_0>
-29.58

>  <SCORE.INTRA.VDW>
0

>  <SCORE.INTRA.VDW.0>
0

>  <SCORE.INTRA.norm>
0

>  <SCORE.RESTR>
0

>  <SCORE.RESTR.CAVITY>
0

>  <SCORE.RESTR.norm>
0

>  <SCORE.SYSTEM>
0

>  <SCORE.SYSTEM.CONST>
0

>  <SCORE.SYSTEM.DIHEDRAL>
0

>  <SCORE.SYSTEM.SOLV>
0

>  <SCORE.SYSTEM.norm>
0

>  <SCORE.heavy>
8

>  <SCORE.norm>
-1.08312

>  <RMSD>
3.472

$$$$
ligand
 OpenBabel02271912143D
libRbt.so/2013.1/901 2013/11/27
  8  8  0  0  0  0  0  0  0  0999 V2000
    9.2578   10.0630   -1.5294 C   0  0  0  0  0  0  0  0  0  0  0  0
    9.4256   10.3654   -0.2423 N   0  0  0  0  0  0  0  0  0  0  0  0
   10.0058   11.5201    0.0955 C   0  0  0  0  0  0  0  0  0  0  0  0
   10.4075   12.3868   -0.8634 N   0  0  0  0  0  0  0  0  0  0  0  0
   10.2381   12.0678   -2.1576 C   0  0  0  0  0  0  0  0  0  0  0  0
    9.6581   10.9059   -2.4959 N   0  0  0  0  0  0  0  0  0  0  0  0
   10.1786   11.8215    1.5321 N   0  0  0  0  0  0  0  0  0  0  0  0
    8.6653    8.8850   -1.8323 O   0  0  0  0  0  0  0  0  0  0  0  0
  1  2  1  0  0  0  0
  1  6  1  0  0  0  0
  1  8  2  0  0  0  0
  2  3  1  0  0  0  0
  3  4  2  0  0  0  0
  3  7  1  0  0  0  0
  4  5  1  0  0  0  0
  5  6  2  0  0  0  0
M  END
>  <CHROM.1>
9.70418779,10.95097366,-0.93874880,2.39639467,-1.11159194,-1.53620425

>  <Name>
ligand

>  <RI>
0

>  <Rbt.Current_Directory>
/home/itssahil/PROJECTS/Mol_Feturizer/Test_systems_manuscript/rnas/3la5

>  <Rbt.Executable>
rbdock ($Id: //depot/dev/client3/rdock/2013.1/src/exe/rbdock.cxx#4 $)

>  <Rbt.Library>
libRbt.so (2013.1, Build901 2013/11/27)

>  <Rbt.Parameter_File>
/export/apps/rDock/src/rDock_2013.1_src/data/scripts/dock_solv.prm

>  <Rbt.Receptor>
prm/blind_docking_20.prm

>  <SCORE>
-8.61059

>  <SCORE.INTER>
-8.61059

>  <SCORE.INTER.CONST>
1

>  <SCORE.INTER.POLAR>
0

>  <SCORE.INTER.ROT>
0

>  <SCORE.INTER.SOLV>
8.36427

>  <SCORE.INTER.VDW>
-12.1285

>  <SCORE.INTER.norm>
-1.07632

>  <SCORE.INTRA>
0

>  <SCORE.INTRA.DIHEDRAL>
0

>  <SCORE.INTRA.DIHEDRAL.0>
0

>  <SCORE.INTRA.POLAR>
0

>  <SCORE.INTRA.POLAR.0>
0

>  <SCORE.INTRA.REPUL>
0

>  <SCORE.INTRA.REPUL.0>
0

>  <SCORE.INTRA.SOLV>
0

>  <SCORE.INTRA.SOLV.lig_0>
-29.58

>  <SCORE.INTRA.VDW>
0

>  <SCORE.INTRA.VDW.0>
0

>  <SCORE.INTRA.norm>
0

>  <SCORE.RESTR>
0

>  <SCORE.RESTR.CAVITY>
0

>  <SCORE.RESTR.norm>
0

>  <SCORE.SYSTEM>
0

>  <SCORE.SYSTEM.CONST>
0

>  <SCORE.SYSTEM.DIHEDRAL>
0

>  <SCORE.SYSTEM.SOLV>
0

>  <SCORE.SYSTEM.norm>
0

>  <SCORE.heavy>
8

>  <SCORE.norm>
-1.07632

>  <RMSD>
3.473

$$$$
ligand
 OpenBabel02271912143D
libRbt.so/2013.1/901 2013/11/27
  8  8  0  0  0  0  0  0  0  0999 V2000
    9.2725   10.0652   -1.5343 C   0  0  0  0  0  0  0  0  0  0  0  0
    9.4059   10.3745   -0.2448 N   0  0  0  0  0  0  0  0  0  0  0  0
    9.9553   11.5416    0.1018 C   0  0  0  0  0  0  0  0  0  0  0  0
   10.3606   12.4134   -0.8508 N   0  0  0  0  0  0  0  0  0  0  0  0
   10.2262   12.0875   -2.1474 C   0  0  0  0  0  0  0  0  0  0  0  0
    9.6771   10.9131   -2.4945 N   0  0  0  0  0  0  0  0  0  0  0  0
   10.0904   11.8505    1.5409 N   0  0  0  0  0  0  0  0  0  0  0  0
    8.7105    8.8747   -1.8463 O   0  0  0  0  0  0  0  0  0  0  0  0
  1  2  1  0  0  0  0
  1  6  1  0  0  0  0
  1  8  2  0  0  0  0
  2  3  1  0  0  0  0
  3  4  2  0  0  0  0
  3  7  1  0  0  0  0
  4  5  1  0  0  0  0
  5  6  2  0  0  0  0
M  END
>  <CHROM.1>
9.68798728,10.96358815,-0.93690046,2.34620402,-1.13184791,-1.58448565

>  <Name>
ligand

>  <RI>
0

>  <Rbt.Current_Directory>
/home/itssahil/PROJECTS/Mol_Feturizer/Test_systems_manuscript/rnas/3la5

>  <Rbt.Executable>
rbdock ($Id: //depot/dev/client3/rdock/2013.1/src/exe/rbdock.cxx#4 $)

>  <Rbt.Library>
libRbt.so (2013.1, Build901 2013/11/27)

>  <Rbt.Parameter_File>
/export/apps/rDock/src/rDock_2013.1_src/data/scripts/dock_solv.prm

>  <Rbt.Receptor>
prm/pocket_docking_6.prm

>  <SCORE>
-8.65983

>  <SCORE.INTER>
-8.65983

>  <SCORE.INTER.CONST>
1

>  <SCORE.INTER.POLAR>
0

>  <SCORE.INTER.ROT>
0

>  <SCORE.INTER.SOLV>
8.35955

>  <SCORE.INTER.VDW>
-12.1597

>  <SCORE.INTER.norm>
-1.08248

>  <SCORE.INTRA>
0

>  <SCORE.INTRA.DIHEDRAL>
0

>  <SCORE.INTRA.DIHEDRAL.0>
0

>  <SCORE.INTRA.POLAR>
0

>  <SCORE.INTRA.POLAR.0>
0

>  <SCORE.INTRA.REPUL>
0

>  <SCORE.INTRA.REPUL.0>
0

>  <SCORE.INTRA.SOLV>
0

>  <SCORE.INTRA.SOLV.lig_0>
-29.58

>  <SCORE.INTRA.VDW>
0

>  <SCORE.INTRA.VDW.0>
0

>  <SCORE.INTRA.norm>
0

>  <SCORE.RESTR>
0

>  <SCORE.RESTR.CAVITY>
0

>  <SCORE.RESTR.norm>
0

>  <SCORE.SYSTEM>
0

>  <SCORE.SYSTEM.CONST>
0

>  <SCORE.SYSTEM.DIHEDRAL>
0

>  <SCORE.SYSTEM.SOLV>
0

>  <SCORE.SYSTEM.norm>
0

>  <SCORE.heavy>
8

>  <SCORE.norm>
-1.08248

>  <RMSD>
3.473

$$$$
ligand
 OpenBabel02271912143D
libRbt.so/2013.1/901 2013/11/27
  8  8  0  0  0  0  0  0  0  0999 V2000
    9.2763   10.1008   -1.5479 C   0  0  0  0  0  0  0  0  0  0  0  0
    9.3752   10.4293   -0.2600 N   0  0  0  0  0  0  0  0  0  0  0  0
    9.9359   11.5915    0.0847 C   0  0  0  0  0  0  0  0  0  0  0  0
   10.3878   12.4393   -0.8687 N   0  0  0  0  0  0  0  0  0  0  0  0
   10.2878   12.0941   -2.1633 C   0  0  0  0  0  0  0  0  0  0  0  0
    9.7272   10.9247   -2.5085 N   0  0  0  0  0  0  0  0  0  0  0  0
   10.0318   11.9221    1.5222 N   0  0  0  0  0  0  0  0  0  0  0  0
    8.7014    8.9161   -1.8581 O   0  0  0  0  0  0  0  0  0  0  0  0
  1  2  1  0  0  0  0
  1  6  1  0  0  0  0
  1  8  2  0  0  0  0
  2  3  1  0  0  0  0
  3  4  2  0  0  0  0
  3  7  1  0  0  0  0
  4  5  1  0  0  0  0
  5  6  2  0  0  0  0
M  END
>  <CHROM.1>
9.69016941,11.00119962,-0.95236478,2.27606328,-1.11103238,-1.66426208

>  <Name>
ligand

>  <RI>
0

>  <Rbt.Current_Directory>
/home/itssahil/PROJECTS/Mol_Feturizer/Test_systems_manuscript/rnas/3la5

>  <Rbt.Executable>
rbdock ($Id: //depot/dev/client3/rdock/2013.1/src/exe/rbdock.cxx#4 $)

>  <Rbt.Library>
libRbt.so (2013.1, Build901 2013/11/27)

>  <Rbt.Parameter_File>
/export/apps/rDock/src/rDock_2013.1_src/data/scripts/dock_solv.prm

>  <Rbt.Receptor>
prm/pocket_docking_6.prm

>  <SCORE>
-8.59432

>  <SCORE.INTER>
-8.59432

>  <SCORE.INTER.CONST>
1

>  <SCORE.INTER.POLAR>
0

>  <SCORE.INTER.ROT>
0

>  <SCORE.INTER.SOLV>
8.36887

>  <SCORE.INTER.VDW>
-12.1192

>  <SCORE.INTER.norm>
-1.07429

>  <SCORE.INTRA>
0

>  <SCORE.INTRA.DIHEDRAL>
0

>  <SCORE.INTRA.DIHEDRAL.0>
0

>  <SCORE.INTRA.POLAR>
0

>  <SCORE.INTRA.POLAR.0>
0

>  <SCORE.INTRA.REPUL>
0

>  <SCORE.INTRA.REPUL.0>
0

>  <SCORE.INTRA.SOLV>
0

>  <SCORE.INTRA.SOLV.lig_0>
-29.58

>  <SCORE.INTRA.VDW>
0

>  <SCORE.INTRA.VDW.0>
0

>  <SCORE.INTRA.norm>
0

>  <SCORE.RESTR>
0

>  <SCORE.RESTR.CAVITY>
0

>  <SCORE.RESTR.norm>
0

>  <SCORE.SYSTEM>
0

>  <SCORE.SYSTEM.CONST>
0

>  <SCORE.SYSTEM.DIHEDRAL>
0

>  <SCORE.SYSTEM.SOLV>
0

>  <SCORE.SYSTEM.norm>
0

>  <SCORE.heavy>
8

>  <SCORE.norm>
-1.07429

>  <RMSD>
3.473

$$$$
ligand
 OpenBabel02271912143D
libRbt.so/2013.1/901 2013/11/27
  8  8  0  0  0  0  0  0  0  0999 V2000
    9.2718   10.0703   -1.5451 C   0  0  0  0  0  0  0  0  0  0  0  0
    9.4071   10.3741   -0.2544 N   0  0  0  0  0  0  0  0  0  0  0  0
    9.9578   11.5392    0.0964 C   0  0  0  0  0  0  0  0  0  0  0  0
   10.3627   12.4147   -0.8531 N   0  0  0  0  0  0  0  0  0  0  0  0
   10.2263   12.0944   -2.1509 C   0  0  0  0  0  0  0  0  0  0  0  0
    9.6758   10.9220   -2.5022 N   0  0  0  0  0  0  0  0  0  0  0  0
   10.0950   11.8420    1.5366 N   0  0  0  0  0  0  0  0  0  0  0  0
    8.7084    8.8816   -1.8613 O   0  0  0  0  0  0  0  0  0  0  0  0
  1  2  1  0  0  0  0
  1  6  1  0  0  0  0
  1  8  2  0  0  0  0
  2  3  1  0  0  0  0
  3  4  2  0  0  0  0
  3  7  1  0  0  0  0
  4  5  1  0  0  0  0
  5  6  2  0  0  0  0
M  END
>  <CHROM.1>
9.68874233,10.96584691,-0.94439299,2.34923858,-1.13104876,-1.57754022

>  <Name>
ligand

>  <RI>
0

>  <Rbt.Current_Directory>
/home/itssahil/PROJECTS/Mol_Feturizer/Test_systems_manuscript/rnas/3la5

>  <Rbt.Executable>
rbdock ($Id: //depot/dev/client3/rdock/2013.1/src/exe/rbdock.cxx#4 $)

>  <Rbt.Library>
libRbt.so (2013.1, Build901 2013/11/27)

>  <Rbt.Parameter_File>
/export/apps/rDock/src/rDock_2013.1_src/data/scripts/dock_solv.prm

>  <Rbt.Receptor>
prm/blind_docking_80.prm

>  <SCORE>
-8.64623

>  <SCORE.INTER>
-8.64623

>  <SCORE.INTER.CONST>
1

>  <SCORE.INTER.POLAR>
0

>  <SCORE.INTER.ROT>
0

>  <SCORE.INTER.SOLV>
8.36151

>  <SCORE.INTER.VDW>
-12.1513

>  <SCORE.INTER.norm>
-1.08078

>  <SCORE.INTRA>
0

>  <SCORE.INTRA.DIHEDRAL>
0

>  <SCORE.INTRA.DIHEDRAL.0>
0

>  <SCORE.INTRA.POLAR>
0

>  <SCORE.INTRA.POLAR.0>
0

>  <SCORE.INTRA.REPUL>
0

>  <SCORE.INTRA.REPUL.0>
0

>  <SCORE.INTRA.SOLV>
0

>  <SCORE.INTRA.SOLV.lig_0>
-29.58

>  <SCORE.INTRA.VDW>
0

>  <SCORE.INTRA.VDW.0>
0

>  <SCORE.INTRA.norm>
0

>  <SCORE.RESTR>
0

>  <SCORE.RESTR.CAVITY>
0

>  <SCORE.RESTR.norm>
0

>  <SCORE.SYSTEM>
0

>  <SCORE.SYSTEM.CONST>
0

>  <SCORE.SYSTEM.DIHEDRAL>
0

>  <SCORE.SYSTEM.SOLV>
0

>  <SCORE.SYSTEM.norm>
0

>  <SCORE.heavy>
8

>  <SCORE.norm>
-1.08078

>  <RMSD>
3.474

$$$$
ligand
 OpenBabel02271912143D
libRbt.so/2013.1/901 2013/11/27
  8  8  0  0  0  0  0  0  0  0999 V2000
    9.2776   10.0602   -1.5328 C   0  0  0  0  0  0  0  0  0  0  0  0
    9.4087   10.3754   -0.2445 N   0  0  0  0  0  0  0  0  0  0  0  0
    9.9599   11.5428    0.0979 C   0  0  0  0  0  0  0  0  0  0  0  0
   10.3694   12.4092   -0.8579 N   0  0  0  0  0  0  0  0  0  0  0  0
   10.2373   12.0774   -2.1532 C   0  0  0  0  0  0  0  0  0  0  0  0
    9.6863   10.9027   -2.4961 N   0  0  0  0  0  0  0  0  0  0  0  0
   10.0923   11.8582    1.5358 N   0  0  0  0  0  0  0  0  0  0  0  0
    8.7135    8.8696   -1.8405 O   0  0  0  0  0  0  0  0  0  0  0  0
  1  2  1  0  0  0  0
  1  6  1  0  0  0  0
  1  8  2  0  0  0  0
  2  3  1  0  0  0  0
  3  4  2  0  0  0  0
  3  7  1  0  0  0  0
  4  5  1  0  0  0  0
  5  6  2  0  0  0  0
M  END
>  <CHROM.1>
9.69368293,10.96052774,-0.93869725,2.34082274,-1.12950203,-1.59408258

>  <Name>
ligand

>  <RI>
0

>  <Rbt.Current_Directory>
/home/itssahil/PROJECTS/Mol_Feturizer/Test_systems_manuscript/rnas/3la5

>  <Rbt.Executable>
rbdock ($Id: //depot/dev/client3/rdock/2013.1/src/exe/rbdock.cxx#4 $)

>  <Rbt.Library>
libRbt.so (2013.1, Build901 2013/11/27)

>  <Rbt.Parameter_File>
/export/apps/rDock/src/rDock_2013.1_src/data/scripts/dock_solv.prm

>  <Rbt.Receptor>
prm/pocket_docking_5.prm

>  <SCORE>
-8.65865

>  <SCORE.INTER>
-8.65865

>  <SCORE.INTER.CONST>
1

>  <SCORE.INTER.POLAR>
0

>  <SCORE.INTER.ROT>
0

>  <SCORE.INTER.SOLV>
8.33961

>  <SCORE.INTER.VDW>
-12.1523

>  <SCORE.INTER.norm>
-1.08233

>  <SCORE.INTRA>
0

>  <SCORE.INTRA.DIHEDRAL>
0

>  <SCORE.INTRA.DIHEDRAL.0>
0

>  <SCORE.INTRA.POLAR>
0

>  <SCORE.INTRA.POLAR.0>
0

>  <SCORE.INTRA.REPUL>
0

>  <SCORE.INTRA.REPUL.0>
0

>  <SCORE.INTRA.SOLV>
0

>  <SCORE.INTRA.SOLV.lig_0>
-29.58

>  <SCORE.INTRA.VDW>
0

>  <SCORE.INTRA.VDW.0>
0

>  <SCORE.INTRA.norm>
0

>  <SCORE.RESTR>
0

>  <SCORE.RESTR.CAVITY>
0

>  <SCORE.RESTR.norm>
0

>  <SCORE.SYSTEM>
0

>  <SCORE.SYSTEM.CONST>
0

>  <SCORE.SYSTEM.DIHEDRAL>
0

>  <SCORE.SYSTEM.SOLV>
0

>  <SCORE.SYSTEM.norm>
0

>  <SCORE.heavy>
8

>  <SCORE.norm>
-1.08233

>  <RMSD>
3.474

$$$$
ligand
 OpenBabel02271912143D
libRbt.so/2013.1/901 2013/11/27
  8  8  0  0  0  0  0  0  0  0999 V2000
    9.2725   10.0766   -1.5341 C   0  0  0  0  0  0  0  0  0  0  0  0
    9.4161   10.3939   -0.2475 N   0  0  0  0  0  0  0  0  0  0  0  0
    9.9695   11.5624    0.0876 C   0  0  0  0  0  0  0  0  0  0  0  0
   10.3687   12.4277   -0.8736 N   0  0  0  0  0  0  0  0  0  0  0  0
   10.2241   12.0938   -2.1670 C   0  0  0  0  0  0  0  0  0  0  0  0
    9.6709   10.9181   -2.5026 N   0  0  0  0  0  0  0  0  0  0  0  0
   10.1158   11.8801    1.5236 N   0  0  0  0  0  0  0  0  0  0  0  0
    8.7067    8.8850   -1.8343 O   0  0  0  0  0  0  0  0  0  0  0  0
  1  2  1  0  0  0  0
  1  6  1  0  0  0  0
  1  8  2  0  0  0  0
  2  3  1  0  0  0  0
  3  4  2  0  0  0  0
  3  7  1  0  0  0  0
  4  5  1  0  0  0  0
  5  6  2  0  0  0  0
M  END
>  <CHROM.1>
9.69362129,10.97824285,-0.94545174,2.36394576,-1.13062920,-1.57470036

>  <Name>
ligand

>  <RI>
0

>  <Rbt.Current_Directory>
/home/itssahil/PROJECTS/Mol_Feturizer/Test_systems_manuscript/rnas/3la5

>  <Rbt.Executable>
rbdock ($Id: //depot/dev/client3/rdock/2013.1/src/exe/rbdock.cxx#4 $)

>  <Rbt.Library>
libRbt.so (2013.1, Build901 2013/11/27)

>  <Rbt.Parameter_File>
/export/apps/rDock/src/rDock_2013.1_src/data/scripts/dock_solv.prm

>  <Rbt.Receptor>
prm/pocket_docking_5.prm

>  <SCORE>
-8.64829

>  <SCORE.INTER>
-8.64829

>  <SCORE.INTER.CONST>
1

>  <SCORE.INTER.POLAR>
0

>  <SCORE.INTER.ROT>
0

>  <SCORE.INTER.SOLV>
8.29451

>  <SCORE.INTER.VDW>
-12.1304

>  <SCORE.INTER.norm>
-1.08104

>  <SCORE.INTRA>
0

>  <SCORE.INTRA.DIHEDRAL>
0

>  <SCORE.INTRA.DIHEDRAL.0>
0

>  <SCORE.INTRA.POLAR>
0

>  <SCORE.INTRA.POLAR.0>
0

>  <SCORE.INTRA.REPUL>
0

>  <SCORE.INTRA.REPUL.0>
0

>  <SCORE.INTRA.SOLV>
0

>  <SCORE.INTRA.SOLV.lig_0>
-29.58

>  <SCORE.INTRA.VDW>
0

>  <SCORE.INTRA.VDW.0>
0

>  <SCORE.INTRA.norm>
0

>  <SCORE.RESTR>
0

>  <SCORE.RESTR.CAVITY>
0

>  <SCORE.RESTR.norm>
0

>  <SCORE.SYSTEM>
0

>  <SCORE.SYSTEM.CONST>
0

>  <SCORE.SYSTEM.DIHEDRAL>
0

>  <SCORE.SYSTEM.SOLV>
0

>  <SCORE.SYSTEM.norm>
0

>  <SCORE.heavy>
8

>  <SCORE.norm>
-1.08104

>  <RMSD>
3.474

$$$$
ligand
 OpenBabel02271912143D
libRbt.so/2013.1/901 2013/11/27
  8  8  0  0  0  0  0  0  0  0999 V2000
    9.2765   10.0648   -1.5375 C   0  0  0  0  0  0  0  0  0  0  0  0
    9.4059   10.3768   -0.2482 N   0  0  0  0  0  0  0  0  0  0  0  0
    9.9601   11.5417    0.0978 C   0  0  0  0  0  0  0  0  0  0  0  0
   10.3744   12.4089   -0.8553 N   0  0  0  0  0  0  0  0  0  0  0  0
   10.2439   12.0802   -2.1516 C   0  0  0  0  0  0  0  0  0  0  0  0
    9.6899   10.9080   -2.4981 N   0  0  0  0  0  0  0  0  0  0  0  0
   10.0906   11.8537    1.5367 N   0  0  0  0  0  0  0  0  0  0  0  0
    8.7093    8.8766   -1.8488 O   0  0  0  0  0  0  0  0  0  0  0  0
  1  2  1  0  0  0  0
  1  6  1  0  0  0  0
  1  8  2  0  0  0  0
  2  3  1  0  0  0  0
  3  4  2  0  0  0  0
  3  7  1  0  0  0  0
  4  5  1  0  0  0  0
  5  6  2  0  0  0  0
M  END
>  <CHROM.1>
9.69421255,10.96249783,-0.94055469,2.33617174,-1.12630998,-1.59616554

>  <Name>
ligand

>  <RI>
0

>  <Rbt.Current_Directory>
/home/itssahil/PROJECTS/Mol_Feturizer/Test_systems_manuscript/rnas/3la5

>  <Rbt.Executable>
rbdock ($Id: //depot/dev/client3/rdock/2013.1/src/exe/rbdock.cxx#4 $)

>  <Rbt.Library>
libRbt.so (2013.1, Build901 2013/11/27)

>  <Rbt.Parameter_File>
/export/apps/rDock/src/rDock_2013.1_src/data/scripts/dock_solv.prm

>  <Rbt.Receptor>
prm/pocket_docking_6.prm

>  <SCORE>
-8.66144

>  <SCORE.INTER>
-8.66144

>  <SCORE.INTER.CONST>
1

>  <SCORE.INTER.POLAR>
0

>  <SCORE.INTER.ROT>
0

>  <SCORE.INTER.SOLV>
8.35034

>  <SCORE.INTER.VDW>
-12.1577

>  <SCORE.INTER.norm>
-1.08268

>  <SCORE.INTRA>
0

>  <SCORE.INTRA.DIHEDRAL>
0

>  <SCORE.INTRA.DIHEDRAL.0>
0

>  <SCORE.INTRA.POLAR>
0

>  <SCORE.INTRA.POLAR.0>
0

>  <SCORE.INTRA.REPUL>
0

>  <SCORE.INTRA.REPUL.0>
0

>  <SCORE.INTRA.SOLV>
0

>  <SCORE.INTRA.SOLV.lig_0>
-29.58

>  <SCORE.INTRA.VDW>
0

>  <SCORE.INTRA.VDW.0>
0

>  <SCORE.INTRA.norm>
0

>  <SCORE.RESTR>
0

>  <SCORE.RESTR.CAVITY>
0

>  <SCORE.RESTR.norm>
0

>  <SCORE.SYSTEM>
0

>  <SCORE.SYSTEM.CONST>
0

>  <SCORE.SYSTEM.DIHEDRAL>
0

>  <SCORE.SYSTEM.SOLV>
0

>  <SCORE.SYSTEM.norm>
0

>  <SCORE.heavy>
8

>  <SCORE.norm>
-1.08268

>  <RMSD>
3.474

$$$$
ligand
 OpenBabel02271912143D
libRbt.so/2013.1/901 2013/11/27
  8  8  0  0  0  0  0  0  0  0999 V2000
    9.2743   10.0591   -1.5319 C   0  0  0  0  0  0  0  0  0  0  0  0
    9.4130   10.3700   -0.2433 N   0  0  0  0  0  0  0  0  0  0  0  0
    9.9575   11.5405    0.0995 C   0  0  0  0  0  0  0  0  0  0  0  0
   10.3525   12.4140   -0.8559 N   0  0  0  0  0  0  0  0  0  0  0  0
   10.2128   12.0865   -2.1515 C   0  0  0  0  0  0  0  0  0  0  0  0
    9.6686   10.9088   -2.4949 N   0  0  0  0  0  0  0  0  0  0  0  0
   10.0989   11.8511    1.5376 N   0  0  0  0  0  0  0  0  0  0  0  0
    8.7174    8.8652   -1.8400 O   0  0  0  0  0  0  0  0  0  0  0  0
  1  2  1  0  0  0  0
  1  6  1  0  0  0  0
  1  8  2  0  0  0  0
  2  3  1  0  0  0  0
  3  4  2  0  0  0  0
  3  7  1  0  0  0  0
  4  5  1  0  0  0  0
  5  6  2  0  0  0  0
M  END
>  <CHROM.1>
9.68782391,10.96028886,-0.93733707,2.35929054,-1.13768827,-1.57325213

>  <Name>
ligand

>  <RI>
0

>  <Rbt.Current_Directory>
/home/itssahil/PROJECTS/Mol_Feturizer/Test_systems_manuscript/rnas/3la5

>  <Rbt.Executable>
rbdock ($Id: //depot/dev/client3/rdock/2013.1/src/exe/rbdock.cxx#4 $)

>  <Rbt.Library>
libRbt.so (2013.1, Build901 2013/11/27)

>  <Rbt.Parameter_File>
/export/apps/rDock/src/rDock_2013.1_src/data/scripts/dock_solv.prm

>  <Rbt.Receptor>
prm/pocket_docking_7.prm

>  <SCORE>
-8.64443

>  <SCORE.INTER>
-8.64443

>  <SCORE.INTER.CONST>
1

>  <SCORE.INTER.POLAR>
0

>  <SCORE.INTER.ROT>
0

>  <SCORE.INTER.SOLV>
8.34204

>  <SCORE.INTER.VDW>
-12.1436

>  <SCORE.INTER.norm>
-1.08055

>  <SCORE.INTRA>
0

>  <SCORE.INTRA.DIHEDRAL>
0

>  <SCORE.INTRA.DIHEDRAL.0>
0

>  <SCORE.INTRA.POLAR>
0

>  <SCORE.INTRA.POLAR.0>
0

>  <SCORE.INTRA.REPUL>
0

>  <SCORE.INTRA.REPUL.0>
0

>  <SCORE.INTRA.SOLV>
0

>  <SCORE.INTRA.SOLV.lig_0>
-29.58

>  <SCORE.INTRA.VDW>
0

>  <SCORE.INTRA.VDW.0>
0

>  <SCORE.INTRA.norm>
0

>  <SCORE.RESTR>
0

>  <SCORE.RESTR.CAVITY>
0

>  <SCORE.RESTR.norm>
0

>  <SCORE.SYSTEM>
0

>  <SCORE.SYSTEM.CONST>
0

>  <SCORE.SYSTEM.DIHEDRAL>
0

>  <SCORE.SYSTEM.SOLV>
0

>  <SCORE.SYSTEM.norm>
0

>  <SCORE.heavy>
8

>  <SCORE.norm>
-1.08055

>  <RMSD>
3.474

$$$$
ligand
 OpenBabel02271912143D
libRbt.so/2013.1/901 2013/11/27
  8  8  0  0  0  0  0  0  0  0999 V2000
    9.2429   10.0953   -1.5251 C   0  0  0  0  0  0  0  0  0  0  0  0
    9.3889   10.4238   -0.2416 N   0  0  0  0  0  0  0  0  0  0  0  0
    9.9710   11.5815    0.0824 C   0  0  0  0  0  0  0  0  0  0  0  0
   10.3967   12.4248   -0.8868 N   0  0  0  0  0  0  0  0  0  0  0  0
   10.2492   12.0796   -2.1770 C   0  0  0  0  0  0  0  0  0  0  0  0
    9.6673   10.9146   -2.5014 N   0  0  0  0  0  0  0  0  0  0  0  0
   10.1191   11.9122    1.5154 N   0  0  0  0  0  0  0  0  0  0  0  0
    8.6477    8.9152   -1.8140 O   0  0  0  0  0  0  0  0  0  0  0  0
  1  2  1  0  0  0  0
  1  6  1  0  0  0  0
  1  8  2  0  0  0  0
  2  3  1  0  0  0  0
  3  4  2  0  0  0  0
  3  7  1  0  0  0  0
  4  5  1  0  0  0  0
  5  6  2  0  0  0  0
M  END
>  <CHROM.1>
9.68463146,10.99255441,-0.94500316,2.35435424,-1.10467693,-1.59504767

>  <Name>
ligand

>  <RI>
0

>  <Rbt.Current_Directory>
/home/itssahil/PROJECTS/Mol_Feturizer/Test_systems_manuscript/rnas/3la5

>  <Rbt.Executable>
rbdock ($Id: //depot/dev/client3/rdock/2013.1/src/exe/rbdock.cxx#4 $)

>  <Rbt.Library>
libRbt.so (2013.1, Build901 2013/11/27)

>  <Rbt.Parameter_File>
/export/apps/rDock/src/rDock_2013.1_src/data/scripts/dock_solv.prm

>  <Rbt.Receptor>
prm/pocket_docking_4.prm

>  <SCORE>
-8.59589

>  <SCORE.INTER>
-8.59589

>  <SCORE.INTER.CONST>
1

>  <SCORE.INTER.POLAR>
0

>  <SCORE.INTER.ROT>
0

>  <SCORE.INTER.SOLV>
8.33845

>  <SCORE.INTER.VDW>
-12.1101

>  <SCORE.INTER.norm>
-1.07449

>  <SCORE.INTRA>
0

>  <SCORE.INTRA.DIHEDRAL>
0

>  <SCORE.INTRA.DIHEDRAL.0>
0

>  <SCORE.INTRA.POLAR>
0

>  <SCORE.INTRA.POLAR.0>
0

>  <SCORE.INTRA.REPUL>
0

>  <SCORE.INTRA.REPUL.0>
0

>  <SCORE.INTRA.SOLV>
0

>  <SCORE.INTRA.SOLV.lig_0>
-29.58

>  <SCORE.INTRA.VDW>
0

>  <SCORE.INTRA.VDW.0>
0

>  <SCORE.INTRA.norm>
0

>  <SCORE.RESTR>
0

>  <SCORE.RESTR.CAVITY>
0

>  <SCORE.RESTR.norm>
0

>  <SCORE.SYSTEM>
0

>  <SCORE.SYSTEM.CONST>
0

>  <SCORE.SYSTEM.DIHEDRAL>
0

>  <SCORE.SYSTEM.SOLV>
0

>  <SCORE.SYSTEM.norm>
0

>  <SCORE.heavy>
8

>  <SCORE.norm>
-1.07449

>  <RMSD>
3.475

$$$$
ligand
 OpenBabel02271912143D
libRbt.so/2013.1/901 2013/11/27
  8  8  0  0  0  0  0  0  0  0999 V2000
    9.2664   10.0833   -1.5314 C   0  0  0  0  0  0  0  0  0  0  0  0
    9.3708   10.4135   -0.2443 N   0  0  0  0  0  0  0  0  0  0  0  0
    9.9195   11.5828    0.0959 C   0  0  0  0  0  0  0  0  0  0  0  0
   10.3536   12.4358   -0.8611 N   0  0  0  0  0  0  0  0  0  0  0  0
   10.2482   12.0889   -2.1549 C   0  0  0  0  0  0  0  0  0  0  0  0
    9.6998   10.9124   -2.4955 N   0  0  0  0  0  0  0  0  0  0  0  0
   10.0220   11.9150    1.5325 N   0  0  0  0  0  0  0  0  0  0  0  0
    8.7041    8.8914   -1.8369 O   0  0  0  0  0  0  0  0  0  0  0  0
  1  2  1  0  0  0  0
  1  6  1  0  0  0  0
  1  8  2  0  0  0  0
  2  3  1  0  0  0  0
  3  4  2  0  0  0  0
  3  7  1  0  0  0  0
  4  5  1  0  0  0  0
  5  6  2  0  0  0  0
M  END
>  <CHROM.1>
9.67344730,10.98905783,-0.93914699,2.29064245,-1.12416527,-1.65147400

>  <Name>
ligand

>  <RI>
0

>  <Rbt.Current_Directory>
/home/itssahil/PROJECTS/Mol_Feturizer/Test_systems_manuscript/rnas/3la5

>  <Rbt.Executable>
rbdock ($Id: //depot/dev/client3/rdock/2013.1/src/exe/rbdock.cxx#4 $)

>  <Rbt.Library>
libRbt.so (2013.1, Build901 2013/11/27)

>  <Rbt.Parameter_File>
/export/apps/rDock/src/rDock_2013.1_src/data/scripts/dock_solv.prm

>  <Rbt.Receptor>
prm/pocket_docking_4.prm

>  <SCORE>
-8.63037

>  <SCORE.INTER>
-8.63037

>  <SCORE.INTER.CONST>
1

>  <SCORE.INTER.POLAR>
0

>  <SCORE.INTER.ROT>
0

>  <SCORE.INTER.SOLV>
8.38467

>  <SCORE.INTER.VDW>
-12.1485

>  <SCORE.INTER.norm>
-1.0788

>  <SCORE.INTRA>
0

>  <SCORE.INTRA.DIHEDRAL>
0

>  <SCORE.INTRA.DIHEDRAL.0>
0

>  <SCORE.INTRA.POLAR>
0

>  <SCORE.INTRA.POLAR.0>
0

>  <SCORE.INTRA.REPUL>
0

>  <SCORE.INTRA.REPUL.0>
0

>  <SCORE.INTRA.SOLV>
0

>  <SCORE.INTRA.SOLV.lig_0>
-29.58

>  <SCORE.INTRA.VDW>
0

>  <SCORE.INTRA.VDW.0>
0

>  <SCORE.INTRA.norm>
0

>  <SCORE.RESTR>
0

>  <SCORE.RESTR.CAVITY>
0

>  <SCORE.RESTR.norm>
0

>  <SCORE.SYSTEM>
0

>  <SCORE.SYSTEM.CONST>
0

>  <SCORE.SYSTEM.DIHEDRAL>
0

>  <SCORE.SYSTEM.SOLV>
0

>  <SCORE.SYSTEM.norm>
0

>  <SCORE.heavy>
8

>  <SCORE.norm>
-1.0788

>  <RMSD>
3.475

$$$$
ligand
 OpenBabel02271912143D
libRbt.so/2013.1/901 2013/11/27
  8  8  0  0  0  0  0  0  0  0999 V2000
    9.2705   10.0764   -1.5297 C   0  0  0  0  0  0  0  0  0  0  0  0
    9.4348   10.3985   -0.2469 N   0  0  0  0  0  0  0  0  0  0  0  0
   10.0057   11.5624    0.0747 C   0  0  0  0  0  0  0  0  0  0  0  0
   10.4016   12.4183   -0.8962 N   0  0  0  0  0  0  0  0  0  0  0  0
   10.2359   12.0795   -2.1858 C   0  0  0  0  0  0  0  0  0  0  0  0
    9.6652   10.9083   -2.5078 N   0  0  0  0  0  0  0  0  0  0  0  0
   10.1748   11.8858    1.5070 N   0  0  0  0  0  0  0  0  0  0  0  0
    8.6874    8.8896   -1.8161 O   0  0  0  0  0  0  0  0  0  0  0  0
  1  2  1  0  0  0  0
  1  6  1  0  0  0  0
  1  8  2  0  0  0  0
  2  3  1  0  0  0  0
  3  4  2  0  0  0  0
  3  7  1  0  0  0  0
  4  5  1  0  0  0  0
  5  6  2  0  0  0  0
M  END
>  <CHROM.1>
9.70948407,10.97616183,-0.95145848,2.39484217,-1.11934721,-1.55197066

>  <Name>
ligand

>  <RI>
0

>  <Rbt.Current_Directory>
/home/itssahil/PROJECTS/Mol_Feturizer/Test_systems_manuscript/rnas/3la5

>  <Rbt.Executable>
rbdock ($Id: //depot/dev/client3/rdock/2013.1/src/exe/rbdock.cxx#4 $)

>  <Rbt.Library>
libRbt.so (2013.1, Build901 2013/11/27)

>  <Rbt.Parameter_File>
/export/apps/rDock/src/rDock_2013.1_src/data/scripts/dock_solv.prm

>  <Rbt.Receptor>
prm/pocket_docking_5.prm

>  <SCORE>
-8.58879

>  <SCORE.INTER>
-8.58879

>  <SCORE.INTER.CONST>
1

>  <SCORE.INTER.POLAR>
0

>  <SCORE.INTER.ROT>
0

>  <SCORE.INTER.SOLV>
8.24981

>  <SCORE.INTER.VDW>
-12.0758

>  <SCORE.INTER.norm>
-1.0736

>  <SCORE.INTRA>
0

>  <SCORE.INTRA.DIHEDRAL>
0

>  <SCORE.INTRA.DIHEDRAL.0>
0

>  <SCORE.INTRA.POLAR>
0

>  <SCORE.INTRA.POLAR.0>
0

>  <SCORE.INTRA.REPUL>
0

>  <SCORE.INTRA.REPUL.0>
0

>  <SCORE.INTRA.SOLV>
0

>  <SCORE.INTRA.SOLV.lig_0>
-29.58

>  <SCORE.INTRA.VDW>
0

>  <SCORE.INTRA.VDW.0>
0

>  <SCORE.INTRA.norm>
0

>  <SCORE.RESTR>
0

>  <SCORE.RESTR.CAVITY>
0

>  <SCORE.RESTR.norm>
0

>  <SCORE.SYSTEM>
0

>  <SCORE.SYSTEM.CONST>
0

>  <SCORE.SYSTEM.DIHEDRAL>
0

>  <SCORE.SYSTEM.SOLV>
0

>  <SCORE.SYSTEM.norm>
0

>  <SCORE.heavy>
8

>  <SCORE.norm>
-1.0736

>  <RMSD>
3.475

$$$$
ligand
 OpenBabel02271912143D
libRbt.so/2013.1/901 2013/11/27
  8  8  0  0  0  0  0  0  0  0999 V2000
    9.2622   10.0693   -1.5348 C   0  0  0  0  0  0  0  0  0  0  0  0
    9.4033   10.3790   -0.2462 N   0  0  0  0  0  0  0  0  0  0  0  0
    9.9600   11.5436    0.0969 C   0  0  0  0  0  0  0  0  0  0  0  0
   10.3652   12.4126   -0.8584 N   0  0  0  0  0  0  0  0  0  0  0  0
   10.2231   12.0863   -2.1540 C   0  0  0  0  0  0  0  0  0  0  0  0
    9.6665   10.9145   -2.4976 N   0  0  0  0  0  0  0  0  0  0  0  0
   10.1035   11.8530    1.5351 N   0  0  0  0  0  0  0  0  0  0  0  0
    8.6928    8.8814   -1.8431 O   0  0  0  0  0  0  0  0  0  0  0  0
  1  2  1  0  0  0  0
  1  6  1  0  0  0  0
  1  8  2  0  0  0  0
  2  3  1  0  0  0  0
  3  4  2  0  0  0  0
  3  7  1  0  0  0  0
  4  5  1  0  0  0  0
  5  6  2  0  0  0  0
M  END
>  <CHROM.1>
9.68497776,10.96611407,-0.94007984,2.35736402,-1.12689689,-1.57520662

>  <Name>
ligand

>  <RI>
0

>  <Rbt.Current_Directory>
/home/itssahil/PROJECTS/Mol_Feturizer/Test_systems_manuscript/rnas/3la5

>  <Rbt.Executable>
rbdock ($Id: //depot/dev/client3/rdock/2013.1/src/exe/rbdock.cxx#4 $)

>  <Rbt.Library>
libRbt.so (2013.1, Build901 2013/11/27)

>  <Rbt.Parameter_File>
/export/apps/rDock/src/rDock_2013.1_src/data/scripts/dock_solv.prm

>  <Rbt.Receptor>
prm/pocket_docking_7.prm

>  <SCORE>
-8.63938

>  <SCORE.INTER>
-8.63938

>  <SCORE.INTER.CONST>
1

>  <SCORE.INTER.POLAR>
0

>  <SCORE.INTER.ROT>
0

>  <SCORE.INTER.SOLV>
8.36285

>  <SCORE.INTER.VDW>
-12.1472

>  <SCORE.INTER.norm>
-1.07992

>  <SCORE.INTRA>
0

>  <SCORE.INTRA.DIHEDRAL>
0

>  <SCORE.INTRA.DIHEDRAL.0>
0

>  <SCORE.INTRA.POLAR>
0

>  <SCORE.INTRA.POLAR.0>
0

>  <SCORE.INTRA.REPUL>
0

>  <SCORE.INTRA.REPUL.0>
0

>  <SCORE.INTRA.SOLV>
0

>  <SCORE.INTRA.SOLV.lig_0>
-29.58

>  <SCORE.INTRA.VDW>
0

>  <SCORE.INTRA.VDW.0>
0

>  <SCORE.INTRA.norm>
0

>  <SCORE.RESTR>
0

>  <SCORE.RESTR.CAVITY>
0

>  <SCORE.RESTR.norm>
0

>  <SCORE.SYSTEM>
0

>  <SCORE.SYSTEM.CONST>
0

>  <SCORE.SYSTEM.DIHEDRAL>
0

>  <SCORE.SYSTEM.SOLV>
0

>  <SCORE.SYSTEM.norm>
0

>  <SCORE.heavy>
8

>  <SCORE.norm>
-1.07992

>  <RMSD>
3.475

$$$$
ligand
 OpenBabel02271912143D
libRbt.so/2013.1/901 2013/11/27
  8  8  0  0  0  0  0  0  0  0999 V2000
    9.2695   10.0717   -1.5270 C   0  0  0  0  0  0  0  0  0  0  0  0
    9.4360   10.3934   -0.2444 N   0  0  0  0  0  0  0  0  0  0  0  0
   10.0037   11.5591    0.0765 C   0  0  0  0  0  0  0  0  0  0  0  0
   10.3941   12.4170   -0.8947 N   0  0  0  0  0  0  0  0  0  0  0  0
   10.2262   12.0786   -2.1842 C   0  0  0  0  0  0  0  0  0  0  0  0
    9.6587   10.9057   -2.5056 N   0  0  0  0  0  0  0  0  0  0  0  0
   10.1755   11.8820    1.5086 N   0  0  0  0  0  0  0  0  0  0  0  0
    8.6897    8.8831   -1.8127 O   0  0  0  0  0  0  0  0  0  0  0  0
  1  2  1  0  0  0  0
  1  6  1  0  0  0  0
  1  8  2  0  0  0  0
  2  3  1  0  0  0  0
  3  4  2  0  0  0  0
  3  7  1  0  0  0  0
  4  5  1  0  0  0  0
  5  6  2  0  0  0  0
M  END
>  <CHROM.1>
9.70683894,10.97256751,-0.94927375,2.40104141,-1.12274660,-1.54566123

>  <Name>
ligand

>  <RI>
0

>  <Rbt.Current_Directory>
/home/itssahil/PROJECTS/Mol_Feturizer/Test_systems_manuscript/rnas/3la5

>  <Rbt.Executable>
rbdock ($Id: //depot/dev/client3/rdock/2013.1/src/exe/rbdock.cxx#4 $)

>  <Rbt.Library>
libRbt.so (2013.1, Build901 2013/11/27)

>  <Rbt.Parameter_File>
/export/apps/rDock/src/rDock_2013.1_src/data/scripts/dock_solv.prm

>  <Rbt.Receptor>
prm/blind_docking_20.prm

>  <SCORE>
-8.60982

>  <SCORE.INTER>
-8.60982

>  <SCORE.INTER.CONST>
1

>  <SCORE.INTER.POLAR>
0

>  <SCORE.INTER.ROT>
0

>  <SCORE.INTER.SOLV>
8.25007

>  <SCORE.INTER.VDW>
-12.0899

>  <SCORE.INTER.norm>
-1.07623

>  <SCORE.INTRA>
0

>  <SCORE.INTRA.DIHEDRAL>
0

>  <SCORE.INTRA.DIHEDRAL.0>
0

>  <SCORE.INTRA.POLAR>
0

>  <SCORE.INTRA.POLAR.0>
0

>  <SCORE.INTRA.REPUL>
0

>  <SCORE.INTRA.REPUL.0>
0

>  <SCORE.INTRA.SOLV>
0

>  <SCORE.INTRA.SOLV.lig_0>
-29.58

>  <SCORE.INTRA.VDW>
0

>  <SCORE.INTRA.VDW.0>
0

>  <SCORE.INTRA.norm>
0

>  <SCORE.RESTR>
0

>  <SCORE.RESTR.CAVITY>
0

>  <SCORE.RESTR.norm>
0

>  <SCORE.SYSTEM>
0

>  <SCORE.SYSTEM.CONST>
0

>  <SCORE.SYSTEM.DIHEDRAL>
0

>  <SCORE.SYSTEM.SOLV>
0

>  <SCORE.SYSTEM.norm>
0

>  <SCORE.heavy>
8

>  <SCORE.norm>
-1.07623

>  <RMSD>
3.476

$$$$
ligand
 OpenBabel02271912143D
libRbt.so/2013.1/901 2013/11/27
  8  8  0  0  0  0  0  0  0  0999 V2000
    9.2651   10.0764   -1.5287 C   0  0  0  0  0  0  0  0  0  0  0  0
    9.4015   10.4032   -0.2438 N   0  0  0  0  0  0  0  0  0  0  0  0
    9.9618   11.5699    0.0859 C   0  0  0  0  0  0  0  0  0  0  0  0
   10.3754   12.4239   -0.8793 N   0  0  0  0  0  0  0  0  0  0  0  0
   10.2378   12.0804   -2.1710 C   0  0  0  0  0  0  0  0  0  0  0  0
    9.6776   10.9064   -2.5011 N   0  0  0  0  0  0  0  0  0  0  0  0
   10.1000   11.8984    1.5203 N   0  0  0  0  0  0  0  0  0  0  0  0
    8.6918    8.8869   -1.8233 O   0  0  0  0  0  0  0  0  0  0  0  0
  1  2  1  0  0  0  0
  1  6  1  0  0  0  0
  1  8  2  0  0  0  0
  2  3  1  0  0  0  0
  3  4  2  0  0  0  0
  3  7  1  0  0  0  0
  4  5  1  0  0  0  0
  5  6  2  0  0  0  0
M  END
>  <CHROM.1>
9.68904588,10.97942449,-0.94435148,2.34664210,-1.12238568,-1.59864564

>  <Name>
ligand

>  <RI>
0

>  <Rbt.Current_Directory>
/home/itssahil/PROJECTS/Mol_Feturizer/Test_systems_manuscript/rnas/3la5

>  <Rbt.Executable>
rbdock ($Id: //depot/dev/client3/rdock/2013.1/src/exe/rbdock.cxx#4 $)

>  <Rbt.Library>
libRbt.so (2013.1, Build901 2013/11/27)

>  <Rbt.Parameter_File>
/export/apps/rDock/src/rDock_2013.1_src/data/scripts/dock_solv.prm

>  <Rbt.Receptor>
prm/blind_docking_80.prm

>  <SCORE>
-8.64182

>  <SCORE.INTER>
-8.64182

>  <SCORE.INTER.CONST>
1

>  <SCORE.INTER.POLAR>
0

>  <SCORE.INTER.ROT>
0

>  <SCORE.INTER.SOLV>
8.30111

>  <SCORE.INTER.VDW>
-12.1282

>  <SCORE.INTER.norm>
-1.08023

>  <SCORE.INTRA>
0

>  <SCORE.INTRA.DIHEDRAL>
0

>  <SCORE.INTRA.DIHEDRAL.0>
0

>  <SCORE.INTRA.POLAR>
0

>  <SCORE.INTRA.POLAR.0>
0

>  <SCORE.INTRA.REPUL>
0

>  <SCORE.INTRA.REPUL.0>
0

>  <SCORE.INTRA.SOLV>
0

>  <SCORE.INTRA.SOLV.lig_0>
-29.58

>  <SCORE.INTRA.VDW>
0

>  <SCORE.INTRA.VDW.0>
0

>  <SCORE.INTRA.norm>
0

>  <SCORE.RESTR>
0

>  <SCORE.RESTR.CAVITY>
0

>  <SCORE.RESTR.norm>
0

>  <SCORE.SYSTEM>
0

>  <SCORE.SYSTEM.CONST>
0

>  <SCORE.SYSTEM.DIHEDRAL>
0

>  <SCORE.SYSTEM.SOLV>
0

>  <SCORE.SYSTEM.norm>
0

>  <SCORE.heavy>
8

>  <SCORE.norm>
-1.08023

>  <RMSD>
3.476

$$$$
ligand
 OpenBabel02271912143D
libRbt.so/2013.1/901 2013/11/27
  8  8  0  0  0  0  0  0  0  0999 V2000
    9.2635   10.0731   -1.5234 C   0  0  0  0  0  0  0  0  0  0  0  0
    9.3980   10.4029   -0.2391 N   0  0  0  0  0  0  0  0  0  0  0  0
    9.9564   11.5712    0.0886 C   0  0  0  0  0  0  0  0  0  0  0  0
   10.3697   12.4237   -0.8781 N   0  0  0  0  0  0  0  0  0  0  0  0
   10.2340   12.0771   -2.1692 C   0  0  0  0  0  0  0  0  0  0  0  0
    9.6759   10.9016   -2.4972 N   0  0  0  0  0  0  0  0  0  0  0  0
   10.0924   11.9031    1.5224 N   0  0  0  0  0  0  0  0  0  0  0  0
    8.6923    8.8821   -1.8160 O   0  0  0  0  0  0  0  0  0  0  0  0
  1  2  1  0  0  0  0
  1  6  1  0  0  0  0
  1  8  2  0  0  0  0
  2  3  1  0  0  0  0
  3  4  2  0  0  0  0
  3  7  1  0  0  0  0
  4  5  1  0  0  0  0
  5  6  2  0  0  0  0
M  END
>  <CHROM.1>
9.68553725,10.97805439,-0.94062850,2.34403487,-1.12379735,-1.60320977

>  <Name>
ligand

>  <RI>
0

>  <Rbt.Current_Directory>
/home/itssahil/PROJECTS/Mol_Feturizer/Test_systems_manuscript/rnas/3la5

>  <Rbt.Executable>
rbdock ($Id: //depot/dev/client3/rdock/2013.1/src/exe/rbdock.cxx#4 $)

>  <Rbt.Library>
libRbt.so (2013.1, Build901 2013/11/27)

>  <Rbt.Parameter_File>
/export/apps/rDock/src/rDock_2013.1_src/data/scripts/dock_solv.prm

>  <Rbt.Receptor>
prm/pocket_docking_6.prm

>  <SCORE>
-8.64339

>  <SCORE.INTER>
-8.64339

>  <SCORE.INTER.CONST>
1

>  <SCORE.INTER.POLAR>
0

>  <SCORE.INTER.ROT>
0

>  <SCORE.INTER.SOLV>
8.30779

>  <SCORE.INTER.VDW>
-12.1315

>  <SCORE.INTER.norm>
-1.08042

>  <SCORE.INTRA>
0

>  <SCORE.INTRA.DIHEDRAL>
0

>  <SCORE.INTRA.DIHEDRAL.0>
0

>  <SCORE.INTRA.POLAR>
0

>  <SCORE.INTRA.POLAR.0>
0

>  <SCORE.INTRA.REPUL>
0

>  <SCORE.INTRA.REPUL.0>
0

>  <SCORE.INTRA.SOLV>
0

>  <SCORE.INTRA.SOLV.lig_0>
-29.58

>  <SCORE.INTRA.VDW>
0

>  <SCORE.INTRA.VDW.0>
0

>  <SCORE.INTRA.norm>
0

>  <SCORE.RESTR>
0

>  <SCORE.RESTR.CAVITY>
0

>  <SCORE.RESTR.norm>
0

>  <SCORE.SYSTEM>
0

>  <SCORE.SYSTEM.CONST>
0

>  <SCORE.SYSTEM.DIHEDRAL>
0

>  <SCORE.SYSTEM.SOLV>
0

>  <SCORE.SYSTEM.norm>
0

>  <SCORE.heavy>
8

>  <SCORE.norm>
-1.08042

>  <RMSD>
3.476

$$$$
ligand
 OpenBabel02271912143D
libRbt.so/2013.1/901 2013/11/27
  8  8  0  0  0  0  0  0  0  0999 V2000
    9.2589   10.0758   -1.5292 C   0  0  0  0  0  0  0  0  0  0  0  0
    9.3973   10.3996   -0.2438 N   0  0  0  0  0  0  0  0  0  0  0  0
    9.9565   11.5665    0.0875 C   0  0  0  0  0  0  0  0  0  0  0  0
   10.3666   12.4236   -0.8764 N   0  0  0  0  0  0  0  0  0  0  0  0
   10.2270   12.0830   -2.1686 C   0  0  0  0  0  0  0  0  0  0  0  0
    9.6681   10.9089   -2.5004 N   0  0  0  0  0  0  0  0  0  0  0  0
   10.0969   11.8917    1.5225 N   0  0  0  0  0  0  0  0  0  0  0  0
    8.6870    8.8860   -1.8256 O   0  0  0  0  0  0  0  0  0  0  0  0
  1  2  1  0  0  0  0
  1  6  1  0  0  0  0
  1  8  2  0  0  0  0
  2  3  1  0  0  0  0
  3  4  2  0  0  0  0
  3  7  1  0  0  0  0
  4  5  1  0  0  0  0
  5  6  2  0  0  0  0
M  END
>  <CHROM.1>
9.68254400,10.97809908,-0.94355938,2.35122387,-1.12410331,-1.59205503

>  <Name>
ligand

>  <RI>
0

>  <Rbt.Current_Directory>
/home/itssahil/PROJECTS/Mol_Feturizer/Test_systems_manuscript/rnas/3la5

>  <Rbt.Executable>
rbdock ($Id: //depot/dev/client3/rdock/2013.1/src/exe/rbdock.cxx#4 $)

>  <Rbt.Library>
libRbt.so (2013.1, Build901 2013/11/27)

>  <Rbt.Parameter_File>
/export/apps/rDock/src/rDock_2013.1_src/data/scripts/dock_solv.prm

>  <Rbt.Receptor>
prm/pocket_docking_4.prm

>  <SCORE>
-8.64394

>  <SCORE.INTER>
-8.64394

>  <SCORE.INTER.CONST>
1

>  <SCORE.INTER.POLAR>
0

>  <SCORE.INTER.ROT>
0

>  <SCORE.INTER.SOLV>
8.31966

>  <SCORE.INTER.VDW>
-12.1358

>  <SCORE.INTER.norm>
-1.08049

>  <SCORE.INTRA>
0

>  <SCORE.INTRA.DIHEDRAL>
0

>  <SCORE.INTRA.DIHEDRAL.0>
0

>  <SCORE.INTRA.POLAR>
0

>  <SCORE.INTRA.POLAR.0>
0

>  <SCORE.INTRA.REPUL>
0

>  <SCORE.INTRA.REPUL.0>
0

>  <SCORE.INTRA.SOLV>
0

>  <SCORE.INTRA.SOLV.lig_0>
-29.58

>  <SCORE.INTRA.VDW>
0

>  <SCORE.INTRA.VDW.0>
0

>  <SCORE.INTRA.norm>
0

>  <SCORE.RESTR>
0

>  <SCORE.RESTR.CAVITY>
0

>  <SCORE.RESTR.norm>
0

>  <SCORE.SYSTEM>
0

>  <SCORE.SYSTEM.CONST>
0

>  <SCORE.SYSTEM.DIHEDRAL>
0

>  <SCORE.SYSTEM.SOLV>
0

>  <SCORE.SYSTEM.norm>
0

>  <SCORE.heavy>
8

>  <SCORE.norm>
-1.08049

>  <RMSD>
3.477

$$$$
ligand
 OpenBabel02271912143D
libRbt.so/2013.1/901 2013/11/27
  8  8  0  0  0  0  0  0  0  0999 V2000
    9.2599   10.0754   -1.5267 C   0  0  0  0  0  0  0  0  0  0  0  0
    9.3981   10.4018   -0.2419 N   0  0  0  0  0  0  0  0  0  0  0  0
    9.9571   11.5692    0.0874 C   0  0  0  0  0  0  0  0  0  0  0  0
   10.3676   12.4244   -0.8781 N   0  0  0  0  0  0  0  0  0  0  0  0
   10.2283   12.0814   -2.1698 C   0  0  0  0  0  0  0  0  0  0  0  0
    9.6694   10.9067   -2.4994 N   0  0  0  0  0  0  0  0  0  0  0  0
   10.0973   11.8972    1.5217 N   0  0  0  0  0  0  0  0  0  0  0  0
    8.6880    8.8852   -1.8210 O   0  0  0  0  0  0  0  0  0  0  0  0
  1  2  1  0  0  0  0
  1  6  1  0  0  0  0
  1  8  2  0  0  0  0
  2  3  1  0  0  0  0
  3  4  2  0  0  0  0
  3  7  1  0  0  0  0
  4  5  1  0  0  0  0
  5  6  2  0  0  0  0
M  END
>  <CHROM.1>
9.68346945,10.97886755,-0.94268942,2.35063935,-1.12405403,-1.59450017

>  <Name>
ligand

>  <RI>
0

>  <Rbt.Current_Directory>
/home/itssahil/PROJECTS/Mol_Feturizer/Test_systems_manuscript/rnas/3la5

>  <Rbt.Executable>
rbdock ($Id: //depot/dev/client3/rdock/2013.1/src/exe/rbdock.cxx#4 $)

>  <Rbt.Library>
libRbt.so (2013.1, Build901 2013/11/27)

>  <Rbt.Parameter_File>
/export/apps/rDock/src/rDock_2013.1_src/data/scripts/dock_solv.prm

>  <Rbt.Receptor>
prm/pocket_docking_7.prm

>  <SCORE>
-8.64409

>  <SCORE.INTER>
-8.64409

>  <SCORE.INTER.CONST>
1

>  <SCORE.INTER.POLAR>
0

>  <SCORE.INTER.ROT>
0

>  <SCORE.INTER.SOLV>
8.31157

>  <SCORE.INTER.VDW>
-12.1333

>  <SCORE.INTER.norm>
-1.08051

>  <SCORE.INTRA>
0

>  <SCORE.INTRA.DIHEDRAL>
0

>  <SCORE.INTRA.DIHEDRAL.0>
0

>  <SCORE.INTRA.POLAR>
0

>  <SCORE.INTRA.POLAR.0>
0

>  <SCORE.INTRA.REPUL>
0

>  <SCORE.INTRA.REPUL.0>
0

>  <SCORE.INTRA.SOLV>
0

>  <SCORE.INTRA.SOLV.lig_0>
-29.58

>  <SCORE.INTRA.VDW>
0

>  <SCORE.INTRA.VDW.0>
0

>  <SCORE.INTRA.norm>
0

>  <SCORE.RESTR>
0

>  <SCORE.RESTR.CAVITY>
0

>  <SCORE.RESTR.norm>
0

>  <SCORE.SYSTEM>
0

>  <SCORE.SYSTEM.CONST>
0

>  <SCORE.SYSTEM.DIHEDRAL>
0

>  <SCORE.SYSTEM.SOLV>
0

>  <SCORE.SYSTEM.norm>
0

>  <SCORE.heavy>
8

>  <SCORE.norm>
-1.08051

>  <RMSD>
3.477

$$$$
ligand
 OpenBabel02271912143D
libRbt.so/2013.1/901 2013/11/27
  8  8  0  0  0  0  0  0  0  0999 V2000
    9.2462   10.0908   -1.5338 C   0  0  0  0  0  0  0  0  0  0  0  0
    9.3880   10.4156   -0.2490 N   0  0  0  0  0  0  0  0  0  0  0  0
    9.9641   11.5748    0.0802 C   0  0  0  0  0  0  0  0  0  0  0  0
   10.3882   12.4233   -0.8852 N   0  0  0  0  0  0  0  0  0  0  0  0
   10.2451   12.0817   -2.1768 C   0  0  0  0  0  0  0  0  0  0  0  0
    9.6691   10.9153   -2.5065 N   0  0  0  0  0  0  0  0  0  0  0  0
   10.1077   11.9014    1.5146 N   0  0  0  0  0  0  0  0  0  0  0  0
    8.6569    8.9090   -1.8281 O   0  0  0  0  0  0  0  0  0  0  0  0
  1  2  1  0  0  0  0
  1  6  1  0  0  0  0
  1  8  2  0  0  0  0
  2  3  1  0  0  0  0
  3  4  2  0  0  0  0
  3  7  1  0  0  0  0
  4  5  1  0  0  0  0
  5  6  2  0  0  0  0
M  END
>  <CHROM.1>
9.68265257,10.98804513,-0.94978873,2.34919559,-1.10908631,-1.59629538

>  <Name>
ligand

>  <RI>
0

>  <Rbt.Current_Directory>
/home/itssahil/PROJECTS/Mol_Feturizer/Test_systems_manuscript/rnas/3la5

>  <Rbt.Executable>
rbdock ($Id: //depot/dev/client3/rdock/2013.1/src/exe/rbdock.cxx#4 $)

>  <Rbt.Library>
libRbt.so (2013.1, Build901 2013/11/27)

>  <Rbt.Parameter_File>
/export/apps/rDock/src/rDock_2013.1_src/data/scripts/dock_solv.prm

>  <Rbt.Receptor>
prm/blind_docking_20.prm

>  <SCORE>
-8.59923

>  <SCORE.INTER>
-8.59923

>  <SCORE.INTER.CONST>
1

>  <SCORE.INTER.POLAR>
0

>  <SCORE.INTER.ROT>
0

>  <SCORE.INTER.SOLV>
8.33276

>  <SCORE.INTER.VDW>
-12.1104

>  <SCORE.INTER.norm>
-1.0749

>  <SCORE.INTRA>
0

>  <SCORE.INTRA.DIHEDRAL>
0

>  <SCORE.INTRA.DIHEDRAL.0>
0

>  <SCORE.INTRA.POLAR>
0

>  <SCORE.INTRA.POLAR.0>
0

>  <SCORE.INTRA.REPUL>
0

>  <SCORE.INTRA.REPUL.0>
0

>  <SCORE.INTRA.SOLV>
0

>  <SCORE.INTRA.SOLV.lig_0>
-29.58

>  <SCORE.INTRA.VDW>
0

>  <SCORE.INTRA.VDW.0>
0

>  <SCORE.INTRA.norm>
0

>  <SCORE.RESTR>
0

>  <SCORE.RESTR.CAVITY>
0

>  <SCORE.RESTR.norm>
0

>  <SCORE.SYSTEM>
0

>  <SCORE.SYSTEM.CONST>
0

>  <SCORE.SYSTEM.DIHEDRAL>
0

>  <SCORE.SYSTEM.SOLV>
0

>  <SCORE.SYSTEM.norm>
0

>  <SCORE.heavy>
8

>  <SCORE.norm>
-1.0749

>  <RMSD>
3.478

$$$$
ligand
 OpenBabel02271912143D
libRbt.so/2013.1/901 2013/11/27
  8  8  0  0  0  0  0  0  0  0999 V2000
    9.2571   10.0700   -1.5326 C   0  0  0  0  0  0  0  0  0  0  0  0
    9.3990   10.3879   -0.2460 N   0  0  0  0  0  0  0  0  0  0  0  0
    9.9686   11.5485    0.0893 C   0  0  0  0  0  0  0  0  0  0  0  0
   10.3859   12.4055   -0.8717 N   0  0  0  0  0  0  0  0  0  0  0  0
   10.2427   12.0709   -2.1651 C   0  0  0  0  0  0  0  0  0  0  0  0
    9.6732   10.9030   -2.5009 N   0  0  0  0  0  0  0  0  0  0  0  0
   10.1126   11.8673    1.5254 N   0  0  0  0  0  0  0  0  0  0  0  0
    8.6746    8.8864   -1.8330 O   0  0  0  0  0  0  0  0  0  0  0  0
  1  2  1  0  0  0  0
  1  6  1  0  0  0  0
  1  8  2  0  0  0  0
  2  3  1  0  0  0  0
  3  4  2  0  0  0  0
  3  7  1  0  0  0  0
  4  5  1  0  0  0  0
  5  6  2  0  0  0  0
M  END
>  <CHROM.1>
9.68902459,10.96635299,-0.94379115,2.35270757,-1.11526652,-1.58706687

>  <Name>
ligand

>  <RI>
0

>  <Rbt.Current_Directory>
/home/itssahil/PROJECTS/Mol_Feturizer/Test_systems_manuscript/rnas/3la5

>  <Rbt.Executable>
rbdock ($Id: //depot/dev/client3/rdock/2013.1/src/exe/rbdock.cxx#4 $)

>  <Rbt.Library>
libRbt.so (2013.1, Build901 2013/11/27)

>  <Rbt.Parameter_File>
/export/apps/rDock/src/rDock_2013.1_src/data/scripts/dock_solv.prm

>  <Rbt.Receptor>
prm/blind_docking_40.prm

>  <SCORE>
-8.58752

>  <SCORE.INTER>
-8.58752

>  <SCORE.INTER.CONST>
1

>  <SCORE.INTER.POLAR>
0

>  <SCORE.INTER.ROT>
0

>  <SCORE.INTER.SOLV>
8.35072

>  <SCORE.INTER.VDW>
-12.1086

>  <SCORE.INTER.norm>
-1.07344

>  <SCORE.INTRA>
0

>  <SCORE.INTRA.DIHEDRAL>
0

>  <SCORE.INTRA.DIHEDRAL.0>
0

>  <SCORE.INTRA.POLAR>
0

>  <SCORE.INTRA.POLAR.0>
0

>  <SCORE.INTRA.REPUL>
0

>  <SCORE.INTRA.REPUL.0>
0

>  <SCORE.INTRA.SOLV>
0

>  <SCORE.INTRA.SOLV.lig_0>
-29.58

>  <SCORE.INTRA.VDW>
0

>  <SCORE.INTRA.VDW.0>
0

>  <SCORE.INTRA.norm>
0

>  <SCORE.RESTR>
0

>  <SCORE.RESTR.CAVITY>
0

>  <SCORE.RESTR.norm>
0

>  <SCORE.SYSTEM>
0

>  <SCORE.SYSTEM.CONST>
0

>  <SCORE.SYSTEM.DIHEDRAL>
0

>  <SCORE.SYSTEM.SOLV>
0

>  <SCORE.SYSTEM.norm>
0

>  <SCORE.heavy>
8

>  <SCORE.norm>
-1.07344

>  <RMSD>
3.478

$$$$
ligand
 OpenBabel02271912143D
libRbt.so/2013.1/901 2013/11/27
  8  8  0  0  0  0  0  0  0  0999 V2000
    9.2643   10.0523   -1.5334 C   0  0  0  0  0  0  0  0  0  0  0  0
    9.4257   10.3579   -0.2461 N   0  0  0  0  0  0  0  0  0  0  0  0
    9.9562   11.5360    0.0923 C   0  0  0  0  0  0  0  0  0  0  0  0
   10.3141   12.4225   -0.8659 N   0  0  0  0  0  0  0  0  0  0  0  0
   10.1518   12.1003   -2.1602 C   0  0  0  0  0  0  0  0  0  0  0  0
    9.6217   10.9150   -2.4992 N   0  0  0  0  0  0  0  0  0  0  0  0
   10.1235   11.8404    1.5290 N   0  0  0  0  0  0  0  0  0  0  0  0
    8.7226    8.8503   -1.8369 O   0  0  0  0  0  0  0  0  0  0  0  0
  1  2  1  0  0  0  0
  1  6  1  0  0  0  0
  1  8  2  0  0  0  0
  2  3  1  0  0  0  0
  3  4  2  0  0  0  0
  3  7  1  0  0  0  0
  4  5  1  0  0  0  0
  5  6  2  0  0  0  0
M  END
>  <CHROM.1>
9.67432938,10.95730557,-0.94215173,2.41375041,-1.15539734,-1.51731345

>  <Name>
ligand

>  <RI>
0

>  <Rbt.Current_Directory>
/home/itssahil/PROJECTS/Mol_Feturizer/Test_systems_manuscript/rnas/3la5

>  <Rbt.Executable>
rbdock ($Id: //depot/dev/client3/rdock/2013.1/src/exe/rbdock.cxx#4 $)

>  <Rbt.Library>
libRbt.so (2013.1, Build901 2013/11/27)

>  <Rbt.Parameter_File>
/export/apps/rDock/src/rDock_2013.1_src/data/scripts/dock_solv.prm

>  <Rbt.Receptor>
prm/pocket_docking_7.prm

>  <SCORE>
-8.57466

>  <SCORE.INTER>
-8.57466

>  <SCORE.INTER.CONST>
1

>  <SCORE.INTER.POLAR>
0

>  <SCORE.INTER.ROT>
0

>  <SCORE.INTER.SOLV>
8.32426

>  <SCORE.INTER.VDW>
-12.0912

>  <SCORE.INTER.norm>
-1.07183

>  <SCORE.INTRA>
0

>  <SCORE.INTRA.DIHEDRAL>
0

>  <SCORE.INTRA.DIHEDRAL.0>
0

>  <SCORE.INTRA.POLAR>
0

>  <SCORE.INTRA.POLAR.0>
0

>  <SCORE.INTRA.REPUL>
0

>  <SCORE.INTRA.REPUL.0>
0

>  <SCORE.INTRA.SOLV>
0

>  <SCORE.INTRA.SOLV.lig_0>
-29.58

>  <SCORE.INTRA.VDW>
0

>  <SCORE.INTRA.VDW.0>
0

>  <SCORE.INTRA.norm>
0

>  <SCORE.RESTR>
0

>  <SCORE.RESTR.CAVITY>
0

>  <SCORE.RESTR.norm>
0

>  <SCORE.SYSTEM>
0

>  <SCORE.SYSTEM.CONST>
0

>  <SCORE.SYSTEM.DIHEDRAL>
0

>  <SCORE.SYSTEM.SOLV>
0

>  <SCORE.SYSTEM.norm>
0

>  <SCORE.heavy>
8

>  <SCORE.norm>
-1.07183

>  <RMSD>
3.481

$$$$
ligand
 OpenBabel02271912143D
libRbt.so/2013.1/901 2013/11/27
  8  8  0  0  0  0  0  0  0  0999 V2000
    9.2533   10.0736   -1.5321 C   0  0  0  0  0  0  0  0  0  0  0  0
    9.4132   10.4044   -0.2509 N   0  0  0  0  0  0  0  0  0  0  0  0
    9.9972   11.5633    0.0649 C   0  0  0  0  0  0  0  0  0  0  0  0
   10.4111   12.4057   -0.9103 N   0  0  0  0  0  0  0  0  0  0  0  0
   10.2498   12.0582   -2.1982 C   0  0  0  0  0  0  0  0  0  0  0  0
    9.6658   10.8921   -2.5144 N   0  0  0  0  0  0  0  0  0  0  0  0
   10.1609   11.8964    1.4956 N   0  0  0  0  0  0  0  0  0  0  0  0
    8.6565    8.8924   -1.8127 O   0  0  0  0  0  0  0  0  0  0  0  0
  1  2  1  0  0  0  0
  1  6  1  0  0  0  0
  1  8  2  0  0  0  0
  2  3  1  0  0  0  0
  3  4  2  0  0  0  0
  3  7  1  0  0  0  0
  4  5  1  0  0  0  0
  5  6  2  0  0  0  0
M  END
>  <CHROM.1>
9.70028702,10.97239657,-0.95835020,2.37903708,-1.10612862,-1.57451563

>  <Name>
ligand

>  <RI>
0

>  <Rbt.Current_Directory>
/home/itssahil/PROJECTS/Mol_Feturizer/Test_systems_manuscript/rnas/3la5

>  <Rbt.Executable>
rbdock ($Id: //depot/dev/client3/rdock/2013.1/src/exe/rbdock.cxx#4 $)

>  <Rbt.Library>
libRbt.so (2013.1, Build901 2013/11/27)

>  <Rbt.Parameter_File>
/export/apps/rDock/src/rDock_2013.1_src/data/scripts/dock_solv.prm

>  <Rbt.Receptor>
prm/blind_docking_60.prm

>  <SCORE>
-8.56298

>  <SCORE.INTER>
-8.56298

>  <SCORE.INTER.CONST>
1

>  <SCORE.INTER.POLAR>
0

>  <SCORE.INTER.ROT>
0

>  <SCORE.INTER.SOLV>
8.28036

>  <SCORE.INTER.VDW>
-12.0688

>  <SCORE.INTER.norm>
-1.07037

>  <SCORE.INTRA>
0

>  <SCORE.INTRA.DIHEDRAL>
0

>  <SCORE.INTRA.DIHEDRAL.0>
0

>  <SCORE.INTRA.POLAR>
0

>  <SCORE.INTRA.POLAR.0>
0

>  <SCORE.INTRA.REPUL>
0

>  <SCORE.INTRA.REPUL.0>
0

>  <SCORE.INTRA.SOLV>
0

>  <SCORE.INTRA.SOLV.lig_0>
-29.58

>  <SCORE.INTRA.VDW>
0

>  <SCORE.INTRA.VDW.0>
0

>  <SCORE.INTRA.norm>
0

>  <SCORE.RESTR>
0

>  <SCORE.RESTR.CAVITY>
0

>  <SCORE.RESTR.norm>
0

>  <SCORE.SYSTEM>
0

>  <SCORE.SYSTEM.CONST>
0

>  <SCORE.SYSTEM.DIHEDRAL>
0

>  <SCORE.SYSTEM.SOLV>
0

>  <SCORE.SYSTEM.norm>
0

>  <SCORE.heavy>
8

>  <SCORE.norm>
-1.07037

>  <RMSD>
3.485

$$$$
ligand
 OpenBabel02271912143D
libRbt.so/2013.1/901 2013/11/27
  8  8  0  0  0  0  0  0  0  0999 V2000
    9.2343   10.0601   -1.5404 C   0  0  0  0  0  0  0  0  0  0  0  0
    9.4031   10.3674   -0.2545 N   0  0  0  0  0  0  0  0  0  0  0  0
    9.9843   11.5230    0.0784 C   0  0  0  0  0  0  0  0  0  0  0  0
   10.3862   12.3856   -0.8841 N   0  0  0  0  0  0  0  0  0  0  0  0
   10.2159   12.0617   -2.1770 C   0  0  0  0  0  0  0  0  0  0  0  0
    9.6348   10.8988   -2.5104 N   0  0  0  0  0  0  0  0  0  0  0  0
   10.1581   11.8299    1.5137 N   0  0  0  0  0  0  0  0  0  0  0  0
    8.6408    8.8814   -1.8383 O   0  0  0  0  0  0  0  0  0  0  0  0
  1  2  1  0  0  0  0
  1  6  1  0  0  0  0
  1  8  2  0  0  0  0
  2  3  1  0  0  0  0
  3  4  2  0  0  0  0
  3  7  1  0  0  0  0
  4  5  1  0  0  0  0
  5  6  2  0  0  0  0
M  END
>  <CHROM.1>
9.68173449,10.95002202,-0.95344563,2.39753325,-1.11080261,-1.53911713

>  <Name>
ligand

>  <RI>
0

>  <Rbt.Current_Directory>
/home/itssahil/PROJECTS/Mol_Feturizer/Test_systems_manuscript/rnas/3la5

>  <Rbt.Executable>
rbdock ($Id: //depot/dev/client3/rdock/2013.1/src/exe/rbdock.cxx#4 $)

>  <Rbt.Library>
libRbt.so (2013.1, Build901 2013/11/27)

>  <Rbt.Parameter_File>
/export/apps/rDock/src/rDock_2013.1_src/data/scripts/dock_solv.prm

>  <Rbt.Receptor>
prm/blind_docking_20.prm

>  <SCORE>
-8.60853

>  <SCORE.INTER>
-8.60853

>  <SCORE.INTER.CONST>
1

>  <SCORE.INTER.POLAR>
0

>  <SCORE.INTER.ROT>
0

>  <SCORE.INTER.SOLV>
8.3784

>  <SCORE.INTER.VDW>
-12.1318

>  <SCORE.INTER.norm>
-1.07607

>  <SCORE.INTRA>
0

>  <SCORE.INTRA.DIHEDRAL>
0

>  <SCORE.INTRA.DIHEDRAL.0>
0

>  <SCORE.INTRA.POLAR>
0

>  <SCORE.INTRA.POLAR.0>
0

>  <SCORE.INTRA.REPUL>
0

>  <SCORE.INTRA.REPUL.0>
0

>  <SCORE.INTRA.SOLV>
0

>  <SCORE.INTRA.SOLV.lig_0>
-29.58

>  <SCORE.INTRA.VDW>
0

>  <SCORE.INTRA.VDW.0>
0

>  <SCORE.INTRA.norm>
0

>  <SCORE.RESTR>
0

>  <SCORE.RESTR.CAVITY>
0

>  <SCORE.RESTR.norm>
0

>  <SCORE.SYSTEM>
0

>  <SCORE.SYSTEM.CONST>
0

>  <SCORE.SYSTEM.DIHEDRAL>
0

>  <SCORE.SYSTEM.SOLV>
0

>  <SCORE.SYSTEM.norm>
0

>  <SCORE.heavy>
8

>  <SCORE.norm>
-1.07607

>  <RMSD>
3.488

$$$$
ligand
 OpenBabel02271912143D
libRbt.so/2013.1/901 2013/11/27
  8  8  0  0  0  0  0  0  0  0999 V2000
    9.2385   10.0542   -1.5357 C   0  0  0  0  0  0  0  0  0  0  0  0
    9.4054   10.3679   -0.2511 N   0  0  0  0  0  0  0  0  0  0  0  0
    9.9862   11.5250    0.0769 C   0  0  0  0  0  0  0  0  0  0  0  0
   10.3898   12.3827   -0.8893 N   0  0  0  0  0  0  0  0  0  0  0  0
   10.2215   12.0524   -2.1808 C   0  0  0  0  0  0  0  0  0  0  0  0
    9.6407   10.8880   -2.5093 N   0  0  0  0  0  0  0  0  0  0  0  0
   10.1579   11.8391    1.5110 N   0  0  0  0  0  0  0  0  0  0  0  0
    8.6452    8.8741   -1.8286 O   0  0  0  0  0  0  0  0  0  0  0  0
  1  2  1  0  0  0  0
  1  6  1  0  0  0  0
  1  8  2  0  0  0  0
  2  3  1  0  0  0  0
  3  4  2  0  0  0  0
  3  7  1  0  0  0  0
  4  5  1  0  0  0  0
  5  6  2  0  0  0  0
M  END
>  <CHROM.1>
9.68519409,10.94700231,-0.95251639,2.39399835,-1.11066742,-1.54729183

>  <Name>
ligand

>  <RI>
0

>  <Rbt.Current_Directory>
/home/itssahil/PROJECTS/Mol_Feturizer/Test_systems_manuscript/rnas/3la5

>  <Rbt.Executable>
rbdock ($Id: //depot/dev/client3/rdock/2013.1/src/exe/rbdock.cxx#4 $)

>  <Rbt.Library>
libRbt.so (2013.1, Build901 2013/11/27)

>  <Rbt.Parameter_File>
/export/apps/rDock/src/rDock_2013.1_src/data/scripts/dock_solv.prm

>  <Rbt.Receptor>
prm/blind_docking_40.prm

>  <SCORE>
-8.60686

>  <SCORE.INTER>
-8.60686

>  <SCORE.INTER.CONST>
1

>  <SCORE.INTER.POLAR>
0

>  <SCORE.INTER.ROT>
0

>  <SCORE.INTER.SOLV>
8.36144

>  <SCORE.INTER.VDW>
-12.1251

>  <SCORE.INTER.norm>
-1.07586

>  <SCORE.INTRA>
0

>  <SCORE.INTRA.DIHEDRAL>
0

>  <SCORE.INTRA.DIHEDRAL.0>
0

>  <SCORE.INTRA.POLAR>
0

>  <SCORE.INTRA.POLAR.0>
0

>  <SCORE.INTRA.REPUL>
0

>  <SCORE.INTRA.REPUL.0>
0

>  <SCORE.INTRA.SOLV>
0

>  <SCORE.INTRA.SOLV.lig_0>
-29.58

>  <SCORE.INTRA.VDW>
0

>  <SCORE.INTRA.VDW.0>
0

>  <SCORE.INTRA.norm>
0

>  <SCORE.RESTR>
0

>  <SCORE.RESTR.CAVITY>
0

>  <SCORE.RESTR.norm>
0

>  <SCORE.SYSTEM>
0

>  <SCORE.SYSTEM.CONST>
0

>  <SCORE.SYSTEM.DIHEDRAL>
0

>  <SCORE.SYSTEM.SOLV>
0

>  <SCORE.SYSTEM.norm>
0

>  <SCORE.heavy>
8

>  <SCORE.norm>
-1.07586

>  <RMSD>
3.489

$$$$
ligand
 OpenBabel02271912143D
libRbt.so/2013.1/901 2013/11/27
  8  8  0  0  0  0  0  0  0  0999 V2000
    9.2364   10.0596   -1.5412 C   0  0  0  0  0  0  0  0  0  0  0  0
    9.4117   10.3677   -0.2564 N   0  0  0  0  0  0  0  0  0  0  0  0
    9.9910   11.5253    0.0728 C   0  0  0  0  0  0  0  0  0  0  0  0
   10.3844   12.3890   -0.8922 N   0  0  0  0  0  0  0  0  0  0  0  0
   10.2077   12.0642   -2.1840 C   0  0  0  0  0  0  0  0  0  0  0  0
    9.6285   10.8994   -2.5137 N   0  0  0  0  0  0  0  0  0  0  0  0
   10.1722   11.8331    1.5071 N   0  0  0  0  0  0  0  0  0  0  0  0
    8.6450    8.8789   -1.8354 O   0  0  0  0  0  0  0  0  0  0  0  0
  1  2  1  0  0  0  0
  1  6  1  0  0  0  0
  1  8  2  0  0  0  0
  2  3  1  0  0  0  0
  3  4  2  0  0  0  0
  3  7  1  0  0  0  0
  4  5  1  0  0  0  0
  5  6  2  0  0  0  0
M  END
>  <CHROM.1>
9.68433360,10.95111052,-0.95709131,2.41094016,-1.11386519,-1.52732223

>  <Name>
ligand

>  <RI>
0

>  <Rbt.Current_Directory>
/home/itssahil/PROJECTS/Mol_Feturizer/Test_systems_manuscript/rnas/3la5

>  <Rbt.Executable>
rbdock ($Id: //depot/dev/client3/rdock/2013.1/src/exe/rbdock.cxx#4 $)

>  <Rbt.Library>
libRbt.so (2013.1, Build901 2013/11/27)

>  <Rbt.Parameter_File>
/export/apps/rDock/src/rDock_2013.1_src/data/scripts/dock_solv.prm

>  <Rbt.Receptor>
prm/pocket_docking_5.prm

>  <SCORE>
-8.59934

>  <SCORE.INTER>
-8.59934

>  <SCORE.INTER.CONST>
1

>  <SCORE.INTER.POLAR>
0

>  <SCORE.INTER.ROT>
0

>  <SCORE.INTER.SOLV>
8.35049

>  <SCORE.INTER.VDW>
-12.1164

>  <SCORE.INTER.norm>
-1.07492

>  <SCORE.INTRA>
0

>  <SCORE.INTRA.DIHEDRAL>
0

>  <SCORE.INTRA.DIHEDRAL.0>
0

>  <SCORE.INTRA.POLAR>
0

>  <SCORE.INTRA.POLAR.0>
0

>  <SCORE.INTRA.REPUL>
0

>  <SCORE.INTRA.REPUL.0>
0

>  <SCORE.INTRA.SOLV>
0

>  <SCORE.INTRA.SOLV.lig_0>
-29.58

>  <SCORE.INTRA.VDW>
0

>  <SCORE.INTRA.VDW.0>
0

>  <SCORE.INTRA.norm>
0

>  <SCORE.RESTR>
0

>  <SCORE.RESTR.CAVITY>
0

>  <SCORE.RESTR.norm>
0

>  <SCORE.SYSTEM>
0

>  <SCORE.SYSTEM.CONST>
0

>  <SCORE.SYSTEM.DIHEDRAL>
0

>  <SCORE.SYSTEM.SOLV>
0

>  <SCORE.SYSTEM.norm>
0

>  <SCORE.heavy>
8

>  <SCORE.norm>
-1.07492

>  <RMSD>
3.489

$$$$
ligand
 OpenBabel02271912143D
libRbt.so/2013.1/901 2013/11/27
  8  8  0  0  0  0  0  0  0  0999 V2000
    9.2310   10.0564   -1.5395 C   0  0  0  0  0  0  0  0  0  0  0  0
    9.4032   10.3649   -0.2543 N   0  0  0  0  0  0  0  0  0  0  0  0
    9.9841   11.5213    0.0760 C   0  0  0  0  0  0  0  0  0  0  0  0
   10.3823   12.3836   -0.8883 N   0  0  0  0  0  0  0  0  0  0  0  0
   10.2086   12.0585   -2.1804 C   0  0  0  0  0  0  0  0  0  0  0  0
    9.6278   10.8948   -2.5113 N   0  0  0  0  0  0  0  0  0  0  0  0
   10.1617   11.8296    1.5106 N   0  0  0  0  0  0  0  0  0  0  0  0
    8.6378    8.8769   -1.8348 O   0  0  0  0  0  0  0  0  0  0  0  0
  1  2  1  0  0  0  0
  1  6  1  0  0  0  0
  1  8  2  0  0  0  0
  2  3  1  0  0  0  0
  3  4  2  0  0  0  0
  3  7  1  0  0  0  0
  4  5  1  0  0  0  0
  5  6  2  0  0  0  0
M  END
>  <CHROM.1>
9.67917281,10.94727769,-0.95450269,2.40409005,-1.11174616,-1.53400856

>  <Name>
ligand

>  <RI>
0

>  <Rbt.Current_Directory>
/home/itssahil/PROJECTS/Mol_Feturizer/Test_systems_manuscript/rnas/3la5

>  <Rbt.Executable>
rbdock ($Id: //depot/dev/client3/rdock/2013.1/src/exe/rbdock.cxx#4 $)

>  <Rbt.Library>
libRbt.so (2013.1, Build901 2013/11/27)

>  <Rbt.Parameter_File>
/export/apps/rDock/src/rDock_2013.1_src/data/scripts/dock_solv.prm

>  <Rbt.Receptor>
prm/blind_docking_80.prm

>  <SCORE>
-8.60479

>  <SCORE.INTER>
-8.60479

>  <SCORE.INTER.CONST>
1

>  <SCORE.INTER.POLAR>
0

>  <SCORE.INTER.ROT>
0

>  <SCORE.INTER.SOLV>
8.37603

>  <SCORE.INTER.VDW>
-12.1285

>  <SCORE.INTER.norm>
-1.0756

>  <SCORE.INTRA>
0

>  <SCORE.INTRA.DIHEDRAL>
0

>  <SCORE.INTRA.DIHEDRAL.0>
0

>  <SCORE.INTRA.POLAR>
0

>  <SCORE.INTRA.POLAR.0>
0

>  <SCORE.INTRA.REPUL>
0

>  <SCORE.INTRA.REPUL.0>
0

>  <SCORE.INTRA.SOLV>
0

>  <SCORE.INTRA.SOLV.lig_0>
-29.58

>  <SCORE.INTRA.VDW>
0

>  <SCORE.INTRA.VDW.0>
0

>  <SCORE.INTRA.norm>
0

>  <SCORE.RESTR>
0

>  <SCORE.RESTR.CAVITY>
0

>  <SCORE.RESTR.norm>
0

>  <SCORE.SYSTEM>
0

>  <SCORE.SYSTEM.CONST>
0

>  <SCORE.SYSTEM.DIHEDRAL>
0

>  <SCORE.SYSTEM.SOLV>
0

>  <SCORE.SYSTEM.norm>
0

>  <SCORE.heavy>
8

>  <SCORE.norm>
-1.0756

>  <RMSD>
3.490

$$$$
ligand
 OpenBabel02271912143D
libRbt.so/2013.1/901 2013/11/27
  8  8  0  0  0  0  0  0  0  0999 V2000
   10.1226    9.5710   -1.4214 C   0  0  0  0  0  0  0  0  0  0  0  0
   10.1896   10.0448   -0.1775 N   0  0  0  0  0  0  0  0  0  0  0  0
   10.0899   11.3596    0.0356 C   0  0  0  0  0  0  0  0  0  0  0  0
    9.9060   12.2062   -1.0043 N   0  0  0  0  0  0  0  0  0  0  0  0
    9.8460   11.7170   -2.2542 C   0  0  0  0  0  0  0  0  0  0  0  0
    9.9496   10.3960   -2.4675 N   0  0  0  0  0  0  0  0  0  0  0  0
   10.1716   11.8503    1.4274 N   0  0  0  0  0  0  0  0  0  0  0  0
   10.2265    8.2336   -1.5974 O   0  0  0  0  0  0  0  0  0  0  0  0
  1  2  1  0  0  0  0
  1  6  1  0  0  0  0
  1  8  2  0  0  0  0
  2  3  1  0  0  0  0
  3  4  2  0  0  0  0
  3  7  1  0  0  0  0
  4  5  1  0  0  0  0
  5  6  2  0  0  0  0
M  END
>  <CHROM.1>
10.06814374,10.61568552,-0.92910460,-1.45590068,-1.44045137,0.79225135

>  <Name>
ligand

>  <RI>
0

>  <Rbt.Current_Directory>
/home/itssahil/PROJECTS/Mol_Feturizer/Test_systems_manuscript/rnas/3la5

>  <Rbt.Executable>
rbdock ($Id: //depot/dev/client3/rdock/2013.1/src/exe/rbdock.cxx#4 $)

>  <Rbt.Library>
libRbt.so (2013.1, Build901 2013/11/27)

>  <Rbt.Parameter_File>
/export/apps/rDock/src/rDock_2013.1_src/data/scripts/dock_solv.prm

>  <Rbt.Receptor>
prm/blind_docking_80.prm

>  <SCORE>
-8.27627

>  <SCORE.INTER>
-8.27627

>  <SCORE.INTER.CONST>
1

>  <SCORE.INTER.POLAR>
0

>  <SCORE.INTER.ROT>
0

>  <SCORE.INTER.SOLV>
7.66237

>  <SCORE.INTER.VDW>
-11.6716

>  <SCORE.INTER.norm>
-1.03453

>  <SCORE.INTRA>
0

>  <SCORE.INTRA.DIHEDRAL>
0

>  <SCORE.INTRA.DIHEDRAL.0>
0

>  <SCORE.INTRA.POLAR>
0

>  <SCORE.INTRA.POLAR.0>
0

>  <SCORE.INTRA.REPUL>
0

>  <SCORE.INTRA.REPUL.0>
0

>  <SCORE.INTRA.SOLV>
0

>  <SCORE.INTRA.SOLV.lig_0>
-29.58

>  <SCORE.INTRA.VDW>
0

>  <SCORE.INTRA.VDW.0>
0

>  <SCORE.INTRA.norm>
0

>  <SCORE.RESTR>
0

>  <SCORE.RESTR.CAVITY>
0

>  <SCORE.RESTR.norm>
0

>  <SCORE.SYSTEM>
0

>  <SCORE.SYSTEM.CONST>
0

>  <SCORE.SYSTEM.DIHEDRAL>
0

>  <SCORE.SYSTEM.SOLV>
0

>  <SCORE.SYSTEM.norm>
0

>  <SCORE.heavy>
8

>  <SCORE.norm>
-1.03453

>  <RMSD>
3.491

$$$$
ligand
 OpenBabel02271912143D
libRbt.so/2013.1/901 2013/11/27
  8  8  0  0  0  0  0  0  0  0999 V2000
    9.2862   10.0680   -1.5575 C   0  0  0  0  0  0  0  0  0  0  0  0
    9.4549   10.3925   -0.2758 N   0  0  0  0  0  0  0  0  0  0  0  0
   10.0195   11.5605    0.0418 C   0  0  0  0  0  0  0  0  0  0  0  0
   10.4047   12.4182   -0.9318 N   0  0  0  0  0  0  0  0  0  0  0  0
   10.2348   12.0770   -2.2203 C   0  0  0  0  0  0  0  0  0  0  0  0
    9.6704   10.9017   -2.5384 N   0  0  0  0  0  0  0  0  0  0  0  0
   10.1937   11.8864    1.4730 N   0  0  0  0  0  0  0  0  0  0  0  0
    8.7097    8.8771   -1.8398 O   0  0  0  0  0  0  0  0  0  0  0  0
  1  2  1  0  0  0  0
  1  6  1  0  0  0  0
  1  8  2  0  0  0  0
  2  3  1  0  0  0  0
  3  4  2  0  0  0  0
  3  7  1  0  0  0  0
  4  5  1  0  0  0  0
  5  6  2  0  0  0  0
M  END
>  <CHROM.1>
9.72203966,10.97134159,-0.98229740,2.40690233,-1.12597473,-1.54203810

>  <Name>
ligand

>  <RI>
0

>  <Rbt.Current_Directory>
/home/itssahil/PROJECTS/Mol_Feturizer/Test_systems_manuscript/rnas/3la5

>  <Rbt.Executable>
rbdock ($Id: //depot/dev/client3/rdock/2013.1/src/exe/rbdock.cxx#4 $)

>  <Rbt.Library>
libRbt.so (2013.1, Build901 2013/11/27)

>  <Rbt.Parameter_File>
/export/apps/rDock/src/rDock_2013.1_src/data/scripts/dock_solv.prm

>  <Rbt.Receptor>
prm/pocket_docking_8.prm

>  <SCORE>
-8.5848

>  <SCORE.INTER>
-8.5848

>  <SCORE.INTER.CONST>
1

>  <SCORE.INTER.POLAR>
0

>  <SCORE.INTER.ROT>
0

>  <SCORE.INTER.SOLV>
8.16912

>  <SCORE.INTER.VDW>
-12.0462

>  <SCORE.INTER.norm>
-1.0731

>  <SCORE.INTRA>
0

>  <SCORE.INTRA.DIHEDRAL>
0

>  <SCORE.INTRA.DIHEDRAL.0>
0

>  <SCORE.INTRA.POLAR>
0

>  <SCORE.INTRA.POLAR.0>
0

>  <SCORE.INTRA.REPUL>
0

>  <SCORE.INTRA.REPUL.0>
0

>  <SCORE.INTRA.SOLV>
0

>  <SCORE.INTRA.SOLV.lig_0>
-29.58

>  <SCORE.INTRA.VDW>
0

>  <SCORE.INTRA.VDW.0>
0

>  <SCORE.INTRA.norm>
0

>  <SCORE.RESTR>
0

>  <SCORE.RESTR.CAVITY>
0

>  <SCORE.RESTR.norm>
0

>  <SCORE.SYSTEM>
0

>  <SCORE.SYSTEM.CONST>
0

>  <SCORE.SYSTEM.DIHEDRAL>
0

>  <SCORE.SYSTEM.SOLV>
0

>  <SCORE.SYSTEM.norm>
0

>  <SCORE.heavy>
8

>  <SCORE.norm>
-1.0731

>  <RMSD>
3.491

$$$$
ligand
 OpenBabel02271912143D
libRbt.so/2013.1/901 2013/11/27
  8  8  0  0  0  0  0  0  0  0999 V2000
   10.1594    9.5848   -1.4649 C   0  0  0  0  0  0  0  0  0  0  0  0
   10.2289   10.0396   -0.2140 N   0  0  0  0  0  0  0  0  0  0  0  0
   10.1257   11.3506    0.0195 C   0  0  0  0  0  0  0  0  0  0  0  0
    9.9358   12.2126   -1.0067 N   0  0  0  0  0  0  0  0  0  0  0  0
    9.8734   11.7423   -2.2638 C   0  0  0  0  0  0  0  0  0  0  0  0
    9.9805   10.4252   -2.4976 N   0  0  0  0  0  0  0  0  0  0  0  0
   10.2103   11.8202    1.4184 N   0  0  0  0  0  0  0  0  0  0  0  0
   10.2670    8.2506   -1.6617 O   0  0  0  0  0  0  0  0  0  0  0  0
  1  2  1  0  0  0  0
  1  6  1  0  0  0  0
  1  8  2  0  0  0  0
  2  3  1  0  0  0  0
  3  4  2  0  0  0  0
  3  7  1  0  0  0  0
  4  5  1  0  0  0  0
  5  6  2  0  0  0  0
M  END
>  <CHROM.1>
10.10323556,10.62159436,-0.95642766,-1.45611289,-1.43597574,0.80739029

>  <Name>
ligand

>  <RI>
0

>  <Rbt.Current_Directory>
/home/itssahil/PROJECTS/Mol_Feturizer/Test_systems_manuscript/rnas/3la5

>  <Rbt.Executable>
rbdock ($Id: //depot/dev/client3/rdock/2013.1/src/exe/rbdock.cxx#4 $)

>  <Rbt.Library>
libRbt.so (2013.1, Build901 2013/11/27)

>  <Rbt.Parameter_File>
/export/apps/rDock/src/rDock_2013.1_src/data/scripts/dock_solv.prm

>  <Rbt.Receptor>
prm/blind_docking_80.prm

>  <SCORE>
-8.25173

>  <SCORE.INTER>
-8.25173

>  <SCORE.INTER.CONST>
1

>  <SCORE.INTER.POLAR>
0

>  <SCORE.INTER.ROT>
0

>  <SCORE.INTER.SOLV>
7.65069

>  <SCORE.INTER.VDW>
-11.6514

>  <SCORE.INTER.norm>
-1.03147

>  <SCORE.INTRA>
0

>  <SCORE.INTRA.DIHEDRAL>
0

>  <SCORE.INTRA.DIHEDRAL.0>
0

>  <SCORE.INTRA.POLAR>
0

>  <SCORE.INTRA.POLAR.0>
0

>  <SCORE.INTRA.REPUL>
0

>  <SCORE.INTRA.REPUL.0>
0

>  <SCORE.INTRA.SOLV>
0

>  <SCORE.INTRA.SOLV.lig_0>
-29.58

>  <SCORE.INTRA.VDW>
0

>  <SCORE.INTRA.VDW.0>
0

>  <SCORE.INTRA.norm>
0

>  <SCORE.RESTR>
0

>  <SCORE.RESTR.CAVITY>
0

>  <SCORE.RESTR.norm>
0

>  <SCORE.SYSTEM>
0

>  <SCORE.SYSTEM.CONST>
0

>  <SCORE.SYSTEM.DIHEDRAL>
0

>  <SCORE.SYSTEM.SOLV>
0

>  <SCORE.SYSTEM.norm>
0

>  <SCORE.heavy>
8

>  <SCORE.norm>
-1.03147

>  <RMSD>
3.492

$$$$
ligand
 OpenBabel02271912143D
libRbt.so/2013.1/901 2013/11/27
  8  8  0  0  0  0  0  0  0  0999 V2000
    9.2232   10.0558   -1.5367 C   0  0  0  0  0  0  0  0  0  0  0  0
    9.4067   10.3628   -0.2528 N   0  0  0  0  0  0  0  0  0  0  0  0
    9.9906   11.5188    0.0738 C   0  0  0  0  0  0  0  0  0  0  0  0
   10.3803   12.3822   -0.8930 N   0  0  0  0  0  0  0  0  0  0  0  0
   10.1953   12.0586   -2.1839 C   0  0  0  0  0  0  0  0  0  0  0  0
    9.6115   10.8954   -2.5110 N   0  0  0  0  0  0  0  0  0  0  0  0
   10.1808   11.8253    1.5071 N   0  0  0  0  0  0  0  0  0  0  0  0
    8.6273    8.8767   -1.8282 O   0  0  0  0  0  0  0  0  0  0  0  0
  1  2  1  0  0  0  0
  1  6  1  0  0  0  0
  1  8  2  0  0  0  0
  2  3  1  0  0  0  0
  3  4  2  0  0  0  0
  3  7  1  0  0  0  0
  4  5  1  0  0  0  0
  5  6  2  0  0  0  0
M  END
>  <CHROM.1>
9.67652980,10.94597615,-0.95466774,2.42391097,-1.11126779,-1.51506218

>  <Name>
ligand

>  <RI>
0

>  <Rbt.Current_Directory>
/home/itssahil/PROJECTS/Mol_Feturizer/Test_systems_manuscript/rnas/3la5

>  <Rbt.Executable>
rbdock ($Id: //depot/dev/client3/rdock/2013.1/src/exe/rbdock.cxx#4 $)

>  <Rbt.Library>
libRbt.so (2013.1, Build901 2013/11/27)

>  <Rbt.Parameter_File>
/export/apps/rDock/src/rDock_2013.1_src/data/scripts/dock_solv.prm

>  <Rbt.Receptor>
prm/pocket_docking_5.prm

>  <SCORE>
-8.59781

>  <SCORE.INTER>
-8.59781

>  <SCORE.INTER.CONST>
1

>  <SCORE.INTER.POLAR>
0

>  <SCORE.INTER.ROT>
0

>  <SCORE.INTER.SOLV>
8.37384

>  <SCORE.INTER.VDW>
-12.1232

>  <SCORE.INTER.norm>
-1.07473

>  <SCORE.INTRA>
0

>  <SCORE.INTRA.DIHEDRAL>
0

>  <SCORE.INTRA.DIHEDRAL.0>
0

>  <SCORE.INTRA.POLAR>
0

>  <SCORE.INTRA.POLAR.0>
0

>  <SCORE.INTRA.REPUL>
0

>  <SCORE.INTRA.REPUL.0>
0

>  <SCORE.INTRA.SOLV>
0

>  <SCORE.INTRA.SOLV.lig_0>
-29.58

>  <SCORE.INTRA.VDW>
0

>  <SCORE.INTRA.VDW.0>
0

>  <SCORE.INTRA.norm>
0

>  <SCORE.RESTR>
0

>  <SCORE.RESTR.CAVITY>
0

>  <SCORE.RESTR.norm>
0

>  <SCORE.SYSTEM>
0

>  <SCORE.SYSTEM.CONST>
0

>  <SCORE.SYSTEM.DIHEDRAL>
0

>  <SCORE.SYSTEM.SOLV>
0

>  <SCORE.SYSTEM.norm>
0

>  <SCORE.heavy>
8

>  <SCORE.norm>
-1.07473

>  <RMSD>
3.492

$$$$
ligand
 OpenBabel02271912143D
libRbt.so/2013.1/901 2013/11/27
  8  8  0  0  0  0  0  0  0  0999 V2000
   10.1382    9.5788   -1.4466 C   0  0  0  0  0  0  0  0  0  0  0  0
   10.1991   10.0400   -0.1976 N   0  0  0  0  0  0  0  0  0  0  0  0
   10.1040   11.3530    0.0277 C   0  0  0  0  0  0  0  0  0  0  0  0
    9.9309   12.2108   -1.0049 N   0  0  0  0  0  0  0  0  0  0  0  0
    9.8770   11.7341   -2.2600 C   0  0  0  0  0  0  0  0  0  0  0  0
    9.9760   10.4149   -2.4856 N   0  0  0  0  0  0  0  0  0  0  0  0
   10.1787   11.8296    1.4249 N   0  0  0  0  0  0  0  0  0  0  0  0
   10.2371    8.2427   -1.6350 O   0  0  0  0  0  0  0  0  0  0  0  0
  1  2  1  0  0  0  0
  1  6  1  0  0  0  0
  1  8  2  0  0  0  0
  2  3  1  0  0  0  0
  3  4  2  0  0  0  0
  3  7  1  0  0  0  0
  4  5  1  0  0  0  0
  5  6  2  0  0  0  0
M  END
>  <CHROM.1>
10.08527705,10.61881854,-0.94435040,-1.44350616,-1.44840120,0.81441261

>  <Name>
ligand

>  <RI>
0

>  <Rbt.Current_Directory>
/home/itssahil/PROJECTS/Mol_Feturizer/Test_systems_manuscript/rnas/3la5

>  <Rbt.Executable>
rbdock ($Id: //depot/dev/client3/rdock/2013.1/src/exe/rbdock.cxx#4 $)

>  <Rbt.Library>
libRbt.so (2013.1, Build901 2013/11/27)

>  <Rbt.Parameter_File>
/export/apps/rDock/src/rDock_2013.1_src/data/scripts/dock_solv.prm

>  <Rbt.Receptor>
prm/pocket_docking_6.prm

>  <SCORE>
-8.29221

>  <SCORE.INTER>
-8.29221

>  <SCORE.INTER.CONST>
1

>  <SCORE.INTER.POLAR>
0

>  <SCORE.INTER.ROT>
0

>  <SCORE.INTER.SOLV>
7.67587

>  <SCORE.INTER.VDW>
-11.6868

>  <SCORE.INTER.norm>
-1.03653

>  <SCORE.INTRA>
0

>  <SCORE.INTRA.DIHEDRAL>
0

>  <SCORE.INTRA.DIHEDRAL.0>
0

>  <SCORE.INTRA.POLAR>
0

>  <SCORE.INTRA.POLAR.0>
0

>  <SCORE.INTRA.REPUL>
0

>  <SCORE.INTRA.REPUL.0>
0

>  <SCORE.INTRA.SOLV>
0

>  <SCORE.INTRA.SOLV.lig_0>
-29.58

>  <SCORE.INTRA.VDW>
0

>  <SCORE.INTRA.VDW.0>
0

>  <SCORE.INTRA.norm>
0

>  <SCORE.RESTR>
0

>  <SCORE.RESTR.CAVITY>
0

>  <SCORE.RESTR.norm>
0

>  <SCORE.SYSTEM>
0

>  <SCORE.SYSTEM.CONST>
0

>  <SCORE.SYSTEM.DIHEDRAL>
0

>  <SCORE.SYSTEM.SOLV>
0

>  <SCORE.SYSTEM.norm>
0

>  <SCORE.heavy>
8

>  <SCORE.norm>
-1.03653

>  <RMSD>
3.493

$$$$
ligand
 OpenBabel02271912143D
libRbt.so/2013.1/901 2013/11/27
  8  8  0  0  0  0  0  0  0  0999 V2000
    9.2325   10.0558   -1.5486 C   0  0  0  0  0  0  0  0  0  0  0  0
    9.4157   10.3636   -0.2648 N   0  0  0  0  0  0  0  0  0  0  0  0
    9.9845   11.5271    0.0615 C   0  0  0  0  0  0  0  0  0  0  0  0
   10.3593   12.3971   -0.9052 N   0  0  0  0  0  0  0  0  0  0  0  0
   10.1747   12.0727   -2.1960 C   0  0  0  0  0  0  0  0  0  0  0  0
    9.6061   10.9019   -2.5229 N   0  0  0  0  0  0  0  0  0  0  0  0
   10.1750   11.8344    1.4947 N   0  0  0  0  0  0  0  0  0  0  0  0
    8.6522    8.8688   -1.8398 O   0  0  0  0  0  0  0  0  0  0  0  0
  1  2  1  0  0  0  0
  1  6  1  0  0  0  0
  1  8  2  0  0  0  0
  2  3  1  0  0  0  0
  3  4  2  0  0  0  0
  3  7  1  0  0  0  0
  4  5  1  0  0  0  0
  5  6  2  0  0  0  0
M  END
>  <CHROM.1>
9.67529719,10.95135924,-0.96671869,2.43288589,-1.12494861,-1.50566276

>  <Name>
ligand

>  <RI>
0

>  <Rbt.Current_Directory>
/home/itssahil/PROJECTS/Mol_Feturizer/Test_systems_manuscript/rnas/3la5

>  <Rbt.Executable>
rbdock ($Id: //depot/dev/client3/rdock/2013.1/src/exe/rbdock.cxx#4 $)

>  <Rbt.Library>
libRbt.so (2013.1, Build901 2013/11/27)

>  <Rbt.Parameter_File>
/export/apps/rDock/src/rDock_2013.1_src/data/scripts/dock_solv.prm

>  <Rbt.Receptor>
prm/blind_docking_100.prm

>  <SCORE>
-8.59291

>  <SCORE.INTER>
-8.59291

>  <SCORE.INTER.CONST>
1

>  <SCORE.INTER.POLAR>
0

>  <SCORE.INTER.ROT>
0

>  <SCORE.INTER.SOLV>
8.32239

>  <SCORE.INTER.VDW>
-12.1027

>  <SCORE.INTER.norm>
-1.07411

>  <SCORE.INTRA>
0

>  <SCORE.INTRA.DIHEDRAL>
0

>  <SCORE.INTRA.DIHEDRAL.0>
0

>  <SCORE.INTRA.POLAR>
0

>  <SCORE.INTRA.POLAR.0>
0

>  <SCORE.INTRA.REPUL>
0

>  <SCORE.INTRA.REPUL.0>
0

>  <SCORE.INTRA.SOLV>
0

>  <SCORE.INTRA.SOLV.lig_0>
-29.58

>  <SCORE.INTRA.VDW>
0

>  <SCORE.INTRA.VDW.0>
0

>  <SCORE.INTRA.norm>
0

>  <SCORE.RESTR>
0

>  <SCORE.RESTR.CAVITY>
0

>  <SCORE.RESTR.norm>
0

>  <SCORE.SYSTEM>
0

>  <SCORE.SYSTEM.CONST>
0

>  <SCORE.SYSTEM.DIHEDRAL>
0

>  <SCORE.SYSTEM.SOLV>
0

>  <SCORE.SYSTEM.norm>
0

>  <SCORE.heavy>
8

>  <SCORE.norm>
-1.07411

>  <RMSD>
3.497

$$$$
ligand
 OpenBabel02271912143D
libRbt.so/2013.1/901 2013/11/27
  8  8  0  0  0  0  0  0  0  0999 V2000
    9.2211   10.0554   -1.5434 C   0  0  0  0  0  0  0  0  0  0  0  0
    9.4137   10.3604   -0.2603 N   0  0  0  0  0  0  0  0  0  0  0  0
    9.9798   11.5257    0.0645 C   0  0  0  0  0  0  0  0  0  0  0  0
   10.3422   12.4002   -0.9029 N   0  0  0  0  0  0  0  0  0  0  0  0
   10.1483   12.0786   -2.1930 C   0  0  0  0  0  0  0  0  0  0  0  0
    9.5824   10.9060   -2.5184 N   0  0  0  0  0  0  0  0  0  0  0  0
   10.1809   11.8299    1.4969 N   0  0  0  0  0  0  0  0  0  0  0  0
    8.6439    8.8666   -1.8331 O   0  0  0  0  0  0  0  0  0  0  0  0
  1  2  1  0  0  0  0
  1  6  1  0  0  0  0
  1  8  2  0  0  0  0
  2  3  1  0  0  0  0
  3  4  2  0  0  0  0
  3  7  1  0  0  0  0
  4  5  1  0  0  0  0
  5  6  2  0  0  0  0
M  END
>  <CHROM.1>
9.66454800,10.95140347,-0.96275259,2.45338510,-1.12898408,-1.48431284

>  <Name>
ligand

>  <RI>
0

>  <Rbt.Current_Directory>
/home/itssahil/PROJECTS/Mol_Feturizer/Test_systems_manuscript/rnas/3la5

>  <Rbt.Executable>
rbdock ($Id: //depot/dev/client3/rdock/2013.1/src/exe/rbdock.cxx#4 $)

>  <Rbt.Library>
libRbt.so (2013.1, Build901 2013/11/27)

>  <Rbt.Parameter_File>
/export/apps/rDock/src/rDock_2013.1_src/data/scripts/dock_solv.prm

>  <Rbt.Receptor>
prm/blind_docking_20.prm

>  <SCORE>
-8.5878

>  <SCORE.INTER>
-8.5878

>  <SCORE.INTER.CONST>
1

>  <SCORE.INTER.POLAR>
0

>  <SCORE.INTER.ROT>
0

>  <SCORE.INTER.SOLV>
8.33878

>  <SCORE.INTER.VDW>
-12.1048

>  <SCORE.INTER.norm>
-1.07348

>  <SCORE.INTRA>
0

>  <SCORE.INTRA.DIHEDRAL>
0

>  <SCORE.INTRA.DIHEDRAL.0>
0

>  <SCORE.INTRA.POLAR>
0

>  <SCORE.INTRA.POLAR.0>
0

>  <SCORE.INTRA.REPUL>
0

>  <SCORE.INTRA.REPUL.0>
0

>  <SCORE.INTRA.SOLV>
0

>  <SCORE.INTRA.SOLV.lig_0>
-29.58

>  <SCORE.INTRA.VDW>
0

>  <SCORE.INTRA.VDW.0>
0

>  <SCORE.INTRA.norm>
0

>  <SCORE.RESTR>
0

>  <SCORE.RESTR.CAVITY>
0

>  <SCORE.RESTR.norm>
0

>  <SCORE.SYSTEM>
0

>  <SCORE.SYSTEM.CONST>
0

>  <SCORE.SYSTEM.DIHEDRAL>
0

>  <SCORE.SYSTEM.SOLV>
0

>  <SCORE.SYSTEM.norm>
0

>  <SCORE.heavy>
8

>  <SCORE.norm>
-1.07348

>  <RMSD>
3.497

$$$$
ligand
 OpenBabel02271912143D
libRbt.so/2013.1/901 2013/11/27
  8  8  0  0  0  0  0  0  0  0999 V2000
   10.1292    9.5580   -1.4344 C   0  0  0  0  0  0  0  0  0  0  0  0
   10.2046   10.0219   -0.1872 N   0  0  0  0  0  0  0  0  0  0  0  0
   10.1291   11.3368    0.0348 C   0  0  0  0  0  0  0  0  0  0  0  0
    9.9611   12.1938   -0.9993 N   0  0  0  0  0  0  0  0  0  0  0  0
    9.8925   11.7143   -2.2526 C   0  0  0  0  0  0  0  0  0  0  0  0
    9.9718   10.3932   -2.4748 N   0  0  0  0  0  0  0  0  0  0  0  0
   10.2194   11.8164    1.4299 N   0  0  0  0  0  0  0  0  0  0  0  0
   10.2086    8.2201   -1.6194 O   0  0  0  0  0  0  0  0  0  0  0  0
  1  2  1  0  0  0  0
  1  6  1  0  0  0  0
  1  8  2  0  0  0  0
  2  3  1  0  0  0  0
  3  4  2  0  0  0  0
  3  7  1  0  0  0  0
  4  5  1  0  0  0  0
  5  6  2  0  0  0  0
M  END
>  <CHROM.1>
10.09390738,10.60007463,-0.93497340,-1.56435643,-1.45310281,0.69145307

>  <Name>
ligand

>  <RI>
0

>  <Rbt.Current_Directory>
/home/itssahil/PROJECTS/Mol_Feturizer/Test_systems_manuscript/rnas/3la5

>  <Rbt.Executable>
rbdock ($Id: //depot/dev/client3/rdock/2013.1/src/exe/rbdock.cxx#4 $)

>  <Rbt.Library>
libRbt.so (2013.1, Build901 2013/11/27)

>  <Rbt.Parameter_File>
/export/apps/rDock/src/rDock_2013.1_src/data/scripts/dock_solv.prm

>  <Rbt.Receptor>
prm/blind_docking_60.prm

>  <SCORE>
-8.28686

>  <SCORE.INTER>
-8.28686

>  <SCORE.INTER.CONST>
1

>  <SCORE.INTER.POLAR>
0

>  <SCORE.INTER.ROT>
0

>  <SCORE.INTER.SOLV>
7.69777

>  <SCORE.INTER.VDW>
-11.6905

>  <SCORE.INTER.norm>
-1.03586

>  <SCORE.INTRA>
0

>  <SCORE.INTRA.DIHEDRAL>
0

>  <SCORE.INTRA.DIHEDRAL.0>
0

>  <SCORE.INTRA.POLAR>
0

>  <SCORE.INTRA.POLAR.0>
0

>  <SCORE.INTRA.REPUL>
0

>  <SCORE.INTRA.REPUL.0>
0

>  <SCORE.INTRA.SOLV>
0

>  <SCORE.INTRA.SOLV.lig_0>
-29.58

>  <SCORE.INTRA.VDW>
0

>  <SCORE.INTRA.VDW.0>
0

>  <SCORE.INTRA.norm>
0

>  <SCORE.RESTR>
0

>  <SCORE.RESTR.CAVITY>
0

>  <SCORE.RESTR.norm>
0

>  <SCORE.SYSTEM>
0

>  <SCORE.SYSTEM.CONST>
0

>  <SCORE.SYSTEM.DIHEDRAL>
0

>  <SCORE.SYSTEM.SOLV>
0

>  <SCORE.SYSTEM.norm>
0

>  <SCORE.heavy>
8

>  <SCORE.norm>
-1.03586

>  <RMSD>
3.497

$$$$
ligand
 OpenBabel02271912143D
libRbt.so/2013.1/901 2013/11/27
  8  8  0  0  0  0  0  0  0  0999 V2000
   10.1313    9.5648   -1.4252 C   0  0  0  0  0  0  0  0  0  0  0  0
   10.2176   10.0433   -0.1842 N   0  0  0  0  0  0  0  0  0  0  0  0
   10.1428   11.3606    0.0233 C   0  0  0  0  0  0  0  0  0  0  0  0
    9.9646   12.2054   -1.0190 N   0  0  0  0  0  0  0  0  0  0  0  0
    9.8850   11.7113   -2.2660 C   0  0  0  0  0  0  0  0  0  0  0  0
    9.9636   10.3878   -2.4737 N   0  0  0  0  0  0  0  0  0  0  0  0
   10.2454   11.8563    1.4120 N   0  0  0  0  0  0  0  0  0  0  0  0
   10.2102    8.2250   -1.5954 O   0  0  0  0  0  0  0  0  0  0  0  0
  1  2  1  0  0  0  0
  1  6  1  0  0  0  0
  1  8  2  0  0  0  0
  2  3  1  0  0  0  0
  3  4  2  0  0  0  0
  3  7  1  0  0  0  0
  4  5  1  0  0  0  0
  5  6  2  0  0  0  0
M  END
>  <CHROM.1>
10.09951389,10.61262081,-0.93748177,-1.60485748,-1.44536918,0.63969213

>  <Name>
ligand

>  <RI>
0

>  <Rbt.Current_Directory>
/home/itssahil/PROJECTS/Mol_Feturizer/Test_systems_manuscript/rnas/3la5

>  <Rbt.Executable>
rbdock ($Id: //depot/dev/client3/rdock/2013.1/src/exe/rbdock.cxx#4 $)

>  <Rbt.Library>
libRbt.so (2013.1, Build901 2013/11/27)

>  <Rbt.Parameter_File>
/export/apps/rDock/src/rDock_2013.1_src/data/scripts/dock_solv.prm

>  <Rbt.Receptor>
prm/blind_docking_80.prm

>  <SCORE>
-8.26512

>  <SCORE.INTER>
-8.26512

>  <SCORE.INTER.CONST>
1

>  <SCORE.INTER.POLAR>
0

>  <SCORE.INTER.ROT>
0

>  <SCORE.INTER.SOLV>
7.59782

>  <SCORE.INTER.VDW>
-11.6427

>  <SCORE.INTER.norm>
-1.03314

>  <SCORE.INTRA>
0

>  <SCORE.INTRA.DIHEDRAL>
0

>  <SCORE.INTRA.DIHEDRAL.0>
0

>  <SCORE.INTRA.POLAR>
0

>  <SCORE.INTRA.POLAR.0>
0

>  <SCORE.INTRA.REPUL>
0

>  <SCORE.INTRA.REPUL.0>
0

>  <SCORE.INTRA.SOLV>
0

>  <SCORE.INTRA.SOLV.lig_0>
-29.58

>  <SCORE.INTRA.VDW>
0

>  <SCORE.INTRA.VDW.0>
0

>  <SCORE.INTRA.norm>
0

>  <SCORE.RESTR>
0

>  <SCORE.RESTR.CAVITY>
0

>  <SCORE.RESTR.norm>
0

>  <SCORE.SYSTEM>
0

>  <SCORE.SYSTEM.CONST>
0

>  <SCORE.SYSTEM.DIHEDRAL>
0

>  <SCORE.SYSTEM.SOLV>
0

>  <SCORE.SYSTEM.norm>
0

>  <SCORE.heavy>
8

>  <SCORE.norm>
-1.03314

>  <RMSD>
3.497

$$$$
ligand
 OpenBabel02271912143D
libRbt.so/2013.1/901 2013/11/27
  8  8  0  0  0  0  0  0  0  0999 V2000
   10.1309    9.5650   -1.4252 C   0  0  0  0  0  0  0  0  0  0  0  0
   10.1875   10.0434   -0.1825 N   0  0  0  0  0  0  0  0  0  0  0  0
   10.0957   11.3597    0.0241 C   0  0  0  0  0  0  0  0  0  0  0  0
    9.9302   12.2035   -1.0211 N   0  0  0  0  0  0  0  0  0  0  0  0
    9.8805   11.7096   -2.2697 C   0  0  0  0  0  0  0  0  0  0  0  0
    9.9762   10.3870   -2.4764 N   0  0  0  0  0  0  0  0  0  0  0  0
   10.1655   11.8555    1.4148 N   0  0  0  0  0  0  0  0  0  0  0  0
   10.2263    8.2261   -1.5945 O   0  0  0  0  0  0  0  0  0  0  0  0
  1  2  1  0  0  0  0
  1  6  1  0  0  0  0
  1  8  2  0  0  0  0
  2  3  1  0  0  0  0
  3  4  2  0  0  0  0
  3  7  1  0  0  0  0
  4  5  1  0  0  0  0
  5  6  2  0  0  0  0
M  END
>  <CHROM.1>
10.07903208,10.61207966,-0.93772054,-1.43387698,-1.45395899,0.81002376

>  <Name>
ligand

>  <RI>
0

>  <Rbt.Current_Directory>
/home/itssahil/PROJECTS/Mol_Feturizer/Test_systems_manuscript/rnas/3la5

>  <Rbt.Executable>
rbdock ($Id: //depot/dev/client3/rdock/2013.1/src/exe/rbdock.cxx#4 $)

>  <Rbt.Library>
libRbt.so (2013.1, Build901 2013/11/27)

>  <Rbt.Parameter_File>
/export/apps/rDock/src/rDock_2013.1_src/data/scripts/dock_solv.prm

>  <Rbt.Receptor>
prm/blind_docking_100.prm

>  <SCORE>
-8.31973

>  <SCORE.INTER>
-8.31973

>  <SCORE.INTER.CONST>
1

>  <SCORE.INTER.POLAR>
0

>  <SCORE.INTER.ROT>
0

>  <SCORE.INTER.SOLV>
7.64474

>  <SCORE.INTER.VDW>
-11.6947

>  <SCORE.INTER.norm>
-1.03997

>  <SCORE.INTRA>
0

>  <SCORE.INTRA.DIHEDRAL>
0

>  <SCORE.INTRA.DIHEDRAL.0>
0

>  <SCORE.INTRA.POLAR>
0

>  <SCORE.INTRA.POLAR.0>
0

>  <SCORE.INTRA.REPUL>
0

>  <SCORE.INTRA.REPUL.0>
0

>  <SCORE.INTRA.SOLV>
0

>  <SCORE.INTRA.SOLV.lig_0>
-29.58

>  <SCORE.INTRA.VDW>
0

>  <SCORE.INTRA.VDW.0>
0

>  <SCORE.INTRA.norm>
0

>  <SCORE.RESTR>
0

>  <SCORE.RESTR.CAVITY>
0

>  <SCORE.RESTR.norm>
0

>  <SCORE.SYSTEM>
0

>  <SCORE.SYSTEM.CONST>
0

>  <SCORE.SYSTEM.DIHEDRAL>
0

>  <SCORE.SYSTEM.SOLV>
0

>  <SCORE.SYSTEM.norm>
0

>  <SCORE.heavy>
8

>  <SCORE.norm>
-1.03997

>  <RMSD>
3.498

$$$$
ligand
 OpenBabel02271912143D
libRbt.so/2013.1/901 2013/11/27
  8  8  0  0  0  0  0  0  0  0999 V2000
    9.2211   10.0533   -1.5418 C   0  0  0  0  0  0  0  0  0  0  0  0
    9.4154   10.3604   -0.2595 N   0  0  0  0  0  0  0  0  0  0  0  0
    9.9871   11.5238    0.0624 C   0  0  0  0  0  0  0  0  0  0  0  0
   10.3536   12.3942   -0.9071 N   0  0  0  0  0  0  0  0  0  0  0  0
   10.1578   12.0705   -2.1964 C   0  0  0  0  0  0  0  0  0  0  0  0
    9.5863   10.8998   -2.5189 N   0  0  0  0  0  0  0  0  0  0  0  0
   10.1900   11.8303    1.4941 N   0  0  0  0  0  0  0  0  0  0  0  0
    8.6381    8.8666   -1.8286 O   0  0  0  0  0  0  0  0  0  0  0  0
  1  2  1  0  0  0  0
  1  6  1  0  0  0  0
  1  8  2  0  0  0  0
  2  3  1  0  0  0  0
  3  4  2  0  0  0  0
  3  7  1  0  0  0  0
  4  5  1  0  0  0  0
  5  6  2  0  0  0  0
M  END
>  <CHROM.1>
9.66894405,10.94854862,-0.96338067,2.45285554,-1.12419326,-1.48716285

>  <Name>
ligand

>  <RI>
0

>  <Rbt.Current_Directory>
/home/itssahil/PROJECTS/Mol_Feturizer/Test_systems_manuscript/rnas/3la5

>  <Rbt.Executable>
rbdock ($Id: //depot/dev/client3/rdock/2013.1/src/exe/rbdock.cxx#4 $)

>  <Rbt.Library>
libRbt.so (2013.1, Build901 2013/11/27)

>  <Rbt.Parameter_File>
/export/apps/rDock/src/rDock_2013.1_src/data/scripts/dock_solv.prm

>  <Rbt.Receptor>
prm/blind_docking_60.prm

>  <SCORE>
-8.58154

>  <SCORE.INTER>
-8.58154

>  <SCORE.INTER.CONST>
1

>  <SCORE.INTER.POLAR>
0

>  <SCORE.INTER.ROT>
0

>  <SCORE.INTER.SOLV>
8.33235

>  <SCORE.INTER.VDW>
-12.0985

>  <SCORE.INTER.norm>
-1.07269

>  <SCORE.INTRA>
0

>  <SCORE.INTRA.DIHEDRAL>
0

>  <SCORE.INTRA.DIHEDRAL.0>
0

>  <SCORE.INTRA.POLAR>
0

>  <SCORE.INTRA.POLAR.0>
0

>  <SCORE.INTRA.REPUL>
0

>  <SCORE.INTRA.REPUL.0>
0

>  <SCORE.INTRA.SOLV>
0

>  <SCORE.INTRA.SOLV.lig_0>
-29.58

>  <SCORE.INTRA.VDW>
0

>  <SCORE.INTRA.VDW.0>
0

>  <SCORE.INTRA.norm>
0

>  <SCORE.RESTR>
0

>  <SCORE.RESTR.CAVITY>
0

>  <SCORE.RESTR.norm>
0

>  <SCORE.SYSTEM>
0

>  <SCORE.SYSTEM.CONST>
0

>  <SCORE.SYSTEM.DIHEDRAL>
0

>  <SCORE.SYSTEM.SOLV>
0

>  <SCORE.SYSTEM.norm>
0

>  <SCORE.heavy>
8

>  <SCORE.norm>
-1.07269

>  <RMSD>
3.498

$$$$
ligand
 OpenBabel02271912143D
libRbt.so/2013.1/901 2013/11/27
  8  8  0  0  0  0  0  0  0  0999 V2000
   10.1275    9.5753   -1.4432 C   0  0  0  0  0  0  0  0  0  0  0  0
   10.1990   10.0448   -0.1979 N   0  0  0  0  0  0  0  0  0  0  0  0
   10.1136   11.3600    0.0187 C   0  0  0  0  0  0  0  0  0  0  0  0
    9.9397   12.2115   -1.0189 N   0  0  0  0  0  0  0  0  0  0  0  0
    9.8751   11.7264   -2.2702 C   0  0  0  0  0  0  0  0  0  0  0  0
    9.9643   10.4050   -2.4870 N   0  0  0  0  0  0  0  0  0  0  0  0
   10.1998   11.8460    1.4120 N   0  0  0  0  0  0  0  0  0  0  0  0
   10.2168    8.2373   -1.6227 O   0  0  0  0  0  0  0  0  0  0  0  0
  1  2  1  0  0  0  0
  1  6  1  0  0  0  0
  1  8  2  0  0  0  0
  2  3  1  0  0  0  0
  3  4  2  0  0  0  0
  3  7  1  0  0  0  0
  4  5  1  0  0  0  0
  5  6  2  0  0  0  0
M  END
>  <CHROM.1>
10.08425843,10.61909477,-0.94798471,-1.51556860,-1.44855856,0.73581505

>  <Name>
ligand

>  <RI>
0

>  <Rbt.Current_Directory>
/home/itssahil/PROJECTS/Mol_Feturizer/Test_systems_manuscript/rnas/3la5

>  <Rbt.Executable>
rbdock ($Id: //depot/dev/client3/rdock/2013.1/src/exe/rbdock.cxx#4 $)

>  <Rbt.Library>
libRbt.so (2013.1, Build901 2013/11/27)

>  <Rbt.Parameter_File>
/export/apps/rDock/src/rDock_2013.1_src/data/scripts/dock_solv.prm

>  <Rbt.Receptor>
prm/pocket_docking_7.prm

>  <SCORE>
-8.29207

>  <SCORE.INTER>
-8.29207

>  <SCORE.INTER.CONST>
1

>  <SCORE.INTER.POLAR>
0

>  <SCORE.INTER.ROT>
0

>  <SCORE.INTER.SOLV>
7.61898

>  <SCORE.INTER.VDW>
-11.6677

>  <SCORE.INTER.norm>
-1.03651

>  <SCORE.INTRA>
0

>  <SCORE.INTRA.DIHEDRAL>
0

>  <SCORE.INTRA.DIHEDRAL.0>
0

>  <SCORE.INTRA.POLAR>
0

>  <SCORE.INTRA.POLAR.0>
0

>  <SCORE.INTRA.REPUL>
0

>  <SCORE.INTRA.REPUL.0>
0

>  <SCORE.INTRA.SOLV>
0

>  <SCORE.INTRA.SOLV.lig_0>
-29.58

>  <SCORE.INTRA.VDW>
0

>  <SCORE.INTRA.VDW.0>
0

>  <SCORE.INTRA.norm>
0

>  <SCORE.RESTR>
0

>  <SCORE.RESTR.CAVITY>
0

>  <SCORE.RESTR.norm>
0

>  <SCORE.SYSTEM>
0

>  <SCORE.SYSTEM.CONST>
0

>  <SCORE.SYSTEM.DIHEDRAL>
0

>  <SCORE.SYSTEM.SOLV>
0

>  <SCORE.SYSTEM.norm>
0

>  <SCORE.heavy>
8

>  <SCORE.norm>
-1.03651

>  <RMSD>
3.498

$$$$
ligand
 OpenBabel02271912143D
libRbt.so/2013.1/901 2013/11/27
  8  8  0  0  0  0  0  0  0  0999 V2000
   10.1365    9.5679   -1.4511 C   0  0  0  0  0  0  0  0  0  0  0  0
   10.2051   10.0309   -0.2032 N   0  0  0  0  0  0  0  0  0  0  0  0
   10.1158   11.3447    0.0205 C   0  0  0  0  0  0  0  0  0  0  0  0
    9.9410   12.2014   -1.0127 N   0  0  0  0  0  0  0  0  0  0  0  0
    9.8794   11.7229   -2.2667 C   0  0  0  0  0  0  0  0  0  0  0  0
    9.9725   10.4029   -2.4906 N   0  0  0  0  0  0  0  0  0  0  0  0
   10.1989   11.8232    1.4165 N   0  0  0  0  0  0  0  0  0  0  0  0
   10.2297    8.2312   -1.6378 O   0  0  0  0  0  0  0  0  0  0  0  0
  1  2  1  0  0  0  0
  1  6  1  0  0  0  0
  1  8  2  0  0  0  0
  2  3  1  0  0  0  0
  3  4  2  0  0  0  0
  3  7  1  0  0  0  0
  4  5  1  0  0  0  0
  5  6  2  0  0  0  0
M  END
>  <CHROM.1>
10.08979125,10.60894213,-0.95029664,-1.49186534,-1.44766428,0.76480267

>  <Name>
ligand

>  <RI>
0

>  <Rbt.Current_Directory>
/home/itssahil/PROJECTS/Mol_Feturizer/Test_systems_manuscript/rnas/3la5

>  <Rbt.Executable>
rbdock ($Id: //depot/dev/client3/rdock/2013.1/src/exe/rbdock.cxx#4 $)

>  <Rbt.Library>
libRbt.so (2013.1, Build901 2013/11/27)

>  <Rbt.Parameter_File>
/export/apps/rDock/src/rDock_2013.1_src/data/scripts/dock_solv.prm

>  <Rbt.Receptor>
prm/pocket_docking_6.prm

>  <SCORE>
-8.28306

>  <SCORE.INTER>
-8.28306

>  <SCORE.INTER.CONST>
1

>  <SCORE.INTER.POLAR>
0

>  <SCORE.INTER.ROT>
0

>  <SCORE.INTER.SOLV>
7.67092

>  <SCORE.INTER.VDW>
-11.679

>  <SCORE.INTER.norm>
-1.03538

>  <SCORE.INTRA>
0

>  <SCORE.INTRA.DIHEDRAL>
0

>  <SCORE.INTRA.DIHEDRAL.0>
0

>  <SCORE.INTRA.POLAR>
0

>  <SCORE.INTRA.POLAR.0>
0

>  <SCORE.INTRA.REPUL>
0

>  <SCORE.INTRA.REPUL.0>
0

>  <SCORE.INTRA.SOLV>
0

>  <SCORE.INTRA.SOLV.lig_0>
-29.58

>  <SCORE.INTRA.VDW>
0

>  <SCORE.INTRA.VDW.0>
0

>  <SCORE.INTRA.norm>
0

>  <SCORE.RESTR>
0

>  <SCORE.RESTR.CAVITY>
0

>  <SCORE.RESTR.norm>
0

>  <SCORE.SYSTEM>
0

>  <SCORE.SYSTEM.CONST>
0

>  <SCORE.SYSTEM.DIHEDRAL>
0

>  <SCORE.SYSTEM.SOLV>
0

>  <SCORE.SYSTEM.norm>
0

>  <SCORE.heavy>
8

>  <SCORE.norm>
-1.03538

>  <RMSD>
3.500

$$$$
ligand
 OpenBabel02271912143D
libRbt.so/2013.1/901 2013/11/27
  8  8  0  0  0  0  0  0  0  0999 V2000
   10.1456    9.5692   -1.4549 C   0  0  0  0  0  0  0  0  0  0  0  0
   10.2124   10.0325   -0.2069 N   0  0  0  0  0  0  0  0  0  0  0  0
   10.1133   11.3455    0.0171 C   0  0  0  0  0  0  0  0  0  0  0  0
    9.9303   12.2010   -1.0157 N   0  0  0  0  0  0  0  0  0  0  0  0
    9.8705   11.7222   -2.2697 C   0  0  0  0  0  0  0  0  0  0  0  0
    9.9735   10.4031   -2.4940 N   0  0  0  0  0  0  0  0  0  0  0  0
   10.1947   11.8244    1.4130 N   0  0  0  0  0  0  0  0  0  0  0  0
   10.2488    8.2333   -1.6419 O   0  0  0  0  0  0  0  0  0  0  0  0
  1  2  1  0  0  0  0
  1  6  1  0  0  0  0
  1  8  2  0  0  0  0
  2  3  1  0  0  0  0
  3  4  2  0  0  0  0
  3  7  1  0  0  0  0
  4  5  1  0  0  0  0
  5  6  2  0  0  0  0
M  END
>  <CHROM.1>
10.09151067,10.60974268,-0.95379174,-1.45650651,-1.44116081,0.80004292

>  <Name>
ligand

>  <RI>
0

>  <Rbt.Current_Directory>
/home/itssahil/PROJECTS/Mol_Feturizer/Test_systems_manuscript/rnas/3la5

>  <Rbt.Executable>
rbdock ($Id: //depot/dev/client3/rdock/2013.1/src/exe/rbdock.cxx#4 $)

>  <Rbt.Library>
libRbt.so (2013.1, Build901 2013/11/27)

>  <Rbt.Parameter_File>
/export/apps/rDock/src/rDock_2013.1_src/data/scripts/dock_solv.prm

>  <Rbt.Receptor>
prm/pocket_docking_7.prm

>  <SCORE>
-8.2962

>  <SCORE.INTER>
-8.2962

>  <SCORE.INTER.CONST>
1

>  <SCORE.INTER.POLAR>
0

>  <SCORE.INTER.ROT>
0

>  <SCORE.INTER.SOLV>
7.66541

>  <SCORE.INTER.VDW>
-11.6859

>  <SCORE.INTER.norm>
-1.03702

>  <SCORE.INTRA>
0

>  <SCORE.INTRA.DIHEDRAL>
0

>  <SCORE.INTRA.DIHEDRAL.0>
0

>  <SCORE.INTRA.POLAR>
0

>  <SCORE.INTRA.POLAR.0>
0

>  <SCORE.INTRA.REPUL>
0

>  <SCORE.INTRA.REPUL.0>
0

>  <SCORE.INTRA.SOLV>
0

>  <SCORE.INTRA.SOLV.lig_0>
-29.58

>  <SCORE.INTRA.VDW>
0

>  <SCORE.INTRA.VDW.0>
0

>  <SCORE.INTRA.norm>
0

>  <SCORE.RESTR>
0

>  <SCORE.RESTR.CAVITY>
0

>  <SCORE.RESTR.norm>
0

>  <SCORE.SYSTEM>
0

>  <SCORE.SYSTEM.CONST>
0

>  <SCORE.SYSTEM.DIHEDRAL>
0

>  <SCORE.SYSTEM.SOLV>
0

>  <SCORE.SYSTEM.norm>
0

>  <SCORE.heavy>
8

>  <SCORE.norm>
-1.03702

>  <RMSD>
3.500

$$$$
ligand
 OpenBabel02271912143D
libRbt.so/2013.1/901 2013/11/27
  8  8  0  0  0  0  0  0  0  0999 V2000
   10.1012    9.6017   -1.4668 C   0  0  0  0  0  0  0  0  0  0  0  0
   10.1445   10.0582   -0.2153 N   0  0  0  0  0  0  0  0  0  0  0  0
   10.0655   11.3719    0.0125 C   0  0  0  0  0  0  0  0  0  0  0  0
    9.9264   12.2353   -1.0205 N   0  0  0  0  0  0  0  0  0  0  0  0
    9.8899   11.7633   -2.2780 C   0  0  0  0  0  0  0  0  0  0  0  0
    9.9727   10.4434   -2.5060 N   0  0  0  0  0  0  0  0  0  0  0  0
   10.1199   11.8430    1.4124 N   0  0  0  0  0  0  0  0  0  0  0  0
   10.1829    8.2649   -1.6576 O   0  0  0  0  0  0  0  0  0  0  0  0
  1  2  1  0  0  0  0
  1  6  1  0  0  0  0
  1  8  2  0  0  0  0
  2  3  1  0  0  0  0
  3  4  2  0  0  0  0
  3  7  1  0  0  0  0
  4  5  1  0  0  0  0
  5  6  2  0  0  0  0
M  END
>  <CHROM.1>
10.05458653,10.64095092,-0.96222749,-1.40539213,-1.47331500,0.85544746

>  <Name>
ligand

>  <RI>
0

>  <Rbt.Current_Directory>
/home/itssahil/PROJECTS/Mol_Feturizer/Test_systems_manuscript/rnas/3la5

>  <Rbt.Executable>
rbdock ($Id: //depot/dev/client3/rdock/2013.1/src/exe/rbdock.cxx#4 $)

>  <Rbt.Library>
libRbt.so (2013.1, Build901 2013/11/27)

>  <Rbt.Parameter_File>
/export/apps/rDock/src/rDock_2013.1_src/data/scripts/dock_solv.prm

>  <Rbt.Receptor>
prm/pocket_docking_8.prm

>  <SCORE>
-8.2492

>  <SCORE.INTER>
-8.2492

>  <SCORE.INTER.CONST>
1

>  <SCORE.INTER.POLAR>
0

>  <SCORE.INTER.ROT>
0

>  <SCORE.INTER.SOLV>
7.65935

>  <SCORE.INTER.VDW>
-11.6526

>  <SCORE.INTER.norm>
-1.03115

>  <SCORE.INTRA>
0

>  <SCORE.INTRA.DIHEDRAL>
0

>  <SCORE.INTRA.DIHEDRAL.0>
0

>  <SCORE.INTRA.POLAR>
0

>  <SCORE.INTRA.POLAR.0>
0

>  <SCORE.INTRA.REPUL>
0

>  <SCORE.INTRA.REPUL.0>
0

>  <SCORE.INTRA.SOLV>
0

>  <SCORE.INTRA.SOLV.lig_0>
-29.58

>  <SCORE.INTRA.VDW>
0

>  <SCORE.INTRA.VDW.0>
0

>  <SCORE.INTRA.norm>
0

>  <SCORE.RESTR>
0

>  <SCORE.RESTR.CAVITY>
0

>  <SCORE.RESTR.norm>
0

>  <SCORE.SYSTEM>
0

>  <SCORE.SYSTEM.CONST>
0

>  <SCORE.SYSTEM.DIHEDRAL>
0

>  <SCORE.SYSTEM.SOLV>
0

>  <SCORE.SYSTEM.norm>
0

>  <SCORE.heavy>
8

>  <SCORE.norm>
-1.03115

>  <RMSD>
3.500

$$$$
ligand
 OpenBabel02271912143D
libRbt.so/2013.1/901 2013/11/27
  8  8  0  0  0  0  0  0  0  0999 V2000
    9.2202   10.0484   -1.5455 C   0  0  0  0  0  0  0  0  0  0  0  0
    9.4132   10.3748   -0.2677 N   0  0  0  0  0  0  0  0  0  0  0  0
   10.0045   11.5330    0.0368 C   0  0  0  0  0  0  0  0  0  0  0  0
   10.3922   12.3791   -0.9459 N   0  0  0  0  0  0  0  0  0  0  0  0
   10.1975   12.0361   -2.2304 C   0  0  0  0  0  0  0  0  0  0  0  0
    9.6062   10.8706   -2.5353 N   0  0  0  0  0  0  0  0  0  0  0  0
   10.2053   11.8613    1.4639 N   0  0  0  0  0  0  0  0  0  0  0  0
    8.6170    8.8676   -1.8145 O   0  0  0  0  0  0  0  0  0  0  0  0
  1  2  1  0  0  0  0
  1  6  1  0  0  0  0
  1  8  2  0  0  0  0
  2  3  1  0  0  0  0
  3  4  2  0  0  0  0
  3  7  1  0  0  0  0
  4  5  1  0  0  0  0
  5  6  2  0  0  0  0
M  END
>  <CHROM.1>
9.68135190,10.94548174,-0.98043658,2.43744870,-1.10624289,-1.51878552

>  <Name>
ligand

>  <RI>
0

>  <Rbt.Current_Directory>
/home/itssahil/PROJECTS/Mol_Feturizer/Test_systems_manuscript/rnas/3la5

>  <Rbt.Executable>
rbdock ($Id: //depot/dev/client3/rdock/2013.1/src/exe/rbdock.cxx#4 $)

>  <Rbt.Library>
libRbt.so (2013.1, Build901 2013/11/27)

>  <Rbt.Parameter_File>
/export/apps/rDock/src/rDock_2013.1_src/data/scripts/dock_solv.prm

>  <Rbt.Receptor>
prm/blind_docking_60.prm

>  <SCORE>
-8.61898

>  <SCORE.INTER>
-8.61898

>  <SCORE.INTER.CONST>
1

>  <SCORE.INTER.POLAR>
0

>  <SCORE.INTER.ROT>
0

>  <SCORE.INTER.SOLV>
8.2662

>  <SCORE.INTER.VDW>
-12.1014

>  <SCORE.INTER.norm>
-1.07737

>  <SCORE.INTRA>
0

>  <SCORE.INTRA.DIHEDRAL>
0

>  <SCORE.INTRA.DIHEDRAL.0>
0

>  <SCORE.INTRA.POLAR>
0

>  <SCORE.INTRA.POLAR.0>
0

>  <SCORE.INTRA.REPUL>
0

>  <SCORE.INTRA.REPUL.0>
0

>  <SCORE.INTRA.SOLV>
0

>  <SCORE.INTRA.SOLV.lig_0>
-29.58

>  <SCORE.INTRA.VDW>
0

>  <SCORE.INTRA.VDW.0>
0

>  <SCORE.INTRA.norm>
0

>  <SCORE.RESTR>
0

>  <SCORE.RESTR.CAVITY>
0

>  <SCORE.RESTR.norm>
0

>  <SCORE.SYSTEM>
0

>  <SCORE.SYSTEM.CONST>
0

>  <SCORE.SYSTEM.DIHEDRAL>
0

>  <SCORE.SYSTEM.SOLV>
0

>  <SCORE.SYSTEM.norm>
0

>  <SCORE.heavy>
8

>  <SCORE.norm>
-1.07737

>  <RMSD>
3.510

$$$$
ligand
 OpenBabel02271912143D
libRbt.so/2013.1/901 2013/11/27
  8  8  0  0  0  0  0  0  0  0999 V2000
    9.2202   10.0545   -1.5505 C   0  0  0  0  0  0  0  0  0  0  0  0
    9.4049   10.3827   -0.2720 N   0  0  0  0  0  0  0  0  0  0  0  0
    9.9927   11.5421    0.0348 C   0  0  0  0  0  0  0  0  0  0  0  0
   10.3851   12.3877   -0.9465 N   0  0  0  0  0  0  0  0  0  0  0  0
   10.1988   12.0428   -2.2317 C   0  0  0  0  0  0  0  0  0  0  0  0
    9.6111   10.8761   -2.5389 N   0  0  0  0  0  0  0  0  0  0  0  0
   10.1842   11.8724    1.4627 N   0  0  0  0  0  0  0  0  0  0  0  0
    8.6203    8.8726   -1.8218 O   0  0  0  0  0  0  0  0  0  0  0  0
  1  2  1  0  0  0  0
  1  6  1  0  0  0  0
  1  8  2  0  0  0  0
  2  3  1  0  0  0  0
  3  4  2  0  0  0  0
  3  7  1  0  0  0  0
  4  5  1  0  0  0  0
  5  6  2  0  0  0  0
M  END
>  <CHROM.1>
9.67656950,10.95295702,-0.98371867,2.42386906,-1.10794368,-1.53211318

>  <Name>
ligand

>  <RI>
0

>  <Rbt.Current_Directory>
/home/itssahil/PROJECTS/Mol_Feturizer/Test_systems_manuscript/rnas/3la5

>  <Rbt.Executable>
rbdock ($Id: //depot/dev/client3/rdock/2013.1/src/exe/rbdock.cxx#4 $)

>  <Rbt.Library>
libRbt.so (2013.1, Build901 2013/11/27)

>  <Rbt.Parameter_File>
/export/apps/rDock/src/rDock_2013.1_src/data/scripts/dock_solv.prm

>  <Rbt.Receptor>
prm/blind_docking_80.prm

>  <SCORE>
-8.61577

>  <SCORE.INTER>
-8.61577

>  <SCORE.INTER.CONST>
1

>  <SCORE.INTER.POLAR>
0

>  <SCORE.INTER.ROT>
0

>  <SCORE.INTER.SOLV>
8.27326

>  <SCORE.INTER.VDW>
-12.1016

>  <SCORE.INTER.norm>
-1.07697

>  <SCORE.INTRA>
0

>  <SCORE.INTRA.DIHEDRAL>
0

>  <SCORE.INTRA.DIHEDRAL.0>
0

>  <SCORE.INTRA.POLAR>
0

>  <SCORE.INTRA.POLAR.0>
0

>  <SCORE.INTRA.REPUL>
0

>  <SCORE.INTRA.REPUL.0>
0

>  <SCORE.INTRA.SOLV>
0

>  <SCORE.INTRA.SOLV.lig_0>
-29.58

>  <SCORE.INTRA.VDW>
0

>  <SCORE.INTRA.VDW.0>
0

>  <SCORE.INTRA.norm>
0

>  <SCORE.RESTR>
0

>  <SCORE.RESTR.CAVITY>
0

>  <SCORE.RESTR.norm>
0

>  <SCORE.SYSTEM>
0

>  <SCORE.SYSTEM.CONST>
0

>  <SCORE.SYSTEM.DIHEDRAL>
0

>  <SCORE.SYSTEM.SOLV>
0

>  <SCORE.SYSTEM.norm>
0

>  <SCORE.heavy>
8

>  <SCORE.norm>
-1.07697

>  <RMSD>
3.510

$$$$
ligand
 OpenBabel02271912143D
libRbt.so/2013.1/901 2013/11/27
  8  8  0  0  0  0  0  0  0  0999 V2000
    9.2149   10.0516   -1.5455 C   0  0  0  0  0  0  0  0  0  0  0  0
    9.4107   10.3772   -0.2680 N   0  0  0  0  0  0  0  0  0  0  0  0
   10.0003   11.5364    0.0360 C   0  0  0  0  0  0  0  0  0  0  0  0
   10.3835   12.3843   -0.9470 N   0  0  0  0  0  0  0  0  0  0  0  0
   10.1860   12.0420   -2.2312 C   0  0  0  0  0  0  0  0  0  0  0  0
    9.5964   10.8755   -2.5357 N   0  0  0  0  0  0  0  0  0  0  0  0
   10.2042   11.8638    1.4628 N   0  0  0  0  0  0  0  0  0  0  0  0
    8.6135    8.8697   -1.8140 O   0  0  0  0  0  0  0  0  0  0  0  0
  1  2  1  0  0  0  0
  1  6  1  0  0  0  0
  1  8  2  0  0  0  0
  2  3  1  0  0  0  0
  3  4  2  0  0  0  0
  3  7  1  0  0  0  0
  4  5  1  0  0  0  0
  5  6  2  0  0  0  0
M  END
>  <CHROM.1>
9.67563080,10.94912258,-0.98092473,2.44373072,-1.10824312,-1.51224424

>  <Name>
ligand

>  <RI>
0

>  <Rbt.Current_Directory>
/home/itssahil/PROJECTS/Mol_Feturizer/Test_systems_manuscript/rnas/3la5

>  <Rbt.Executable>
rbdock ($Id: //depot/dev/client3/rdock/2013.1/src/exe/rbdock.cxx#4 $)

>  <Rbt.Library>
libRbt.so (2013.1, Build901 2013/11/27)

>  <Rbt.Parameter_File>
/export/apps/rDock/src/rDock_2013.1_src/data/scripts/dock_solv.prm

>  <Rbt.Receptor>
prm/pocket_docking_7.prm

>  <SCORE>
-8.61566

>  <SCORE.INTER>
-8.61566

>  <SCORE.INTER.CONST>
1

>  <SCORE.INTER.POLAR>
0

>  <SCORE.INTER.ROT>
0

>  <SCORE.INTER.SOLV>
8.27023

>  <SCORE.INTER.VDW>
-12.1005

>  <SCORE.INTER.norm>
-1.07696

>  <SCORE.INTRA>
0

>  <SCORE.INTRA.DIHEDRAL>
0

>  <SCORE.INTRA.DIHEDRAL.0>
0

>  <SCORE.INTRA.POLAR>
0

>  <SCORE.INTRA.POLAR.0>
0

>  <SCORE.INTRA.REPUL>
0

>  <SCORE.INTRA.REPUL.0>
0

>  <SCORE.INTRA.SOLV>
0

>  <SCORE.INTRA.SOLV.lig_0>
-29.58

>  <SCORE.INTRA.VDW>
0

>  <SCORE.INTRA.VDW.0>
0

>  <SCORE.INTRA.norm>
0

>  <SCORE.RESTR>
0

>  <SCORE.RESTR.CAVITY>
0

>  <SCORE.RESTR.norm>
0

>  <SCORE.SYSTEM>
0

>  <SCORE.SYSTEM.CONST>
0

>  <SCORE.SYSTEM.DIHEDRAL>
0

>  <SCORE.SYSTEM.SOLV>
0

>  <SCORE.SYSTEM.norm>
0

>  <SCORE.heavy>
8

>  <SCORE.norm>
-1.07696

>  <RMSD>
3.510

$$$$
ligand
 OpenBabel02271912143D
libRbt.so/2013.1/901 2013/11/27
  8  8  0  0  0  0  0  0  0  0999 V2000
    9.2188   10.0506   -1.5478 C   0  0  0  0  0  0  0  0  0  0  0  0
    9.4125   10.3752   -0.2698 N   0  0  0  0  0  0  0  0  0  0  0  0
   10.0033   11.5334    0.0360 C   0  0  0  0  0  0  0  0  0  0  0  0
   10.3896   12.3812   -0.9458 N   0  0  0  0  0  0  0  0  0  0  0  0
   10.1942   12.0399   -2.2306 C   0  0  0  0  0  0  0  0  0  0  0  0
    9.6035   10.8744   -2.5368 N   0  0  0  0  0  0  0  0  0  0  0  0
   10.2049   11.8598    1.4634 N   0  0  0  0  0  0  0  0  0  0  0  0
    8.6162    8.8698   -1.8181 O   0  0  0  0  0  0  0  0  0  0  0  0
  1  2  1  0  0  0  0
  1  6  1  0  0  0  0
  1  8  2  0  0  0  0
  2  3  1  0  0  0  0
  3  4  2  0  0  0  0
  3  7  1  0  0  0  0
  4  5  1  0  0  0  0
  5  6  2  0  0  0  0
M  END
>  <CHROM.1>
9.67974330,10.94715723,-0.98186074,2.43914699,-1.10687892,-1.51583091

>  <Name>
ligand

>  <RI>
0

>  <Rbt.Current_Directory>
/home/itssahil/PROJECTS/Mol_Feturizer/Test_systems_manuscript/rnas/3la5

>  <Rbt.Executable>
rbdock ($Id: //depot/dev/client3/rdock/2013.1/src/exe/rbdock.cxx#4 $)

>  <Rbt.Library>
libRbt.so (2013.1, Build901 2013/11/27)

>  <Rbt.Parameter_File>
/export/apps/rDock/src/rDock_2013.1_src/data/scripts/dock_solv.prm

>  <Rbt.Receptor>
prm/pocket_docking_8.prm

>  <SCORE>
-8.61829

>  <SCORE.INTER>
-8.61829

>  <SCORE.INTER.CONST>
1

>  <SCORE.INTER.POLAR>
0

>  <SCORE.INTER.ROT>
0

>  <SCORE.INTER.SOLV>
8.26813

>  <SCORE.INTER.VDW>
-12.1016

>  <SCORE.INTER.norm>
-1.07729

>  <SCORE.INTRA>
0

>  <SCORE.INTRA.DIHEDRAL>
0

>  <SCORE.INTRA.DIHEDRAL.0>
0

>  <SCORE.INTRA.POLAR>
0

>  <SCORE.INTRA.POLAR.0>
0

>  <SCORE.INTRA.REPUL>
0

>  <SCORE.INTRA.REPUL.0>
0

>  <SCORE.INTRA.SOLV>
0

>  <SCORE.INTRA.SOLV.lig_0>
-29.58

>  <SCORE.INTRA.VDW>
0

>  <SCORE.INTRA.VDW.0>
0

>  <SCORE.INTRA.norm>
0

>  <SCORE.RESTR>
0

>  <SCORE.RESTR.CAVITY>
0

>  <SCORE.RESTR.norm>
0

>  <SCORE.SYSTEM>
0

>  <SCORE.SYSTEM.CONST>
0

>  <SCORE.SYSTEM.DIHEDRAL>
0

>  <SCORE.SYSTEM.SOLV>
0

>  <SCORE.SYSTEM.norm>
0

>  <SCORE.heavy>
8

>  <SCORE.norm>
-1.07729

>  <RMSD>
3.510

$$$$
ligand
 OpenBabel02271912143D
libRbt.so/2013.1/901 2013/11/27
  8  8  0  0  0  0  0  0  0  0999 V2000
    9.2162   10.0496   -1.5463 C   0  0  0  0  0  0  0  0  0  0  0  0
    9.4091   10.3762   -0.2686 N   0  0  0  0  0  0  0  0  0  0  0  0
   10.0016   11.5339    0.0358 C   0  0  0  0  0  0  0  0  0  0  0  0
   10.3905   12.3793   -0.9471 N   0  0  0  0  0  0  0  0  0  0  0  0
   10.1959   12.0360   -2.2315 C   0  0  0  0  0  0  0  0  0  0  0  0
    9.6035   10.8710   -2.5363 N   0  0  0  0  0  0  0  0  0  0  0  0
   10.2023   11.8624    1.4628 N   0  0  0  0  0  0  0  0  0  0  0  0
    8.6118    8.8694   -1.8151 O   0  0  0  0  0  0  0  0  0  0  0  0
  1  2  1  0  0  0  0
  1  6  1  0  0  0  0
  1  8  2  0  0  0  0
  2  3  1  0  0  0  0
  3  4  2  0  0  0  0
  3  7  1  0  0  0  0
  4  5  1  0  0  0  0
  5  6  2  0  0  0  0
M  END
>  <CHROM.1>
9.67814655,10.94638414,-0.98140238,2.43652482,-1.10516066,-1.51995997

>  <Name>
ligand

>  <RI>
0

>  <Rbt.Current_Directory>
/home/itssahil/PROJECTS/Mol_Feturizer/Test_systems_manuscript/rnas/3la5

>  <Rbt.Executable>
rbdock ($Id: //depot/dev/client3/rdock/2013.1/src/exe/rbdock.cxx#4 $)

>  <Rbt.Library>
libRbt.so (2013.1, Build901 2013/11/27)

>  <Rbt.Parameter_File>
/export/apps/rDock/src/rDock_2013.1_src/data/scripts/dock_solv.prm

>  <Rbt.Receptor>
prm/blind_docking_40.prm

>  <SCORE>
-8.61801

>  <SCORE.INTER>
-8.61801

>  <SCORE.INTER.CONST>
1

>  <SCORE.INTER.POLAR>
0

>  <SCORE.INTER.ROT>
0

>  <SCORE.INTER.SOLV>
8.27248

>  <SCORE.INTER.VDW>
-12.1028

>  <SCORE.INTER.norm>
-1.07725

>  <SCORE.INTRA>
0

>  <SCORE.INTRA.DIHEDRAL>
0

>  <SCORE.INTRA.DIHEDRAL.0>
0

>  <SCORE.INTRA.POLAR>
0

>  <SCORE.INTRA.POLAR.0>
0

>  <SCORE.INTRA.REPUL>
0

>  <SCORE.INTRA.REPUL.0>
0

>  <SCORE.INTRA.SOLV>
0

>  <SCORE.INTRA.SOLV.lig_0>
-29.58

>  <SCORE.INTRA.VDW>
0

>  <SCORE.INTRA.VDW.0>
0

>  <SCORE.INTRA.norm>
0

>  <SCORE.RESTR>
0

>  <SCORE.RESTR.CAVITY>
0

>  <SCORE.RESTR.norm>
0

>  <SCORE.SYSTEM>
0

>  <SCORE.SYSTEM.CONST>
0

>  <SCORE.SYSTEM.DIHEDRAL>
0

>  <SCORE.SYSTEM.SOLV>
0

>  <SCORE.SYSTEM.norm>
0

>  <SCORE.heavy>
8

>  <SCORE.norm>
-1.07725

>  <RMSD>
3.511

$$$$
ligand
 OpenBabel02271912143D
libRbt.so/2013.1/901 2013/11/27
  8  8  0  0  0  0  0  0  0  0999 V2000
    9.2188   10.0530   -1.5475 C   0  0  0  0  0  0  0  0  0  0  0  0
    9.4075   10.3821   -0.2698 N   0  0  0  0  0  0  0  0  0  0  0  0
    9.9899   11.5449    0.0344 C   0  0  0  0  0  0  0  0  0  0  0  0
   10.3730   12.3928   -0.9486 N   0  0  0  0  0  0  0  0  0  0  0  0
   10.1828   12.0470   -2.2330 C   0  0  0  0  0  0  0  0  0  0  0  0
    9.6004   10.8769   -2.5377 N   0  0  0  0  0  0  0  0  0  0  0  0
   10.1861   11.8761    1.4614 N   0  0  0  0  0  0  0  0  0  0  0  0
    8.6247    8.8676   -1.8162 O   0  0  0  0  0  0  0  0  0  0  0  0
  1  2  1  0  0  0  0
  1  6  1  0  0  0  0
  1  8  2  0  0  0  0
  2  3  1  0  0  0  0
  3  4  2  0  0  0  0
  3  7  1  0  0  0  0
  4  5  1  0  0  0  0
  5  6  2  0  0  0  0
M  END
>  <CHROM.1>
9.67259967,10.95397831,-0.98274689,2.43474152,-1.11356670,-1.52227017

>  <Name>
ligand

>  <RI>
0

>  <Rbt.Current_Directory>
/home/itssahil/PROJECTS/Mol_Feturizer/Test_systems_manuscript/rnas/3la5

>  <Rbt.Executable>
rbdock ($Id: //depot/dev/client3/rdock/2013.1/src/exe/rbdock.cxx#4 $)

>  <Rbt.Library>
libRbt.so (2013.1, Build901 2013/11/27)

>  <Rbt.Parameter_File>
/export/apps/rDock/src/rDock_2013.1_src/data/scripts/dock_solv.prm

>  <Rbt.Receptor>
prm/pocket_docking_5.prm

>  <SCORE>
-8.60715

>  <SCORE.INTER>
-8.60715

>  <SCORE.INTER.CONST>
1

>  <SCORE.INTER.POLAR>
0

>  <SCORE.INTER.ROT>
0

>  <SCORE.INTER.SOLV>
8.26715

>  <SCORE.INTER.VDW>
-12.0938

>  <SCORE.INTER.norm>
-1.07589

>  <SCORE.INTRA>
0

>  <SCORE.INTRA.DIHEDRAL>
0

>  <SCORE.INTRA.DIHEDRAL.0>
0

>  <SCORE.INTRA.POLAR>
0

>  <SCORE.INTRA.POLAR.0>
0

>  <SCORE.INTRA.REPUL>
0

>  <SCORE.INTRA.REPUL.0>
0

>  <SCORE.INTRA.SOLV>
0

>  <SCORE.INTRA.SOLV.lig_0>
-29.58

>  <SCORE.INTRA.VDW>
0

>  <SCORE.INTRA.VDW.0>
0

>  <SCORE.INTRA.norm>
0

>  <SCORE.RESTR>
0

>  <SCORE.RESTR.CAVITY>
0

>  <SCORE.RESTR.norm>
0

>  <SCORE.SYSTEM>
0

>  <SCORE.SYSTEM.CONST>
0

>  <SCORE.SYSTEM.DIHEDRAL>
0

>  <SCORE.SYSTEM.SOLV>
0

>  <SCORE.SYSTEM.norm>
0

>  <SCORE.heavy>
8

>  <SCORE.norm>
-1.07589

>  <RMSD>
3.511

$$$$
ligand
 OpenBabel02271912143D
libRbt.so/2013.1/901 2013/11/27
  8  8  0  0  0  0  0  0  0  0999 V2000
    9.2089   10.0384   -1.5484 C   0  0  0  0  0  0  0  0  0  0  0  0
    9.4167   10.3485   -0.2689 N   0  0  0  0  0  0  0  0  0  0  0  0
    9.9911   11.5129    0.0444 C   0  0  0  0  0  0  0  0  0  0  0  0
   10.3466   12.3814   -0.9309 N   0  0  0  0  0  0  0  0  0  0  0  0
   10.1373   12.0547   -2.2173 C   0  0  0  0  0  0  0  0  0  0  0  0
    9.5631   10.8831   -2.5311 N   0  0  0  0  0  0  0  0  0  0  0  0
   10.2091   11.8227    1.4731 N   0  0  0  0  0  0  0  0  0  0  0  0
    8.6236    8.8507   -1.8263 O   0  0  0  0  0  0  0  0  0  0  0  0
  1  2  1  0  0  0  0
  1  6  1  0  0  0  0
  1  8  2  0  0  0  0
  2  3  1  0  0  0  0
  3  4  2  0  0  0  0
  3  7  1  0  0  0  0
  4  5  1  0  0  0  0
  5  6  2  0  0  0  0
M  END
>  <CHROM.1>
9.66232871,10.93521984,-0.97669712,2.47763676,-1.12381823,-1.46700575

>  <Name>
ligand

>  <RI>
0

>  <Rbt.Current_Directory>
/home/itssahil/PROJECTS/Mol_Feturizer/Test_systems_manuscript/rnas/3la5

>  <Rbt.Executable>
rbdock ($Id: //depot/dev/client3/rdock/2013.1/src/exe/rbdock.cxx#4 $)

>  <Rbt.Library>
libRbt.so (2013.1, Build901 2013/11/27)

>  <Rbt.Parameter_File>
/export/apps/rDock/src/rDock_2013.1_src/data/scripts/dock_solv.prm

>  <Rbt.Receptor>
prm/pocket_docking_7.prm

>  <SCORE>
-8.59379

>  <SCORE.INTER>
-8.59379

>  <SCORE.INTER.CONST>
1

>  <SCORE.INTER.POLAR>
0

>  <SCORE.INTER.ROT>
0

>  <SCORE.INTER.SOLV>
8.31777

>  <SCORE.INTER.VDW>
-12.1018

>  <SCORE.INTER.norm>
-1.07422

>  <SCORE.INTRA>
0

>  <SCORE.INTRA.DIHEDRAL>
0

>  <SCORE.INTRA.DIHEDRAL.0>
0

>  <SCORE.INTRA.POLAR>
0

>  <SCORE.INTRA.POLAR.0>
0

>  <SCORE.INTRA.REPUL>
0

>  <SCORE.INTRA.REPUL.0>
0

>  <SCORE.INTRA.SOLV>
0

>  <SCORE.INTRA.SOLV.lig_0>
-29.58

>  <SCORE.INTRA.VDW>
0

>  <SCORE.INTRA.VDW.0>
0

>  <SCORE.INTRA.norm>
0

>  <SCORE.RESTR>
0

>  <SCORE.RESTR.CAVITY>
0

>  <SCORE.RESTR.norm>
0

>  <SCORE.SYSTEM>
0

>  <SCORE.SYSTEM.CONST>
0

>  <SCORE.SYSTEM.DIHEDRAL>
0

>  <SCORE.SYSTEM.SOLV>
0

>  <SCORE.SYSTEM.norm>
0

>  <SCORE.heavy>
8

>  <SCORE.norm>
-1.07422

>  <RMSD>
3.512

$$$$
ligand
 OpenBabel02271912143D
libRbt.so/2013.1/901 2013/11/27
  8  8  0  0  0  0  0  0  0  0999 V2000
    9.2070   10.0438   -1.5436 C   0  0  0  0  0  0  0  0  0  0  0  0
    9.4066   10.3696   -0.2667 N   0  0  0  0  0  0  0  0  0  0  0  0
    9.9999   11.5274    0.0354 C   0  0  0  0  0  0  0  0  0  0  0  0
   10.3830   12.3738   -0.9489 N   0  0  0  0  0  0  0  0  0  0  0  0
   10.1818   12.0313   -2.2325 C   0  0  0  0  0  0  0  0  0  0  0  0
    9.5885   10.8662   -2.5350 N   0  0  0  0  0  0  0  0  0  0  0  0
   10.2080   11.8550    1.4616 N   0  0  0  0  0  0  0  0  0  0  0  0
    8.6020    8.8634   -1.8101 O   0  0  0  0  0  0  0  0  0  0  0  0
  1  2  1  0  0  0  0
  1  6  1  0  0  0  0
  1  8  2  0  0  0  0
  2  3  1  0  0  0  0
  3  4  2  0  0  0  0
  3  7  1  0  0  0  0
  4  5  1  0  0  0  0
  5  6  2  0  0  0  0
M  END
>  <CHROM.1>
9.67139249,10.94046387,-0.98049892,2.44848237,-1.10549998,-1.50850557

>  <Name>
ligand

>  <RI>
0

>  <Rbt.Current_Directory>
/home/itssahil/PROJECTS/Mol_Feturizer/Test_systems_manuscript/rnas/3la5

>  <Rbt.Executable>
rbdock ($Id: //depot/dev/client3/rdock/2013.1/src/exe/rbdock.cxx#4 $)

>  <Rbt.Library>
libRbt.so (2013.1, Build901 2013/11/27)

>  <Rbt.Parameter_File>
/export/apps/rDock/src/rDock_2013.1_src/data/scripts/dock_solv.prm

>  <Rbt.Receptor>
prm/pocket_docking_6.prm

>  <SCORE>
-8.61136

>  <SCORE.INTER>
-8.61136

>  <SCORE.INTER.CONST>
1

>  <SCORE.INTER.POLAR>
0

>  <SCORE.INTER.ROT>
0

>  <SCORE.INTER.SOLV>
8.28564

>  <SCORE.INTER.VDW>
-12.1028

>  <SCORE.INTER.norm>
-1.07642

>  <SCORE.INTRA>
0

>  <SCORE.INTRA.DIHEDRAL>
0

>  <SCORE.INTRA.DIHEDRAL.0>
0

>  <SCORE.INTRA.POLAR>
0

>  <SCORE.INTRA.POLAR.0>
0

>  <SCORE.INTRA.REPUL>
0

>  <SCORE.INTRA.REPUL.0>
0

>  <SCORE.INTRA.SOLV>
0

>  <SCORE.INTRA.SOLV.lig_0>
-29.58

>  <SCORE.INTRA.VDW>
0

>  <SCORE.INTRA.VDW.0>
0

>  <SCORE.INTRA.norm>
0

>  <SCORE.RESTR>
0

>  <SCORE.RESTR.CAVITY>
0

>  <SCORE.RESTR.norm>
0

>  <SCORE.SYSTEM>
0

>  <SCORE.SYSTEM.CONST>
0

>  <SCORE.SYSTEM.DIHEDRAL>
0

>  <SCORE.SYSTEM.SOLV>
0

>  <SCORE.SYSTEM.norm>
0

>  <SCORE.heavy>
8

>  <SCORE.norm>
-1.07642

>  <RMSD>
3.514

$$$$
ligand
 OpenBabel02271912143D
libRbt.so/2013.1/901 2013/11/27
  8  8  0  0  0  0  0  0  0  0999 V2000
    9.1970   10.0503   -1.5476 C   0  0  0  0  0  0  0  0  0  0  0  0
    9.4136   10.3645   -0.2706 N   0  0  0  0  0  0  0  0  0  0  0  0
   10.0012   11.5244    0.0345 C   0  0  0  0  0  0  0  0  0  0  0  0
   10.3615   12.3845   -0.9466 N   0  0  0  0  0  0  0  0  0  0  0  0
   10.1433   12.0537   -2.2305 C   0  0  0  0  0  0  0  0  0  0  0  0
    9.5557   10.8865   -2.5360 N   0  0  0  0  0  0  0  0  0  0  0  0
   10.2286   11.8389    1.4607 N   0  0  0  0  0  0  0  0  0  0  0  0
    8.5984    8.8674   -1.8172 O   0  0  0  0  0  0  0  0  0  0  0  0
  1  2  1  0  0  0  0
  1  6  1  0  0  0  0
  1  8  2  0  0  0  0
  2  3  1  0  0  0  0
  3  4  2  0  0  0  0
  3  7  1  0  0  0  0
  4  5  1  0  0  0  0
  5  6  2  0  0  0  0
M  END
>  <CHROM.1>
9.66216353,10.94520141,-0.98230954,2.48493878,-1.11313596,-1.46532620

>  <Name>
ligand

>  <RI>
0

>  <Rbt.Current_Directory>
/home/itssahil/PROJECTS/Mol_Feturizer/Test_systems_manuscript/rnas/3la5

>  <Rbt.Executable>
rbdock ($Id: //depot/dev/client3/rdock/2013.1/src/exe/rbdock.cxx#4 $)

>  <Rbt.Library>
libRbt.so (2013.1, Build901 2013/11/27)

>  <Rbt.Parameter_File>
/export/apps/rDock/src/rDock_2013.1_src/data/scripts/dock_solv.prm

>  <Rbt.Receptor>
prm/pocket_docking_7.prm

>  <SCORE>
-8.5984

>  <SCORE.INTER>
-8.5984

>  <SCORE.INTER.CONST>
1

>  <SCORE.INTER.POLAR>
0

>  <SCORE.INTER.ROT>
0

>  <SCORE.INTER.SOLV>
8.28837

>  <SCORE.INTER.VDW>
-12.0951

>  <SCORE.INTER.norm>
-1.0748

>  <SCORE.INTRA>
0

>  <SCORE.INTRA.DIHEDRAL>
0

>  <SCORE.INTRA.DIHEDRAL.0>
0

>  <SCORE.INTRA.POLAR>
0

>  <SCORE.INTRA.POLAR.0>
0

>  <SCORE.INTRA.REPUL>
0

>  <SCORE.INTRA.REPUL.0>
0

>  <SCORE.INTRA.SOLV>
0

>  <SCORE.INTRA.SOLV.lig_0>
-29.58

>  <SCORE.INTRA.VDW>
0

>  <SCORE.INTRA.VDW.0>
0

>  <SCORE.INTRA.norm>
0

>  <SCORE.RESTR>
0

>  <SCORE.RESTR.CAVITY>
0

>  <SCORE.RESTR.norm>
0

>  <SCORE.SYSTEM>
0

>  <SCORE.SYSTEM.CONST>
0

>  <SCORE.SYSTEM.DIHEDRAL>
0

>  <SCORE.SYSTEM.SOLV>
0

>  <SCORE.SYSTEM.norm>
0

>  <SCORE.heavy>
8

>  <SCORE.norm>
-1.0748

>  <RMSD>
3.514

$$$$
ligand
 OpenBabel02271912143D
libRbt.so/2013.1/901 2013/11/27
  8  8  0  0  0  0  0  0  0  0999 V2000
    9.2084   10.0527   -1.5511 C   0  0  0  0  0  0  0  0  0  0  0  0
    9.3961   10.3805   -0.2729 N   0  0  0  0  0  0  0  0  0  0  0  0
    9.9849   11.5396    0.0329 C   0  0  0  0  0  0  0  0  0  0  0  0
   10.3755   12.3853   -0.9491 N   0  0  0  0  0  0  0  0  0  0  0  0
   10.1862   12.0409   -2.2340 C   0  0  0  0  0  0  0  0  0  0  0  0
    9.5974   10.8745   -2.5402 N   0  0  0  0  0  0  0  0  0  0  0  0
   10.1798   11.8694    1.4605 N   0  0  0  0  0  0  0  0  0  0  0  0
    8.6076    8.8711   -1.8214 O   0  0  0  0  0  0  0  0  0  0  0  0
  1  2  1  0  0  0  0
  1  6  1  0  0  0  0
  1  8  2  0  0  0  0
  2  3  1  0  0  0  0
  3  4  2  0  0  0  0
  3  7  1  0  0  0  0
  4  5  1  0  0  0  0
  5  6  2  0  0  0  0
M  END
>  <CHROM.1>
9.66637655,10.95084926,-0.98510692,2.42883232,-1.10753778,-1.52738508

>  <Name>
ligand

>  <RI>
0

>  <Rbt.Current_Directory>
/home/itssahil/PROJECTS/Mol_Feturizer/Test_systems_manuscript/rnas/3la5

>  <Rbt.Executable>
rbdock ($Id: //depot/dev/client3/rdock/2013.1/src/exe/rbdock.cxx#4 $)

>  <Rbt.Library>
libRbt.so (2013.1, Build901 2013/11/27)

>  <Rbt.Parameter_File>
/export/apps/rDock/src/rDock_2013.1_src/data/scripts/dock_solv.prm

>  <Rbt.Receptor>
prm/blind_docking_40.prm

>  <SCORE>
-8.61121

>  <SCORE.INTER>
-8.61121

>  <SCORE.INTER.CONST>
1

>  <SCORE.INTER.POLAR>
0

>  <SCORE.INTER.ROT>
0

>  <SCORE.INTER.SOLV>
8.28943

>  <SCORE.INTER.VDW>
-12.104

>  <SCORE.INTER.norm>
-1.0764

>  <SCORE.INTRA>
0

>  <SCORE.INTRA.DIHEDRAL>
0

>  <SCORE.INTRA.DIHEDRAL.0>
0

>  <SCORE.INTRA.POLAR>
0

>  <SCORE.INTRA.POLAR.0>
0

>  <SCORE.INTRA.REPUL>
0

>  <SCORE.INTRA.REPUL.0>
0

>  <SCORE.INTRA.SOLV>
0

>  <SCORE.INTRA.SOLV.lig_0>
-29.58

>  <SCORE.INTRA.VDW>
0

>  <SCORE.INTRA.VDW.0>
0

>  <SCORE.INTRA.norm>
0

>  <SCORE.RESTR>
0

>  <SCORE.RESTR.CAVITY>
0

>  <SCORE.RESTR.norm>
0

>  <SCORE.SYSTEM>
0

>  <SCORE.SYSTEM.CONST>
0

>  <SCORE.SYSTEM.DIHEDRAL>
0

>  <SCORE.SYSTEM.SOLV>
0

>  <SCORE.SYSTEM.norm>
0

>  <SCORE.heavy>
8

>  <SCORE.norm>
-1.0764

>  <RMSD>
3.515

$$$$
ligand
 OpenBabel02271912143D
libRbt.so/2013.1/901 2013/11/27
  8  8  0  0  0  0  0  0  0  0999 V2000
    9.2211   10.0477   -1.5553 C   0  0  0  0  0  0  0  0  0  0  0  0
    9.3837   10.3870   -0.2767 N   0  0  0  0  0  0  0  0  0  0  0  0
    9.9700   11.5472    0.0301 C   0  0  0  0  0  0  0  0  0  0  0  0
   10.3834   12.3822   -0.9517 N   0  0  0  0  0  0  0  0  0  0  0  0
   10.2193   12.0261   -2.2369 C   0  0  0  0  0  0  0  0  0  0  0  0
    9.6330   10.8586   -2.5439 N   0  0  0  0  0  0  0  0  0  0  0  0
   10.1367   11.8901    1.4581 N   0  0  0  0  0  0  0  0  0  0  0  0
    8.6220    8.8653   -1.8265 O   0  0  0  0  0  0  0  0  0  0  0  0
  1  2  1  0  0  0  0
  1  6  1  0  0  0  0
  1  8  2  0  0  0  0
  2  3  1  0  0  0  0
  3  4  2  0  0  0  0
  3  7  1  0  0  0  0
  4  5  1  0  0  0  0
  5  6  2  0  0  0  0
M  END
>  <CHROM.1>
9.67038578,10.94971084,-0.98856395,2.38298638,-1.10465854,-1.57794838

>  <Name>
ligand

>  <RI>
0

>  <Rbt.Current_Directory>
/home/itssahil/PROJECTS/Mol_Feturizer/Test_systems_manuscript/rnas/3la5

>  <Rbt.Executable>
rbdock ($Id: //depot/dev/client3/rdock/2013.1/src/exe/rbdock.cxx#4 $)

>  <Rbt.Library>
libRbt.so (2013.1, Build901 2013/11/27)

>  <Rbt.Parameter_File>
/export/apps/rDock/src/rDock_2013.1_src/data/scripts/dock_solv.prm

>  <Rbt.Receptor>
prm/blind_docking_20.prm

>  <SCORE>
-8.59945

>  <SCORE.INTER>
-8.59945

>  <SCORE.INTER.CONST>
1

>  <SCORE.INTER.POLAR>
0

>  <SCORE.INTER.ROT>
0

>  <SCORE.INTER.SOLV>
8.29159

>  <SCORE.INTER.VDW>
-12.0968

>  <SCORE.INTER.norm>
-1.07493

>  <SCORE.INTRA>
0

>  <SCORE.INTRA.DIHEDRAL>
0

>  <SCORE.INTRA.DIHEDRAL.0>
0

>  <SCORE.INTRA.POLAR>
0

>  <SCORE.INTRA.POLAR.0>
0

>  <SCORE.INTRA.REPUL>
0

>  <SCORE.INTRA.REPUL.0>
0

>  <SCORE.INTRA.SOLV>
0

>  <SCORE.INTRA.SOLV.lig_0>
-29.58

>  <SCORE.INTRA.VDW>
0

>  <SCORE.INTRA.VDW.0>
0

>  <SCORE.INTRA.norm>
0

>  <SCORE.RESTR>
0

>  <SCORE.RESTR.CAVITY>
0

>  <SCORE.RESTR.norm>
0

>  <SCORE.SYSTEM>
0

>  <SCORE.SYSTEM.CONST>
0

>  <SCORE.SYSTEM.DIHEDRAL>
0

>  <SCORE.SYSTEM.SOLV>
0

>  <SCORE.SYSTEM.norm>
0

>  <SCORE.heavy>
8

>  <SCORE.norm>
-1.07493

>  <RMSD>
3.518

$$$$
ligand
 OpenBabel02271912143D
libRbt.so/2013.1/901 2013/11/27
  8  8  0  0  0  0  0  0  0  0999 V2000
    9.2171   10.0402   -1.5537 C   0  0  0  0  0  0  0  0  0  0  0  0
    9.3977   10.3701   -0.2751 N   0  0  0  0  0  0  0  0  0  0  0  0
    9.9839   11.5302    0.0321 C   0  0  0  0  0  0  0  0  0  0  0  0
   10.3790   12.3747   -0.9491 N   0  0  0  0  0  0  0  0  0  0  0  0
   10.1968   12.0281   -2.2344 C   0  0  0  0  0  0  0  0  0  0  0  0
    9.6106   10.8607   -2.5420 N   0  0  0  0  0  0  0  0  0  0  0  0
   10.1708   11.8623    1.4602 N   0  0  0  0  0  0  0  0  0  0  0  0
    8.6187    8.8576   -1.8254 O   0  0  0  0  0  0  0  0  0  0  0  0
  1  2  1  0  0  0  0
  1  6  1  0  0  0  0
  1  8  2  0  0  0  0
  2  3  1  0  0  0  0
  3  4  2  0  0  0  0
  3  7  1  0  0  0  0
  4  5  1  0  0  0  0
  5  6  2  0  0  0  0
M  END
>  <CHROM.1>
9.67126524,10.93957089,-0.98668132,2.41696169,-1.10856141,-1.53954911

>  <Name>
ligand

>  <RI>
0

>  <Rbt.Current_Directory>
/home/itssahil/PROJECTS/Mol_Feturizer/Test_systems_manuscript/rnas/3la5

>  <Rbt.Executable>
rbdock ($Id: //depot/dev/client3/rdock/2013.1/src/exe/rbdock.cxx#4 $)

>  <Rbt.Library>
libRbt.so (2013.1, Build901 2013/11/27)

>  <Rbt.Parameter_File>
/export/apps/rDock/src/rDock_2013.1_src/data/scripts/dock_solv.prm

>  <Rbt.Receptor>
prm/blind_docking_60.prm

>  <SCORE>
-8.60869

>  <SCORE.INTER>
-8.60869

>  <SCORE.INTER.CONST>
1

>  <SCORE.INTER.POLAR>
0

>  <SCORE.INTER.ROT>
0

>  <SCORE.INTER.SOLV>
8.28486

>  <SCORE.INTER.VDW>
-12.1007

>  <SCORE.INTER.norm>
-1.07609

>  <SCORE.INTRA>
0

>  <SCORE.INTRA.DIHEDRAL>
0

>  <SCORE.INTRA.DIHEDRAL.0>
0

>  <SCORE.INTRA.POLAR>
0

>  <SCORE.INTRA.POLAR.0>
0

>  <SCORE.INTRA.REPUL>
0

>  <SCORE.INTRA.REPUL.0>
0

>  <SCORE.INTRA.SOLV>
0

>  <SCORE.INTRA.SOLV.lig_0>
-29.58

>  <SCORE.INTRA.VDW>
0

>  <SCORE.INTRA.VDW.0>
0

>  <SCORE.INTRA.norm>
0

>  <SCORE.RESTR>
0

>  <SCORE.RESTR.CAVITY>
0

>  <SCORE.RESTR.norm>
0

>  <SCORE.SYSTEM>
0

>  <SCORE.SYSTEM.CONST>
0

>  <SCORE.SYSTEM.DIHEDRAL>
0

>  <SCORE.SYSTEM.SOLV>
0

>  <SCORE.SYSTEM.norm>
0

>  <SCORE.heavy>
8

>  <SCORE.norm>
-1.07609

>  <RMSD>
3.518

$$$$
ligand
 OpenBabel02271912143D
libRbt.so/2013.1/901 2013/11/27
  8  8  0  0  0  0  0  0  0  0999 V2000
   10.1922    9.5083   -1.4452 C   0  0  0  0  0  0  0  0  0  0  0  0
   10.2445   10.0020   -0.2083 N   0  0  0  0  0  0  0  0  0  0  0  0
   10.1016   11.3156   -0.0140 C   0  0  0  0  0  0  0  0  0  0  0  0
    9.8889   12.1407   -1.0657 N   0  0  0  0  0  0  0  0  0  0  0  0
    9.8441   11.6317   -2.3084 C   0  0  0  0  0  0  0  0  0  0  0  0
    9.9912   10.3120   -2.5028 N   0  0  0  0  0  0  0  0  0  0  0  0
   10.1681   11.8288    1.3705 N   0  0  0  0  0  0  0  0  0  0  0  0
   10.3401    8.1727   -1.6020 O   0  0  0  0  0  0  0  0  0  0  0  0
  1  2  1  0  0  0  0
  1  6  1  0  0  0  0
  1  8  2  0  0  0  0
  2  3  1  0  0  0  0
  3  4  2  0  0  0  0
  3  7  1  0  0  0  0
  4  5  1  0  0  0  0
  5  6  2  0  0  0  0
M  END
>  <CHROM.1>
10.10363674,10.55761387,-0.96785560,-1.30961960,-1.41471688,0.92264935

>  <Name>
ligand

>  <RI>
0

>  <Rbt.Current_Directory>
/home/itssahil/PROJECTS/Mol_Feturizer/Test_systems_manuscript/rnas/3la5

>  <Rbt.Executable>
rbdock ($Id: //depot/dev/client3/rdock/2013.1/src/exe/rbdock.cxx#4 $)

>  <Rbt.Library>
libRbt.so (2013.1, Build901 2013/11/27)

>  <Rbt.Parameter_File>
/export/apps/rDock/src/rDock_2013.1_src/data/scripts/dock_solv.prm

>  <Rbt.Receptor>
prm/pocket_docking_8.prm

>  <SCORE>
-8.32631

>  <SCORE.INTER>
-8.32631

>  <SCORE.INTER.CONST>
1

>  <SCORE.INTER.POLAR>
0

>  <SCORE.INTER.ROT>
0

>  <SCORE.INTER.SOLV>
7.70631

>  <SCORE.INTER.VDW>
-11.7196

>  <SCORE.INTER.norm>
-1.04079

>  <SCORE.INTRA>
0

>  <SCORE.INTRA.DIHEDRAL>
0

>  <SCORE.INTRA.DIHEDRAL.0>
0

>  <SCORE.INTRA.POLAR>
0

>  <SCORE.INTRA.POLAR.0>
0

>  <SCORE.INTRA.REPUL>
0

>  <SCORE.INTRA.REPUL.0>
0

>  <SCORE.INTRA.SOLV>
0

>  <SCORE.INTRA.SOLV.lig_0>
-29.58

>  <SCORE.INTRA.VDW>
0

>  <SCORE.INTRA.VDW.0>
0

>  <SCORE.INTRA.norm>
0

>  <SCORE.RESTR>
0

>  <SCORE.RESTR.CAVITY>
0

>  <SCORE.RESTR.norm>
0

>  <SCORE.SYSTEM>
0

>  <SCORE.SYSTEM.CONST>
0

>  <SCORE.SYSTEM.DIHEDRAL>
0

>  <SCORE.SYSTEM.SOLV>
0

>  <SCORE.SYSTEM.norm>
0

>  <SCORE.heavy>
8

>  <SCORE.norm>
-1.04079

>  <RMSD>
3.527

$$$$
ligand
 OpenBabel02271912143D
libRbt.so/2013.1/901 2013/11/27
  8  8  0  0  0  0  0  0  0  0999 V2000
   10.1874    9.4972   -1.4430 C   0  0  0  0  0  0  0  0  0  0  0  0
   10.2569    9.9822   -0.2035 N   0  0  0  0  0  0  0  0  0  0  0  0
   10.1338   11.2965    0.0000 C   0  0  0  0  0  0  0  0  0  0  0  0
    9.9238   12.1310   -1.0447 N   0  0  0  0  0  0  0  0  0  0  0  0
    9.8616   11.6305   -2.2901 C   0  0  0  0  0  0  0  0  0  0  0  0
    9.9888   10.3102   -2.4939 N   0  0  0  0  0  0  0  0  0  0  0  0
   10.2190   11.7999    1.3871 N   0  0  0  0  0  0  0  0  0  0  0  0
   10.3156    8.1606   -1.6093 O   0  0  0  0  0  0  0  0  0  0  0  0
  1  2  1  0  0  0  0
  1  6  1  0  0  0  0
  1  8  2  0  0  0  0
  2  3  1  0  0  0  0
  3  4  2  0  0  0  0
  3  7  1  0  0  0  0
  4  5  1  0  0  0  0
  5  6  2  0  0  0  0
M  END
>  <CHROM.1>
10.11739688,10.54453913,-0.95848775,-1.40966271,-1.41996678,0.83001311

>  <Name>
ligand

>  <RI>
0

>  <Rbt.Current_Directory>
/home/itssahil/PROJECTS/Mol_Feturizer/Test_systems_manuscript/rnas/3la5

>  <Rbt.Executable>
rbdock ($Id: //depot/dev/client3/rdock/2013.1/src/exe/rbdock.cxx#4 $)

>  <Rbt.Library>
libRbt.so (2013.1, Build901 2013/11/27)

>  <Rbt.Parameter_File>
/export/apps/rDock/src/rDock_2013.1_src/data/scripts/dock_solv.prm

>  <Rbt.Receptor>
prm/pocket_docking_8.prm

>  <SCORE>
-8.30523

>  <SCORE.INTER>
-8.30523

>  <SCORE.INTER.CONST>
1

>  <SCORE.INTER.POLAR>
0

>  <SCORE.INTER.ROT>
0

>  <SCORE.INTER.SOLV>
7.73482

>  <SCORE.INTER.VDW>
-11.7151

>  <SCORE.INTER.norm>
-1.03815

>  <SCORE.INTRA>
0

>  <SCORE.INTRA.DIHEDRAL>
0

>  <SCORE.INTRA.DIHEDRAL.0>
0

>  <SCORE.INTRA.POLAR>
0

>  <SCORE.INTRA.POLAR.0>
0

>  <SCORE.INTRA.REPUL>
0

>  <SCORE.INTRA.REPUL.0>
0

>  <SCORE.INTRA.SOLV>
0

>  <SCORE.INTRA.SOLV.lig_0>
-29.58

>  <SCORE.INTRA.VDW>
0

>  <SCORE.INTRA.VDW.0>
0

>  <SCORE.INTRA.norm>
0

>  <SCORE.RESTR>
0

>  <SCORE.RESTR.CAVITY>
0

>  <SCORE.RESTR.norm>
0

>  <SCORE.SYSTEM>
0

>  <SCORE.SYSTEM.CONST>
0

>  <SCORE.SYSTEM.DIHEDRAL>
0

>  <SCORE.SYSTEM.SOLV>
0

>  <SCORE.SYSTEM.norm>
0

>  <SCORE.heavy>
8

>  <SCORE.norm>
-1.03815

>  <RMSD>
3.527

$$$$
ligand
 OpenBabel02271912143D
libRbt.so/2013.1/901 2013/11/27
  8  8  0  0  0  0  0  0  0  0999 V2000
   10.1844    9.4974   -1.4450 C   0  0  0  0  0  0  0  0  0  0  0  0
   10.2638    9.9835   -0.2065 N   0  0  0  0  0  0  0  0  0  0  0  0
   10.1456   11.2983   -0.0034 C   0  0  0  0  0  0  0  0  0  0  0  0
    9.9306   12.1324   -1.0475 N   0  0  0  0  0  0  0  0  0  0  0  0
    9.8585   11.6309   -2.2919 C   0  0  0  0  0  0  0  0  0  0  0  0
    9.9807   10.3100   -2.4953 N   0  0  0  0  0  0  0  0  0  0  0  0
   10.2417   11.8028    1.3825 N   0  0  0  0  0  0  0  0  0  0  0  0
   10.3078    8.1604   -1.6109 O   0  0  0  0  0  0  0  0  0  0  0  0
  1  2  1  0  0  0  0
  1  6  1  0  0  0  0
  1  8  2  0  0  0  0
  2  3  1  0  0  0  0
  3  4  2  0  0  0  0
  3  7  1  0  0  0  0
  4  5  1  0  0  0  0
  5  6  2  0  0  0  0
M  END
>  <CHROM.1>
10.12054668,10.54545987,-0.96104697,-1.45482252,-1.41712385,0.78441281

>  <Name>
ligand

>  <RI>
0

>  <Rbt.Current_Directory>
/home/itssahil/PROJECTS/Mol_Feturizer/Test_systems_manuscript/rnas/3la5

>  <Rbt.Executable>
rbdock ($Id: //depot/dev/client3/rdock/2013.1/src/exe/rbdock.cxx#4 $)

>  <Rbt.Library>
libRbt.so (2013.1, Build901 2013/11/27)

>  <Rbt.Parameter_File>
/export/apps/rDock/src/rDock_2013.1_src/data/scripts/dock_solv.prm

>  <Rbt.Receptor>
prm/blind_docking_20.prm

>  <SCORE>
-8.28017

>  <SCORE.INTER>
-8.28017

>  <SCORE.INTER.CONST>
1

>  <SCORE.INTER.POLAR>
0

>  <SCORE.INTER.ROT>
0

>  <SCORE.INTER.SOLV>
7.6957

>  <SCORE.INTER.VDW>
-11.6853

>  <SCORE.INTER.norm>
-1.03502

>  <SCORE.INTRA>
0

>  <SCORE.INTRA.DIHEDRAL>
0

>  <SCORE.INTRA.DIHEDRAL.0>
0

>  <SCORE.INTRA.POLAR>
0

>  <SCORE.INTRA.POLAR.0>
0

>  <SCORE.INTRA.REPUL>
0

>  <SCORE.INTRA.REPUL.0>
0

>  <SCORE.INTRA.SOLV>
0

>  <SCORE.INTRA.SOLV.lig_0>
-29.58

>  <SCORE.INTRA.VDW>
0

>  <SCORE.INTRA.VDW.0>
0

>  <SCORE.INTRA.norm>
0

>  <SCORE.RESTR>
0

>  <SCORE.RESTR.CAVITY>
0

>  <SCORE.RESTR.norm>
0

>  <SCORE.SYSTEM>
0

>  <SCORE.SYSTEM.CONST>
0

>  <SCORE.SYSTEM.DIHEDRAL>
0

>  <SCORE.SYSTEM.SOLV>
0

>  <SCORE.SYSTEM.norm>
0

>  <SCORE.heavy>
8

>  <SCORE.norm>
-1.03502

>  <RMSD>
3.528

$$$$
ligand
 OpenBabel02271912143D
libRbt.so/2013.1/901 2013/11/27
  8  8  0  0  0  0  0  0  0  0999 V2000
   10.1682    9.5090   -1.4596 C   0  0  0  0  0  0  0  0  0  0  0  0
   10.2408    9.9803   -0.2150 N   0  0  0  0  0  0  0  0  0  0  0  0
   10.1446   11.2949    0.0009 C   0  0  0  0  0  0  0  0  0  0  0  0
    9.9585   12.1439   -1.0366 N   0  0  0  0  0  0  0  0  0  0  0  0
    9.8929   11.6571   -2.2873 C   0  0  0  0  0  0  0  0  0  0  0  0
    9.9930   10.3364   -2.5034 N   0  0  0  0  0  0  0  0  0  0  0  0
   10.2324   11.7827    1.3934 N   0  0  0  0  0  0  0  0  0  0  0  0
   10.2687    8.1718   -1.6384 O   0  0  0  0  0  0  0  0  0  0  0  0
  1  2  1  0  0  0  0
  1  6  1  0  0  0  0
  1  8  2  0  0  0  0
  2  3  1  0  0  0  0
  3  4  2  0  0  0  0
  3  7  1  0  0  0  0
  4  5  1  0  0  0  0
  5  6  2  0  0  0  0
M  END
>  <CHROM.1>
10.11771320,10.55287926,-0.96506682,-1.48684849,-1.43925714,0.76346677

>  <Name>
ligand

>  <RI>
0

>  <Rbt.Current_Directory>
/home/itssahil/PROJECTS/Mol_Feturizer/Test_systems_manuscript/rnas/3la5

>  <Rbt.Executable>
rbdock ($Id: //depot/dev/client3/rdock/2013.1/src/exe/rbdock.cxx#4 $)

>  <Rbt.Library>
libRbt.so (2013.1, Build901 2013/11/27)

>  <Rbt.Parameter_File>
/export/apps/rDock/src/rDock_2013.1_src/data/scripts/dock_solv.prm

>  <Rbt.Receptor>
prm/pocket_docking_6.prm

>  <SCORE>
-8.28244

>  <SCORE.INTER>
-8.28244

>  <SCORE.INTER.CONST>
1

>  <SCORE.INTER.POLAR>
0

>  <SCORE.INTER.ROT>
0

>  <SCORE.INTER.SOLV>
7.76087

>  <SCORE.INTER.VDW>
-11.7086

>  <SCORE.INTER.norm>
-1.0353

>  <SCORE.INTRA>
0

>  <SCORE.INTRA.DIHEDRAL>
0

>  <SCORE.INTRA.DIHEDRAL.0>
0

>  <SCORE.INTRA.POLAR>
0

>  <SCORE.INTRA.POLAR.0>
0

>  <SCORE.INTRA.REPUL>
0

>  <SCORE.INTRA.REPUL.0>
0

>  <SCORE.INTRA.SOLV>
0

>  <SCORE.INTRA.SOLV.lig_0>
-29.58

>  <SCORE.INTRA.VDW>
0

>  <SCORE.INTRA.VDW.0>
0

>  <SCORE.INTRA.norm>
0

>  <SCORE.RESTR>
0

>  <SCORE.RESTR.CAVITY>
0

>  <SCORE.RESTR.norm>
0

>  <SCORE.SYSTEM>
0

>  <SCORE.SYSTEM.CONST>
0

>  <SCORE.SYSTEM.DIHEDRAL>
0

>  <SCORE.SYSTEM.SOLV>
0

>  <SCORE.SYSTEM.norm>
0

>  <SCORE.heavy>
8

>  <SCORE.norm>
-1.0353

>  <RMSD>
3.528

$$$$
ligand
 OpenBabel02271912143D
libRbt.so/2013.1/901 2013/11/27
  8  8  0  0  0  0  0  0  0  0999 V2000
   10.1881    9.5111   -1.4442 C   0  0  0  0  0  0  0  0  0  0  0  0
   10.2313   10.0101   -0.2090 N   0  0  0  0  0  0  0  0  0  0  0  0
   10.0944   11.3254   -0.0221 C   0  0  0  0  0  0  0  0  0  0  0  0
    9.8970   12.1469   -1.0796 N   0  0  0  0  0  0  0  0  0  0  0  0
    9.8614   11.6325   -2.3203 C   0  0  0  0  0  0  0  0  0  0  0  0
   10.0024   10.3111   -2.5073 N   0  0  0  0  0  0  0  0  0  0  0  0
   10.1504   11.8445    1.3607 N   0  0  0  0  0  0  0  0  0  0  0  0
   10.3295    8.1739   -1.5934 O   0  0  0  0  0  0  0  0  0  0  0  0
  1  2  1  0  0  0  0
  1  6  1  0  0  0  0
  1  8  2  0  0  0  0
  2  3  1  0  0  0  0
  3  4  2  0  0  0  0
  3  7  1  0  0  0  0
  4  5  1  0  0  0  0
  5  6  2  0  0  0  0
M  END
>  <CHROM.1>
10.10121522,10.56306232,-0.97247226,-1.28076695,-1.42537970,0.94661741

>  <Name>
ligand

>  <RI>
0

>  <Rbt.Current_Directory>
/home/itssahil/PROJECTS/Mol_Feturizer/Test_systems_manuscript/rnas/3la5

>  <Rbt.Executable>
rbdock ($Id: //depot/dev/client3/rdock/2013.1/src/exe/rbdock.cxx#4 $)

>  <Rbt.Library>
libRbt.so (2013.1, Build901 2013/11/27)

>  <Rbt.Parameter_File>
/export/apps/rDock/src/rDock_2013.1_src/data/scripts/dock_solv.prm

>  <Rbt.Receptor>
prm/pocket_docking_8.prm

>  <SCORE>
-8.27804

>  <SCORE.INTER>
-8.27804

>  <SCORE.INTER.CONST>
1

>  <SCORE.INTER.POLAR>
0

>  <SCORE.INTER.ROT>
0

>  <SCORE.INTER.SOLV>
7.68614

>  <SCORE.INTER.VDW>
-11.6807

>  <SCORE.INTER.norm>
-1.03476

>  <SCORE.INTRA>
0

>  <SCORE.INTRA.DIHEDRAL>
0

>  <SCORE.INTRA.DIHEDRAL.0>
0

>  <SCORE.INTRA.POLAR>
0

>  <SCORE.INTRA.POLAR.0>
0

>  <SCORE.INTRA.REPUL>
0

>  <SCORE.INTRA.REPUL.0>
0

>  <SCORE.INTRA.SOLV>
0

>  <SCORE.INTRA.SOLV.lig_0>
-29.58

>  <SCORE.INTRA.VDW>
0

>  <SCORE.INTRA.VDW.0>
0

>  <SCORE.INTRA.norm>
0

>  <SCORE.RESTR>
0

>  <SCORE.RESTR.CAVITY>
0

>  <SCORE.RESTR.norm>
0

>  <SCORE.SYSTEM>
0

>  <SCORE.SYSTEM.CONST>
0

>  <SCORE.SYSTEM.DIHEDRAL>
0

>  <SCORE.SYSTEM.SOLV>
0

>  <SCORE.SYSTEM.norm>
0

>  <SCORE.heavy>
8

>  <SCORE.norm>
-1.03476

>  <RMSD>
3.531

$$$$
ligand
 OpenBabel02271912143D
libRbt.so/2013.1/901 2013/11/27
  8  8  0  0  0  0  0  0  0  0999 V2000
   10.1831    9.4985   -1.4534 C   0  0  0  0  0  0  0  0  0  0  0  0
   10.2640    9.9838   -0.2147 N   0  0  0  0  0  0  0  0  0  0  0  0
   10.1472   11.2986   -0.0107 C   0  0  0  0  0  0  0  0  0  0  0  0
    9.9322   12.1335   -1.0541 N   0  0  0  0  0  0  0  0  0  0  0  0
    9.8585   11.6328   -2.2988 C   0  0  0  0  0  0  0  0  0  0  0  0
    9.9792   10.3119   -2.5030 N   0  0  0  0  0  0  0  0  0  0  0  0
   10.2450   11.8023    1.3755 N   0  0  0  0  0  0  0  0  0  0  0  0
   10.3050    8.1615   -1.6201 O   0  0  0  0  0  0  0  0  0  0  0  0
  1  2  1  0  0  0  0
  1  6  1  0  0  0  0
  1  8  2  0  0  0  0
  2  3  1  0  0  0  0
  3  4  2  0  0  0  0
  3  7  1  0  0  0  0
  4  5  1  0  0  0  0
  5  6  2  0  0  0  0
M  END
>  <CHROM.1>
10.12063841,10.54635885,-0.96871869,-1.46331624,-1.41722257,0.77658255

>  <Name>
ligand

>  <RI>
0

>  <Rbt.Current_Directory>
/home/itssahil/PROJECTS/Mol_Feturizer/Test_systems_manuscript/rnas/3la5

>  <Rbt.Executable>
rbdock ($Id: //depot/dev/client3/rdock/2013.1/src/exe/rbdock.cxx#4 $)

>  <Rbt.Library>
libRbt.so (2013.1, Build901 2013/11/27)

>  <Rbt.Parameter_File>
/export/apps/rDock/src/rDock_2013.1_src/data/scripts/dock_solv.prm

>  <Rbt.Receptor>
prm/blind_docking_80.prm

>  <SCORE>
-8.28017

>  <SCORE.INTER>
-8.28017

>  <SCORE.INTER.CONST>
1

>  <SCORE.INTER.POLAR>
0

>  <SCORE.INTER.ROT>
0

>  <SCORE.INTER.SOLV>
7.68162

>  <SCORE.INTER.VDW>
-11.6807

>  <SCORE.INTER.norm>
-1.03502

>  <SCORE.INTRA>
0

>  <SCORE.INTRA.DIHEDRAL>
0

>  <SCORE.INTRA.DIHEDRAL.0>
0

>  <SCORE.INTRA.POLAR>
0

>  <SCORE.INTRA.POLAR.0>
0

>  <SCORE.INTRA.REPUL>
0

>  <SCORE.INTRA.REPUL.0>
0

>  <SCORE.INTRA.SOLV>
0

>  <SCORE.INTRA.SOLV.lig_0>
-29.58

>  <SCORE.INTRA.VDW>
0

>  <SCORE.INTRA.VDW.0>
0

>  <SCORE.INTRA.norm>
0

>  <SCORE.RESTR>
0

>  <SCORE.RESTR.CAVITY>
0

>  <SCORE.RESTR.norm>
0

>  <SCORE.SYSTEM>
0

>  <SCORE.SYSTEM.CONST>
0

>  <SCORE.SYSTEM.DIHEDRAL>
0

>  <SCORE.SYSTEM.SOLV>
0

>  <SCORE.SYSTEM.norm>
0

>  <SCORE.heavy>
8

>  <SCORE.norm>
-1.03502

>  <RMSD>
3.532

$$$$
ligand
 OpenBabel02271912143D
libRbt.so/2013.1/901 2013/11/27
  8  8  0  0  0  0  0  0  0  0999 V2000
    9.1892   10.0165   -1.5443 C   0  0  0  0  0  0  0  0  0  0  0  0
    9.3985   10.3514   -0.2713 N   0  0  0  0  0  0  0  0  0  0  0  0
    9.9906   11.5131    0.0180 C   0  0  0  0  0  0  0  0  0  0  0  0
   10.3627   12.3541   -0.9751 N   0  0  0  0  0  0  0  0  0  0  0  0
   10.1518   12.0025   -2.2546 C   0  0  0  0  0  0  0  0  0  0  0  0
    9.5597   10.8335   -2.5443 N   0  0  0  0  0  0  0  0  0  0  0  0
   10.2096   11.8509    1.4402 N   0  0  0  0  0  0  0  0  0  0  0  0
    8.5858    8.8325   -1.7978 O   0  0  0  0  0  0  0  0  0  0  0  0
  1  2  1  0  0  0  0
  1  6  1  0  0  0  0
  1  8  2  0  0  0  0
  2  3  1  0  0  0  0
  3  4  2  0  0  0  0
  3  7  1  0  0  0  0
  4  5  1  0  0  0  0
  5  6  2  0  0  0  0
M  END
>  <CHROM.1>
9.65546780,10.91838749,-0.99108804,2.46777832,-1.10811885,-1.49791365

>  <Name>
ligand

>  <RI>
0

>  <Rbt.Current_Directory>
/home/itssahil/PROJECTS/Mol_Feturizer/Test_systems_manuscript/rnas/3la5

>  <Rbt.Executable>
rbdock ($Id: //depot/dev/client3/rdock/2013.1/src/exe/rbdock.cxx#4 $)

>  <Rbt.Library>
libRbt.so (2013.1, Build901 2013/11/27)

>  <Rbt.Parameter_File>
/export/apps/rDock/src/rDock_2013.1_src/data/scripts/dock_solv.prm

>  <Rbt.Receptor>
prm/blind_docking_20.prm

>  <SCORE>
-8.60838

>  <SCORE.INTER>
-8.60838

>  <SCORE.INTER.CONST>
1

>  <SCORE.INTER.POLAR>
0

>  <SCORE.INTER.ROT>
0

>  <SCORE.INTER.SOLV>
8.27653

>  <SCORE.INTER.VDW>
-12.0978

>  <SCORE.INTER.norm>
-1.07605

>  <SCORE.INTRA>
0

>  <SCORE.INTRA.DIHEDRAL>
0

>  <SCORE.INTRA.DIHEDRAL.0>
0

>  <SCORE.INTRA.POLAR>
0

>  <SCORE.INTRA.POLAR.0>
0

>  <SCORE.INTRA.REPUL>
0

>  <SCORE.INTRA.REPUL.0>
0

>  <SCORE.INTRA.SOLV>
0

>  <SCORE.INTRA.SOLV.lig_0>
-29.58

>  <SCORE.INTRA.VDW>
0

>  <SCORE.INTRA.VDW.0>
0

>  <SCORE.INTRA.norm>
0

>  <SCORE.RESTR>
0

>  <SCORE.RESTR.CAVITY>
0

>  <SCORE.RESTR.norm>
0

>  <SCORE.SYSTEM>
0

>  <SCORE.SYSTEM.CONST>
0

>  <SCORE.SYSTEM.DIHEDRAL>
0

>  <SCORE.SYSTEM.SOLV>
0

>  <SCORE.SYSTEM.norm>
0

>  <SCORE.heavy>
8

>  <SCORE.norm>
-1.07605

>  <RMSD>
3.533

$$$$
ligand
 OpenBabel02271912143D
libRbt.so/2013.1/901 2013/11/27
  8  8  0  0  0  0  0  0  0  0999 V2000
    9.1917   10.0176   -1.5475 C   0  0  0  0  0  0  0  0  0  0  0  0
    9.4034   10.3505   -0.2744 N   0  0  0  0  0  0  0  0  0  0  0  0
    9.9923   11.5137    0.0158 C   0  0  0  0  0  0  0  0  0  0  0  0
   10.3585   12.3581   -0.9765 N   0  0  0  0  0  0  0  0  0  0  0  0
   10.1451   12.0085   -2.2562 C   0  0  0  0  0  0  0  0  0  0  0  0
    9.5563   10.8381   -2.5468 N   0  0  0  0  0  0  0  0  0  0  0  0
   10.2142   11.8491    1.4381 N   0  0  0  0  0  0  0  0  0  0  0  0
    8.5917    8.8320   -1.8018 O   0  0  0  0  0  0  0  0  0  0  0  0
  1  2  1  0  0  0  0
  1  6  1  0  0  0  0
  1  8  2  0  0  0  0
  2  3  1  0  0  0  0
  3  4  2  0  0  0  0
  3  7  1  0  0  0  0
  4  5  1  0  0  0  0
  5  6  2  0  0  0  0
M  END
>  <CHROM.1>
9.65630626,10.91992351,-0.99367124,2.47483906,-1.11143146,-1.48941485

>  <Name>
ligand

>  <RI>
0

>  <Rbt.Current_Directory>
/home/itssahil/PROJECTS/Mol_Feturizer/Test_systems_manuscript/rnas/3la5

>  <Rbt.Executable>
rbdock ($Id: //depot/dev/client3/rdock/2013.1/src/exe/rbdock.cxx#4 $)

>  <Rbt.Library>
libRbt.so (2013.1, Build901 2013/11/27)

>  <Rbt.Parameter_File>
/export/apps/rDock/src/rDock_2013.1_src/data/scripts/dock_solv.prm

>  <Rbt.Receptor>
prm/pocket_docking_7.prm

>  <SCORE>
-8.60493

>  <SCORE.INTER>
-8.60493

>  <SCORE.INTER.CONST>
1

>  <SCORE.INTER.POLAR>
0

>  <SCORE.INTER.ROT>
0

>  <SCORE.INTER.SOLV>
8.26436

>  <SCORE.INTER.VDW>
-12.0914

>  <SCORE.INTER.norm>
-1.07562

>  <SCORE.INTRA>
0

>  <SCORE.INTRA.DIHEDRAL>
0

>  <SCORE.INTRA.DIHEDRAL.0>
0

>  <SCORE.INTRA.POLAR>
0

>  <SCORE.INTRA.POLAR.0>
0

>  <SCORE.INTRA.REPUL>
0

>  <SCORE.INTRA.REPUL.0>
0

>  <SCORE.INTRA.SOLV>
0

>  <SCORE.INTRA.SOLV.lig_0>
-29.58

>  <SCORE.INTRA.VDW>
0

>  <SCORE.INTRA.VDW.0>
0

>  <SCORE.INTRA.norm>
0

>  <SCORE.RESTR>
0

>  <SCORE.RESTR.CAVITY>
0

>  <SCORE.RESTR.norm>
0

>  <SCORE.SYSTEM>
0

>  <SCORE.SYSTEM.CONST>
0

>  <SCORE.SYSTEM.DIHEDRAL>
0

>  <SCORE.SYSTEM.SOLV>
0

>  <SCORE.SYSTEM.norm>
0

>  <SCORE.heavy>
8

>  <SCORE.norm>
-1.07562

>  <RMSD>
3.533

$$$$
ligand
 OpenBabel02271912143D
libRbt.so/2013.1/901 2013/11/27
  8  8  0  0  0  0  0  0  0  0999 V2000
   10.1901    9.4863   -1.4386 C   0  0  0  0  0  0  0  0  0  0  0  0
   10.2305    9.9782   -0.2005 N   0  0  0  0  0  0  0  0  0  0  0  0
   10.0911   11.2923   -0.0063 C   0  0  0  0  0  0  0  0  0  0  0  0
    9.8940   12.1195   -1.0593 N   0  0  0  0  0  0  0  0  0  0  0  0
    9.8611   11.6122   -2.3031 C   0  0  0  0  0  0  0  0  0  0  0  0
   10.0046   10.2921   -2.4974 N   0  0  0  0  0  0  0  0  0  0  0  0
   10.1441   11.8035    1.3796 N   0  0  0  0  0  0  0  0  0  0  0  0
   10.3339    8.1502   -1.5953 O   0  0  0  0  0  0  0  0  0  0  0  0
  1  2  1  0  0  0  0
  1  6  1  0  0  0  0
  1  8  2  0  0  0  0
  2  3  1  0  0  0  0
  3  4  2  0  0  0  0
  3  7  1  0  0  0  0
  4  5  1  0  0  0  0
  5  6  2  0  0  0  0
M  END
>  <CHROM.1>
10.10066738,10.53538756,-0.96096765,-1.26534784,-1.42493247,0.96761760

>  <Name>
ligand

>  <RI>
0

>  <Rbt.Current_Directory>
/home/itssahil/PROJECTS/Mol_Feturizer/Test_systems_manuscript/rnas/3la5

>  <Rbt.Executable>
rbdock ($Id: //depot/dev/client3/rdock/2013.1/src/exe/rbdock.cxx#4 $)

>  <Rbt.Library>
libRbt.so (2013.1, Build901 2013/11/27)

>  <Rbt.Parameter_File>
/export/apps/rDock/src/rDock_2013.1_src/data/scripts/dock_solv.prm

>  <Rbt.Receptor>
prm/blind_docking_20.prm

>  <SCORE>
-8.31681

>  <SCORE.INTER>
-8.31681

>  <SCORE.INTER.CONST>
1

>  <SCORE.INTER.POLAR>
0

>  <SCORE.INTER.ROT>
0

>  <SCORE.INTER.SOLV>
7.83881

>  <SCORE.INTER.VDW>
-11.7575

>  <SCORE.INTER.norm>
-1.0396

>  <SCORE.INTRA>
0

>  <SCORE.INTRA.DIHEDRAL>
0

>  <SCORE.INTRA.DIHEDRAL.0>
0

>  <SCORE.INTRA.POLAR>
0

>  <SCORE.INTRA.POLAR.0>
0

>  <SCORE.INTRA.REPUL>
0

>  <SCORE.INTRA.REPUL.0>
0

>  <SCORE.INTRA.SOLV>
0

>  <SCORE.INTRA.SOLV.lig_0>
-29.58

>  <SCORE.INTRA.VDW>
0

>  <SCORE.INTRA.VDW.0>
0

>  <SCORE.INTRA.norm>
0

>  <SCORE.RESTR>
0

>  <SCORE.RESTR.CAVITY>
0

>  <SCORE.RESTR.norm>
0

>  <SCORE.SYSTEM>
0

>  <SCORE.SYSTEM.CONST>
0

>  <SCORE.SYSTEM.DIHEDRAL>
0

>  <SCORE.SYSTEM.SOLV>
0

>  <SCORE.SYSTEM.norm>
0

>  <SCORE.heavy>
8

>  <SCORE.norm>
-1.0396

>  <RMSD>
3.534

$$$$
ligand
 OpenBabel02271912143D
libRbt.so/2013.1/901 2013/11/27
  8  8  0  0  0  0  0  0  0  0999 V2000
   10.1873    9.5063   -1.4557 C   0  0  0  0  0  0  0  0  0  0  0  0
   10.2436    9.9986   -0.2184 N   0  0  0  0  0  0  0  0  0  0  0  0
   10.1089   11.3130   -0.0231 C   0  0  0  0  0  0  0  0  0  0  0  0
    9.9006   12.1402   -1.0740 N   0  0  0  0  0  0  0  0  0  0  0  0
    9.8518   11.6324   -2.3170 C   0  0  0  0  0  0  0  0  0  0  0  0
    9.9906   10.3120   -2.5125 N   0  0  0  0  0  0  0  0  0  0  0  0
   10.1796   11.8247    1.3618 N   0  0  0  0  0  0  0  0  0  0  0  0
   10.3269    8.1699   -1.6136 O   0  0  0  0  0  0  0  0  0  0  0  0
  1  2  1  0  0  0  0
  1  6  1  0  0  0  0
  1  8  2  0  0  0  0
  2  3  1  0  0  0  0
  3  4  2  0  0  0  0
  3  7  1  0  0  0  0
  4  5  1  0  0  0  0
  5  6  2  0  0  0  0
M  END
>  <CHROM.1>
10.10560412,10.55572155,-0.97747593,-1.33804802,-1.41913139,0.89530723

>  <Name>
ligand

>  <RI>
0

>  <Rbt.Current_Directory>
/home/itssahil/PROJECTS/Mol_Feturizer/Test_systems_manuscript/rnas/3la5

>  <Rbt.Executable>
rbdock ($Id: //depot/dev/client3/rdock/2013.1/src/exe/rbdock.cxx#4 $)

>  <Rbt.Library>
libRbt.so (2013.1, Build901 2013/11/27)

>  <Rbt.Parameter_File>
/export/apps/rDock/src/rDock_2013.1_src/data/scripts/dock_solv.prm

>  <Rbt.Receptor>
prm/pocket_docking_5.prm

>  <SCORE>
-8.32541

>  <SCORE.INTER>
-8.32541

>  <SCORE.INTER.CONST>
1

>  <SCORE.INTER.POLAR>
0

>  <SCORE.INTER.ROT>
0

>  <SCORE.INTER.SOLV>
7.69674

>  <SCORE.INTER.VDW>
-11.7159

>  <SCORE.INTER.norm>
-1.04068

>  <SCORE.INTRA>
0

>  <SCORE.INTRA.DIHEDRAL>
0

>  <SCORE.INTRA.DIHEDRAL.0>
0

>  <SCORE.INTRA.POLAR>
0

>  <SCORE.INTRA.POLAR.0>
0

>  <SCORE.INTRA.REPUL>
0

>  <SCORE.INTRA.REPUL.0>
0

>  <SCORE.INTRA.SOLV>
0

>  <SCORE.INTRA.SOLV.lig_0>
-29.58

>  <SCORE.INTRA.VDW>
0

>  <SCORE.INTRA.VDW.0>
0

>  <SCORE.INTRA.norm>
0

>  <SCORE.RESTR>
0

>  <SCORE.RESTR.CAVITY>
0

>  <SCORE.RESTR.norm>
0

>  <SCORE.SYSTEM>
0

>  <SCORE.SYSTEM.CONST>
0

>  <SCORE.SYSTEM.DIHEDRAL>
0

>  <SCORE.SYSTEM.SOLV>
0

>  <SCORE.SYSTEM.norm>
0

>  <SCORE.heavy>
8

>  <SCORE.norm>
-1.04068

>  <RMSD>
3.534

$$$$
ligand
 OpenBabel02271912143D
libRbt.so/2013.1/901 2013/11/27
  8  8  0  0  0  0  0  0  0  0999 V2000
   10.1907    9.5044   -1.4543 C   0  0  0  0  0  0  0  0  0  0  0  0
   10.2460    9.9977   -0.2173 N   0  0  0  0  0  0  0  0  0  0  0  0
   10.1100   11.3121   -0.0230 C   0  0  0  0  0  0  0  0  0  0  0  0
    9.9015   12.1383   -1.0745 N   0  0  0  0  0  0  0  0  0  0  0  0
    9.8537   11.6297   -2.3173 C   0  0  0  0  0  0  0  0  0  0  0  0
    9.9937   10.3092   -2.5118 N   0  0  0  0  0  0  0  0  0  0  0  0
   10.1797   11.8248    1.3616 N   0  0  0  0  0  0  0  0  0  0  0  0
   10.3315    8.1680   -1.6112 O   0  0  0  0  0  0  0  0  0  0  0  0
  1  2  1  0  0  0  0
  1  6  1  0  0  0  0
  1  8  2  0  0  0  0
  2  3  1  0  0  0  0
  3  4  2  0  0  0  0
  3  7  1  0  0  0  0
  4  5  1  0  0  0  0
  5  6  2  0  0  0  0
M  END
>  <CHROM.1>
10.10783801,10.55411039,-0.97687284,-1.33213388,-1.41873088,0.90046697

>  <Name>
ligand

>  <RI>
0

>  <Rbt.Current_Directory>
/home/itssahil/PROJECTS/Mol_Feturizer/Test_systems_manuscript/rnas/3la5

>  <Rbt.Executable>
rbdock ($Id: //depot/dev/client3/rdock/2013.1/src/exe/rbdock.cxx#4 $)

>  <Rbt.Library>
libRbt.so (2013.1, Build901 2013/11/27)

>  <Rbt.Parameter_File>
/export/apps/rDock/src/rDock_2013.1_src/data/scripts/dock_solv.prm

>  <Rbt.Receptor>
prm/pocket_docking_7.prm

>  <SCORE>
-8.32339

>  <SCORE.INTER>
-8.32339

>  <SCORE.INTER.CONST>
1

>  <SCORE.INTER.POLAR>
0

>  <SCORE.INTER.ROT>
0

>  <SCORE.INTER.SOLV>
7.69798

>  <SCORE.INTER.VDW>
-11.7149

>  <SCORE.INTER.norm>
-1.04042

>  <SCORE.INTRA>
0

>  <SCORE.INTRA.DIHEDRAL>
0

>  <SCORE.INTRA.DIHEDRAL.0>
0

>  <SCORE.INTRA.POLAR>
0

>  <SCORE.INTRA.POLAR.0>
0

>  <SCORE.INTRA.REPUL>
0

>  <SCORE.INTRA.REPUL.0>
0

>  <SCORE.INTRA.SOLV>
0

>  <SCORE.INTRA.SOLV.lig_0>
-29.58

>  <SCORE.INTRA.VDW>
0

>  <SCORE.INTRA.VDW.0>
0

>  <SCORE.INTRA.norm>
0

>  <SCORE.RESTR>
0

>  <SCORE.RESTR.CAVITY>
0

>  <SCORE.RESTR.norm>
0

>  <SCORE.SYSTEM>
0

>  <SCORE.SYSTEM.CONST>
0

>  <SCORE.SYSTEM.DIHEDRAL>
0

>  <SCORE.SYSTEM.SOLV>
0

>  <SCORE.SYSTEM.norm>
0

>  <SCORE.heavy>
8

>  <SCORE.norm>
-1.04042

>  <RMSD>
3.534

$$$$
ligand
 OpenBabel02271912143D
libRbt.so/2013.1/901 2013/11/27
  8  8  0  0  0  0  0  0  0  0999 V2000
    9.1955   10.0182   -1.5464 C   0  0  0  0  0  0  0  0  0  0  0  0
    9.4042   10.3543   -0.2736 N   0  0  0  0  0  0  0  0  0  0  0  0
    9.9789   11.5248    0.0154 C   0  0  0  0  0  0  0  0  0  0  0  0
   10.3338   12.3733   -0.9776 N   0  0  0  0  0  0  0  0  0  0  0  0
   10.1236   12.0204   -2.2570 C   0  0  0  0  0  0  0  0  0  0  0  0
    9.5491   10.8426   -2.5464 N   0  0  0  0  0  0  0  0  0  0  0  0
   10.1978   11.8637    1.4374 N   0  0  0  0  0  0  0  0  0  0  0  0
    8.6101    8.8251   -1.7996 O   0  0  0  0  0  0  0  0  0  0  0  0
  1  2  1  0  0  0  0
  1  6  1  0  0  0  0
  1  8  2  0  0  0  0
  2  3  1  0  0  0  0
  3  4  2  0  0  0  0
  3  7  1  0  0  0  0
  4  5  1  0  0  0  0
  5  6  2  0  0  0  0
M  END
>  <CHROM.1>
9.64941010,10.92647448,-0.99342783,2.47915600,-1.12371739,-1.48602501

>  <Name>
ligand

>  <RI>
0

>  <Rbt.Current_Directory>
/home/itssahil/PROJECTS/Mol_Feturizer/Test_systems_manuscript/rnas/3la5

>  <Rbt.Executable>
rbdock ($Id: //depot/dev/client3/rdock/2013.1/src/exe/rbdock.cxx#4 $)

>  <Rbt.Library>
libRbt.so (2013.1, Build901 2013/11/27)

>  <Rbt.Parameter_File>
/export/apps/rDock/src/rDock_2013.1_src/data/scripts/dock_solv.prm

>  <Rbt.Receptor>
prm/pocket_docking_8.prm

>  <SCORE>
-8.60622

>  <SCORE.INTER>
-8.60622

>  <SCORE.INTER.CONST>
1

>  <SCORE.INTER.POLAR>
0

>  <SCORE.INTER.ROT>
0

>  <SCORE.INTER.SOLV>
8.25454

>  <SCORE.INTER.VDW>
-12.089

>  <SCORE.INTER.norm>
-1.07578

>  <SCORE.INTRA>
0

>  <SCORE.INTRA.DIHEDRAL>
0

>  <SCORE.INTRA.DIHEDRAL.0>
0

>  <SCORE.INTRA.POLAR>
0

>  <SCORE.INTRA.POLAR.0>
0

>  <SCORE.INTRA.REPUL>
0

>  <SCORE.INTRA.REPUL.0>
0

>  <SCORE.INTRA.SOLV>
0

>  <SCORE.INTRA.SOLV.lig_0>
-29.58

>  <SCORE.INTRA.VDW>
0

>  <SCORE.INTRA.VDW.0>
0

>  <SCORE.INTRA.norm>
0

>  <SCORE.RESTR>
0

>  <SCORE.RESTR.CAVITY>
0

>  <SCORE.RESTR.norm>
0

>  <SCORE.SYSTEM>
0

>  <SCORE.SYSTEM.CONST>
0

>  <SCORE.SYSTEM.DIHEDRAL>
0

>  <SCORE.SYSTEM.SOLV>
0

>  <SCORE.SYSTEM.norm>
0

>  <SCORE.heavy>
8

>  <SCORE.norm>
-1.07578

>  <RMSD>
3.534

$$$$
ligand
 OpenBabel02271912143D
libRbt.so/2013.1/901 2013/11/27
  8  8  0  0  0  0  0  0  0  0999 V2000
   10.2018    9.4916   -1.4538 C   0  0  0  0  0  0  0  0  0  0  0  0
   10.2478    9.9805   -0.2147 N   0  0  0  0  0  0  0  0  0  0  0  0
   10.0995   11.2928   -0.0158 C   0  0  0  0  0  0  0  0  0  0  0  0
    9.8880   12.1214   -1.0649 N   0  0  0  0  0  0  0  0  0  0  0  0
    9.8497   11.6173   -2.3098 C   0  0  0  0  0  0  0  0  0  0  0  0
   10.0021   10.2989   -2.5089 N   0  0  0  0  0  0  0  0  0  0  0  0
   10.1590   11.8006    1.3711 N   0  0  0  0  0  0  0  0  0  0  0  0
   10.3550    8.1572   -1.6154 O   0  0  0  0  0  0  0  0  0  0  0  0
  1  2  1  0  0  0  0
  1  6  1  0  0  0  0
  1  8  2  0  0  0  0
  2  3  1  0  0  0  0
  3  4  2  0  0  0  0
  3  7  1  0  0  0  0
  4  5  1  0  0  0  0
  5  6  2  0  0  0  0
M  END
>  <CHROM.1>
10.10780743,10.53868356,-0.97263252,-1.27676399,-1.41414438,0.95911757

>  <Name>
ligand

>  <RI>
0

>  <Rbt.Current_Directory>
/home/itssahil/PROJECTS/Mol_Feturizer/Test_systems_manuscript/rnas/3la5

>  <Rbt.Executable>
rbdock ($Id: //depot/dev/client3/rdock/2013.1/src/exe/rbdock.cxx#4 $)

>  <Rbt.Library>
libRbt.so (2013.1, Build901 2013/11/27)

>  <Rbt.Parameter_File>
/export/apps/rDock/src/rDock_2013.1_src/data/scripts/dock_solv.prm

>  <Rbt.Receptor>
prm/pocket_docking_8.prm

>  <SCORE>
-8.32293

>  <SCORE.INTER>
-8.32293

>  <SCORE.INTER.CONST>
1

>  <SCORE.INTER.POLAR>
0

>  <SCORE.INTER.ROT>
0

>  <SCORE.INTER.SOLV>
7.8122

>  <SCORE.INTER.VDW>
-11.7527

>  <SCORE.INTER.norm>
-1.04037

>  <SCORE.INTRA>
0

>  <SCORE.INTRA.DIHEDRAL>
0

>  <SCORE.INTRA.DIHEDRAL.0>
0

>  <SCORE.INTRA.POLAR>
0

>  <SCORE.INTRA.POLAR.0>
0

>  <SCORE.INTRA.REPUL>
0

>  <SCORE.INTRA.REPUL.0>
0

>  <SCORE.INTRA.SOLV>
0

>  <SCORE.INTRA.SOLV.lig_0>
-29.58

>  <SCORE.INTRA.VDW>
0

>  <SCORE.INTRA.VDW.0>
0

>  <SCORE.INTRA.norm>
0

>  <SCORE.RESTR>
0

>  <SCORE.RESTR.CAVITY>
0

>  <SCORE.RESTR.norm>
0

>  <SCORE.SYSTEM>
0

>  <SCORE.SYSTEM.CONST>
0

>  <SCORE.SYSTEM.DIHEDRAL>
0

>  <SCORE.SYSTEM.SOLV>
0

>  <SCORE.SYSTEM.norm>
0

>  <SCORE.heavy>
8

>  <SCORE.norm>
-1.04037

>  <RMSD>
3.535

$$$$
ligand
 OpenBabel02271912143D
libRbt.so/2013.1/901 2013/11/27
  8  8  0  0  0  0  0  0  0  0999 V2000
   10.1912    9.4902   -1.4508 C   0  0  0  0  0  0  0  0  0  0  0  0
   10.2429    9.9805   -0.2126 N   0  0  0  0  0  0  0  0  0  0  0  0
   10.1021   11.2940   -0.0151 C   0  0  0  0  0  0  0  0  0  0  0  0
    9.8922   12.1221   -1.0649 N   0  0  0  0  0  0  0  0  0  0  0  0
    9.8480   11.6164   -2.3090 C   0  0  0  0  0  0  0  0  0  0  0  0
    9.9929   10.2969   -2.5066 N   0  0  0  0  0  0  0  0  0  0  0  0
   10.1679   11.8034    1.3708 N   0  0  0  0  0  0  0  0  0  0  0  0
   10.3369    8.1547   -1.6109 O   0  0  0  0  0  0  0  0  0  0  0  0
  1  2  1  0  0  0  0
  1  6  1  0  0  0  0
  1  8  2  0  0  0  0
  2  3  1  0  0  0  0
  3  4  2  0  0  0  0
  3  7  1  0  0  0  0
  4  5  1  0  0  0  0
  5  6  2  0  0  0  0
M  END
>  <CHROM.1>
10.10395679,10.53838456,-0.97090419,-1.31051700,-1.41687902,0.92433183

>  <Name>
ligand

>  <RI>
0

>  <Rbt.Current_Directory>
/home/itssahil/PROJECTS/Mol_Feturizer/Test_systems_manuscript/rnas/3la5

>  <Rbt.Executable>
rbdock ($Id: //depot/dev/client3/rdock/2013.1/src/exe/rbdock.cxx#4 $)

>  <Rbt.Library>
libRbt.so (2013.1, Build901 2013/11/27)

>  <Rbt.Parameter_File>
/export/apps/rDock/src/rDock_2013.1_src/data/scripts/dock_solv.prm

>  <Rbt.Receptor>
prm/blind_docking_20.prm

>  <SCORE>
-8.33473

>  <SCORE.INTER>
-8.33473

>  <SCORE.INTER.CONST>
1

>  <SCORE.INTER.POLAR>
0

>  <SCORE.INTER.ROT>
0

>  <SCORE.INTER.SOLV>
7.79424

>  <SCORE.INTER.VDW>
-11.7546

>  <SCORE.INTER.norm>
-1.04184

>  <SCORE.INTRA>
0

>  <SCORE.INTRA.DIHEDRAL>
0

>  <SCORE.INTRA.DIHEDRAL.0>
0

>  <SCORE.INTRA.POLAR>
0

>  <SCORE.INTRA.POLAR.0>
0

>  <SCORE.INTRA.REPUL>
0

>  <SCORE.INTRA.REPUL.0>
0

>  <SCORE.INTRA.SOLV>
0

>  <SCORE.INTRA.SOLV.lig_0>
-29.58

>  <SCORE.INTRA.VDW>
0

>  <SCORE.INTRA.VDW.0>
0

>  <SCORE.INTRA.norm>
0

>  <SCORE.RESTR>
0

>  <SCORE.RESTR.CAVITY>
0

>  <SCORE.RESTR.norm>
0

>  <SCORE.SYSTEM>
0

>  <SCORE.SYSTEM.CONST>
0

>  <SCORE.SYSTEM.DIHEDRAL>
0

>  <SCORE.SYSTEM.SOLV>
0

>  <SCORE.SYSTEM.norm>
0

>  <SCORE.heavy>
8

>  <SCORE.norm>
-1.04184

>  <RMSD>
3.536

$$$$
ligand
 OpenBabel02271912143D
libRbt.so/2013.1/901 2013/11/27
  8  8  0  0  0  0  0  0  0  0999 V2000
   10.1965    9.4908   -1.4527 C   0  0  0  0  0  0  0  0  0  0  0  0
   10.2507    9.9814   -0.2146 N   0  0  0  0  0  0  0  0  0  0  0  0
   10.1052   11.2942   -0.0166 C   0  0  0  0  0  0  0  0  0  0  0  0
    9.8881   12.1215   -1.0656 N   0  0  0  0  0  0  0  0  0  0  0  0
    9.8415   11.6157   -2.3095 C   0  0  0  0  0  0  0  0  0  0  0  0
    9.9911   10.2968   -2.5077 N   0  0  0  0  0  0  0  0  0  0  0  0
   10.1739   11.8039    1.3691 N   0  0  0  0  0  0  0  0  0  0  0  0
   10.3471    8.1559   -1.6133 O   0  0  0  0  0  0  0  0  0  0  0  0
  1  2  1  0  0  0  0
  1  6  1  0  0  0  0
  1  8  2  0  0  0  0
  2  3  1  0  0  0  0
  3  4  2  0  0  0  0
  3  7  1  0  0  0  0
  4  5  1  0  0  0  0
  5  6  2  0  0  0  0
M  END
>  <CHROM.1>
10.10665765,10.53867074,-0.97239816,-1.31305082,-1.41143488,0.92185637

>  <Name>
ligand

>  <RI>
0

>  <Rbt.Current_Directory>
/home/itssahil/PROJECTS/Mol_Feturizer/Test_systems_manuscript/rnas/3la5

>  <Rbt.Executable>
rbdock ($Id: //depot/dev/client3/rdock/2013.1/src/exe/rbdock.cxx#4 $)

>  <Rbt.Library>
libRbt.so (2013.1, Build901 2013/11/27)

>  <Rbt.Parameter_File>
/export/apps/rDock/src/rDock_2013.1_src/data/scripts/dock_solv.prm

>  <Rbt.Receptor>
prm/pocket_docking_5.prm

>  <SCORE>
-8.33665

>  <SCORE.INTER>
-8.33665

>  <SCORE.INTER.CONST>
1

>  <SCORE.INTER.POLAR>
0

>  <SCORE.INTER.ROT>
0

>  <SCORE.INTER.SOLV>
7.78176

>  <SCORE.INTER.VDW>
-11.7517

>  <SCORE.INTER.norm>
-1.04208

>  <SCORE.INTRA>
0

>  <SCORE.INTRA.DIHEDRAL>
0

>  <SCORE.INTRA.DIHEDRAL.0>
0

>  <SCORE.INTRA.POLAR>
0

>  <SCORE.INTRA.POLAR.0>
0

>  <SCORE.INTRA.REPUL>
0

>  <SCORE.INTRA.REPUL.0>
0

>  <SCORE.INTRA.SOLV>
0

>  <SCORE.INTRA.SOLV.lig_0>
-29.58

>  <SCORE.INTRA.VDW>
0

>  <SCORE.INTRA.VDW.0>
0

>  <SCORE.INTRA.norm>
0

>  <SCORE.RESTR>
0

>  <SCORE.RESTR.CAVITY>
0

>  <SCORE.RESTR.norm>
0

>  <SCORE.SYSTEM>
0

>  <SCORE.SYSTEM.CONST>
0

>  <SCORE.SYSTEM.DIHEDRAL>
0

>  <SCORE.SYSTEM.SOLV>
0

>  <SCORE.SYSTEM.norm>
0

>  <SCORE.heavy>
8

>  <SCORE.norm>
-1.04208

>  <RMSD>
3.536

$$$$
ligand
 OpenBabel02271912143D
libRbt.so/2013.1/901 2013/11/27
  8  8  0  0  0  0  0  0  0  0999 V2000
   10.1940    9.4854   -1.4419 C   0  0  0  0  0  0  0  0  0  0  0  0
   10.2438    9.9800   -0.2053 N   0  0  0  0  0  0  0  0  0  0  0  0
   10.0991   11.2937   -0.0123 C   0  0  0  0  0  0  0  0  0  0  0  0
    9.8873   12.1177   -1.0649 N   0  0  0  0  0  0  0  0  0  0  0  0
    9.8451   11.6077   -2.3073 C   0  0  0  0  0  0  0  0  0  0  0  0
    9.9939   10.2881   -2.5004 N   0  0  0  0  0  0  0  0  0  0  0  0
   10.1628   11.8079    1.3720 N   0  0  0  0  0  0  0  0  0  0  0  0
   10.3437    8.1498   -1.5974 O   0  0  0  0  0  0  0  0  0  0  0  0
  1  2  1  0  0  0  0
  1  6  1  0  0  0  0
  1  8  2  0  0  0  0
  2  3  1  0  0  0  0
  3  4  2  0  0  0  0
  3  7  1  0  0  0  0
  4  5  1  0  0  0  0
  5  6  2  0  0  0  0
M  END
>  <CHROM.1>
10.10355951,10.53492301,-0.96551749,-1.29687871,-1.41484506,0.93447862

>  <Name>
ligand

>  <RI>
0

>  <Rbt.Current_Directory>
/home/itssahil/PROJECTS/Mol_Feturizer/Test_systems_manuscript/rnas/3la5

>  <Rbt.Executable>
rbdock ($Id: //depot/dev/client3/rdock/2013.1/src/exe/rbdock.cxx#4 $)

>  <Rbt.Library>
libRbt.so (2013.1, Build901 2013/11/27)

>  <Rbt.Parameter_File>
/export/apps/rDock/src/rDock_2013.1_src/data/scripts/dock_solv.prm

>  <Rbt.Receptor>
prm/pocket_docking_6.prm

>  <SCORE>
-8.33153

>  <SCORE.INTER>
-8.33153

>  <SCORE.INTER.CONST>
1

>  <SCORE.INTER.POLAR>
0

>  <SCORE.INTER.ROT>
0

>  <SCORE.INTER.SOLV>
7.79556

>  <SCORE.INTER.VDW>
-11.7529

>  <SCORE.INTER.norm>
-1.04144

>  <SCORE.INTRA>
0

>  <SCORE.INTRA.DIHEDRAL>
0

>  <SCORE.INTRA.DIHEDRAL.0>
0

>  <SCORE.INTRA.POLAR>
0

>  <SCORE.INTRA.POLAR.0>
0

>  <SCORE.INTRA.REPUL>
0

>  <SCORE.INTRA.REPUL.0>
0

>  <SCORE.INTRA.SOLV>
0

>  <SCORE.INTRA.SOLV.lig_0>
-29.58

>  <SCORE.INTRA.VDW>
0

>  <SCORE.INTRA.VDW.0>
0

>  <SCORE.INTRA.norm>
0

>  <SCORE.RESTR>
0

>  <SCORE.RESTR.CAVITY>
0

>  <SCORE.RESTR.norm>
0

>  <SCORE.SYSTEM>
0

>  <SCORE.SYSTEM.CONST>
0

>  <SCORE.SYSTEM.DIHEDRAL>
0

>  <SCORE.SYSTEM.SOLV>
0

>  <SCORE.SYSTEM.norm>
0

>  <SCORE.heavy>
8

>  <SCORE.norm>
-1.04144

>  <RMSD>
3.536

$$$$
ligand
 OpenBabel02271912143D
libRbt.so/2013.1/901 2013/11/27
  8  8  0  0  0  0  0  0  0  0999 V2000
   10.1741    9.4963   -1.4611 C   0  0  0  0  0  0  0  0  0  0  0  0
   10.2649    9.9834   -0.2238 N   0  0  0  0  0  0  0  0  0  0  0  0
   10.1450   11.2980   -0.0203 C   0  0  0  0  0  0  0  0  0  0  0  0
    9.9167   12.1307   -1.0626 N   0  0  0  0  0  0  0  0  0  0  0  0
    9.8331   11.6282   -2.3059 C   0  0  0  0  0  0  0  0  0  0  0  0
    9.9571   10.3076   -2.5097 N   0  0  0  0  0  0  0  0  0  0  0  0
   10.2540   11.8037    1.3643 N   0  0  0  0  0  0  0  0  0  0  0  0
   10.2997    8.1595   -1.6274 O   0  0  0  0  0  0  0  0  0  0  0  0
  1  2  1  0  0  0  0
  1  6  1  0  0  0  0
  1  8  2  0  0  0  0
  2  3  1  0  0  0  0
  3  4  2  0  0  0  0
  3  7  1  0  0  0  0
  4  5  1  0  0  0  0
  5  6  2  0  0  0  0
M  END
>  <CHROM.1>
10.11220264,10.54446757,-0.97714654,-1.48717255,-1.40758929,0.75182370

>  <Name>
ligand

>  <RI>
0

>  <Rbt.Current_Directory>
/home/itssahil/PROJECTS/Mol_Feturizer/Test_systems_manuscript/rnas/3la5

>  <Rbt.Executable>
rbdock ($Id: //depot/dev/client3/rdock/2013.1/src/exe/rbdock.cxx#4 $)

>  <Rbt.Library>
libRbt.so (2013.1, Build901 2013/11/27)

>  <Rbt.Parameter_File>
/export/apps/rDock/src/rDock_2013.1_src/data/scripts/dock_solv.prm

>  <Rbt.Receptor>
prm/pocket_docking_5.prm

>  <SCORE>
-8.27648

>  <SCORE.INTER>
-8.27648

>  <SCORE.INTER.CONST>
1

>  <SCORE.INTER.POLAR>
0

>  <SCORE.INTER.ROT>
0

>  <SCORE.INTER.SOLV>
7.65463

>  <SCORE.INTER.VDW>
-11.6692

>  <SCORE.INTER.norm>
-1.03456

>  <SCORE.INTRA>
0

>  <SCORE.INTRA.DIHEDRAL>
0

>  <SCORE.INTRA.DIHEDRAL.0>
0

>  <SCORE.INTRA.POLAR>
0

>  <SCORE.INTRA.POLAR.0>
0

>  <SCORE.INTRA.REPUL>
0

>  <SCORE.INTRA.REPUL.0>
0

>  <SCORE.INTRA.SOLV>
0

>  <SCORE.INTRA.SOLV.lig_0>
-29.58

>  <SCORE.INTRA.VDW>
0

>  <SCORE.INTRA.VDW.0>
0

>  <SCORE.INTRA.norm>
0

>  <SCORE.RESTR>
0

>  <SCORE.RESTR.CAVITY>
0

>  <SCORE.RESTR.norm>
0

>  <SCORE.SYSTEM>
0

>  <SCORE.SYSTEM.CONST>
0

>  <SCORE.SYSTEM.DIHEDRAL>
0

>  <SCORE.SYSTEM.SOLV>
0

>  <SCORE.SYSTEM.norm>
0

>  <SCORE.heavy>
8

>  <SCORE.norm>
-1.03456

>  <RMSD>
3.538

$$$$
ligand
 OpenBabel02271912143D
libRbt.so/2013.1/901 2013/11/27
  8  8  0  0  0  0  0  0  0  0999 V2000
    9.1919   10.0201   -1.5574 C   0  0  0  0  0  0  0  0  0  0  0  0
    9.3925   10.3535   -0.2826 N   0  0  0  0  0  0  0  0  0  0  0  0
    9.9659   11.5230    0.0126 C   0  0  0  0  0  0  0  0  0  0  0  0
   10.3278   12.3733   -0.9763 N   0  0  0  0  0  0  0  0  0  0  0  0
   10.1258   12.0232   -2.2578 C   0  0  0  0  0  0  0  0  0  0  0  0
    9.5525   10.8463   -2.5534 N   0  0  0  0  0  0  0  0  0  0  0  0
   10.1758   11.8589    1.4367 N   0  0  0  0  0  0  0  0  0  0  0  0
    8.6074    8.8279   -1.8169 O   0  0  0  0  0  0  0  0  0  0  0  0
  1  2  1  0  0  0  0
  1  6  1  0  0  0  0
  1  8  2  0  0  0  0
  2  3  1  0  0  0  0
  3  4  2  0  0  0  0
  3  7  1  0  0  0  0
  4  5  1  0  0  0  0
  5  6  2  0  0  0  0
M  END
>  <CHROM.1>
9.64268610,10.92694214,-0.99959301,2.46399729,-1.12361942,-1.49764281

>  <Name>
ligand

>  <RI>
0

>  <Rbt.Current_Directory>
/home/itssahil/PROJECTS/Mol_Feturizer/Test_systems_manuscript/rnas/3la5

>  <Rbt.Executable>
rbdock ($Id: //depot/dev/client3/rdock/2013.1/src/exe/rbdock.cxx#4 $)

>  <Rbt.Library>
libRbt.so (2013.1, Build901 2013/11/27)

>  <Rbt.Parameter_File>
/export/apps/rDock/src/rDock_2013.1_src/data/scripts/dock_solv.prm

>  <Rbt.Receptor>
prm/pocket_docking_7.prm

>  <SCORE>
-8.61129

>  <SCORE.INTER>
-8.61129

>  <SCORE.INTER.CONST>
1

>  <SCORE.INTER.POLAR>
0

>  <SCORE.INTER.ROT>
0

>  <SCORE.INTER.SOLV>
8.26991

>  <SCORE.INTER.VDW>
-12.0975

>  <SCORE.INTER.norm>
-1.07641

>  <SCORE.INTRA>
0

>  <SCORE.INTRA.DIHEDRAL>
0

>  <SCORE.INTRA.DIHEDRAL.0>
0

>  <SCORE.INTRA.POLAR>
0

>  <SCORE.INTRA.POLAR.0>
0

>  <SCORE.INTRA.REPUL>
0

>  <SCORE.INTRA.REPUL.0>
0

>  <SCORE.INTRA.SOLV>
0

>  <SCORE.INTRA.SOLV.lig_0>
-29.58

>  <SCORE.INTRA.VDW>
0

>  <SCORE.INTRA.VDW.0>
0

>  <SCORE.INTRA.norm>
0

>  <SCORE.RESTR>
0

>  <SCORE.RESTR.CAVITY>
0

>  <SCORE.RESTR.norm>
0

>  <SCORE.SYSTEM>
0

>  <SCORE.SYSTEM.CONST>
0

>  <SCORE.SYSTEM.DIHEDRAL>
0

>  <SCORE.SYSTEM.SOLV>
0

>  <SCORE.SYSTEM.norm>
0

>  <SCORE.heavy>
8

>  <SCORE.norm>
-1.07641

>  <RMSD>
3.538

$$$$
ligand
 OpenBabel02271912143D
libRbt.so/2013.1/901 2013/11/27
  8  8  0  0  0  0  0  0  0  0999 V2000
   10.1619    9.4969   -1.4592 C   0  0  0  0  0  0  0  0  0  0  0  0
   10.2574    9.9830   -0.2219 N   0  0  0  0  0  0  0  0  0  0  0  0
   10.1440   11.2980   -0.0174 C   0  0  0  0  0  0  0  0  0  0  0  0
    9.9177   12.1323   -1.0588 N   0  0  0  0  0  0  0  0  0  0  0  0
    9.8293   11.6309   -2.3023 C   0  0  0  0  0  0  0  0  0  0  0  0
    9.9467   10.3098   -2.5070 N   0  0  0  0  0  0  0  0  0  0  0  0
   10.2581   11.8025    1.3672 N   0  0  0  0  0  0  0  0  0  0  0  0
   10.2809    8.1597   -1.6265 O   0  0  0  0  0  0  0  0  0  0  0  0
  1  2  1  0  0  0  0
  1  6  1  0  0  0  0
  1  8  2  0  0  0  0
  2  3  1  0  0  0  0
  3  4  2  0  0  0  0
  3  7  1  0  0  0  0
  4  5  1  0  0  0  0
  5  6  2  0  0  0  0
M  END
>  <CHROM.1>
10.10586437,10.54511293,-0.97458947,-1.51676169,-1.40933158,0.72314793

>  <Name>
ligand

>  <RI>
0

>  <Rbt.Current_Directory>
/home/itssahil/PROJECTS/Mol_Feturizer/Test_systems_manuscript/rnas/3la5

>  <Rbt.Executable>
rbdock ($Id: //depot/dev/client3/rdock/2013.1/src/exe/rbdock.cxx#4 $)

>  <Rbt.Library>
libRbt.so (2013.1, Build901 2013/11/27)

>  <Rbt.Parameter_File>
/export/apps/rDock/src/rDock_2013.1_src/data/scripts/dock_solv.prm

>  <Rbt.Receptor>
prm/pocket_docking_8.prm

>  <SCORE>
-8.27421

>  <SCORE.INTER>
-8.27421

>  <SCORE.INTER.CONST>
1

>  <SCORE.INTER.POLAR>
0

>  <SCORE.INTER.ROT>
0

>  <SCORE.INTER.SOLV>
7.66244

>  <SCORE.INTER.VDW>
-11.6703

>  <SCORE.INTER.norm>
-1.03428

>  <SCORE.INTRA>
0

>  <SCORE.INTRA.DIHEDRAL>
0

>  <SCORE.INTRA.DIHEDRAL.0>
0

>  <SCORE.INTRA.POLAR>
0

>  <SCORE.INTRA.POLAR.0>
0

>  <SCORE.INTRA.REPUL>
0

>  <SCORE.INTRA.REPUL.0>
0

>  <SCORE.INTRA.SOLV>
0

>  <SCORE.INTRA.SOLV.lig_0>
-29.58

>  <SCORE.INTRA.VDW>
0

>  <SCORE.INTRA.VDW.0>
0

>  <SCORE.INTRA.norm>
0

>  <SCORE.RESTR>
0

>  <SCORE.RESTR.CAVITY>
0

>  <SCORE.RESTR.norm>
0

>  <SCORE.SYSTEM>
0

>  <SCORE.SYSTEM.CONST>
0

>  <SCORE.SYSTEM.DIHEDRAL>
0

>  <SCORE.SYSTEM.SOLV>
0

>  <SCORE.SYSTEM.norm>
0

>  <SCORE.heavy>
8

>  <SCORE.norm>
-1.03428

>  <RMSD>
3.539

$$$$
ligand
 OpenBabel02271912143D
libRbt.so/2013.1/901 2013/11/27
  8  8  0  0  0  0  0  0  0  0999 V2000
   10.1660    9.4948   -1.4600 C   0  0  0  0  0  0  0  0  0  0  0  0
   10.2553    9.9816   -0.2225 N   0  0  0  0  0  0  0  0  0  0  0  0
   10.1490   11.2976   -0.0204 C   0  0  0  0  0  0  0  0  0  0  0  0
    9.9359   12.1322   -1.0644 N   0  0  0  0  0  0  0  0  0  0  0  0
    9.8537   11.6299   -2.3079 C   0  0  0  0  0  0  0  0  0  0  0  0
    9.9640   10.3078   -2.5103 N   0  0  0  0  0  0  0  0  0  0  0  0
   10.2559   11.8029    1.3645 N   0  0  0  0  0  0  0  0  0  0  0  0
   10.2776    8.1566   -1.6249 O   0  0  0  0  0  0  0  0  0  0  0  0
  1  2  1  0  0  0  0
  1  6  1  0  0  0  0
  1  8  2  0  0  0  0
  2  3  1  0  0  0  0
  3  4  2  0  0  0  0
  3  7  1  0  0  0  0
  4  5  1  0  0  0  0
  5  6  2  0  0  0  0
M  END
>  <CHROM.1>
10.11312905,10.54386321,-0.97699644,-1.51601656,-1.41929535,0.72274960

>  <Name>
ligand

>  <RI>
0

>  <Rbt.Current_Directory>
/home/itssahil/PROJECTS/Mol_Feturizer/Test_systems_manuscript/rnas/3la5

>  <Rbt.Executable>
rbdock ($Id: //depot/dev/client3/rdock/2013.1/src/exe/rbdock.cxx#4 $)

>  <Rbt.Library>
libRbt.so (2013.1, Build901 2013/11/27)

>  <Rbt.Parameter_File>
/export/apps/rDock/src/rDock_2013.1_src/data/scripts/dock_solv.prm

>  <Rbt.Receptor>
prm/pocket_docking_6.prm

>  <SCORE>
-8.27053

>  <SCORE.INTER>
-8.27053

>  <SCORE.INTER.CONST>
1

>  <SCORE.INTER.POLAR>
0

>  <SCORE.INTER.ROT>
0

>  <SCORE.INTER.SOLV>
7.65787

>  <SCORE.INTER.VDW>
-11.6663

>  <SCORE.INTER.norm>
-1.03382

>  <SCORE.INTRA>
0

>  <SCORE.INTRA.DIHEDRAL>
0

>  <SCORE.INTRA.DIHEDRAL.0>
0

>  <SCORE.INTRA.POLAR>
0

>  <SCORE.INTRA.POLAR.0>
0

>  <SCORE.INTRA.REPUL>
0

>  <SCORE.INTRA.REPUL.0>
0

>  <SCORE.INTRA.SOLV>
0

>  <SCORE.INTRA.SOLV.lig_0>
-29.58

>  <SCORE.INTRA.VDW>
0

>  <SCORE.INTRA.VDW.0>
0

>  <SCORE.INTRA.norm>
0

>  <SCORE.RESTR>
0

>  <SCORE.RESTR.CAVITY>
0

>  <SCORE.RESTR.norm>
0

>  <SCORE.SYSTEM>
0

>  <SCORE.SYSTEM.CONST>
0

>  <SCORE.SYSTEM.DIHEDRAL>
0

>  <SCORE.SYSTEM.SOLV>
0

>  <SCORE.SYSTEM.norm>
0

>  <SCORE.heavy>
8

>  <SCORE.norm>
-1.03382

>  <RMSD>
3.541

$$$$
ligand
 OpenBabel02271912143D
libRbt.so/2013.1/901 2013/11/27
  8  8  0  0  0  0  0  0  0  0999 V2000
   10.1746    9.4923   -1.4604 C   0  0  0  0  0  0  0  0  0  0  0  0
   10.2324    9.9792   -0.2211 N   0  0  0  0  0  0  0  0  0  0  0  0
   10.1064   11.2936   -0.0206 C   0  0  0  0  0  0  0  0  0  0  0  0
    9.9052   12.1265   -1.0684 N   0  0  0  0  0  0  0  0  0  0  0  0
    9.8548   11.6241   -2.3136 C   0  0  0  0  0  0  0  0  0  0  0  0
    9.9849   10.3036   -2.5142 N   0  0  0  0  0  0  0  0  0  0  0  0
   10.1785   11.7992    1.3665 N   0  0  0  0  0  0  0  0  0  0  0  0
   10.3053    8.1556   -1.6236 O   0  0  0  0  0  0  0  0  0  0  0  0
  1  2  1  0  0  0  0
  1  6  1  0  0  0  0
  1  8  2  0  0  0  0
  2  3  1  0  0  0  0
  3  4  2  0  0  0  0
  3  7  1  0  0  0  0
  4  5  1  0  0  0  0
  5  6  2  0  0  0  0
M  END
>  <CHROM.1>
10.09933718,10.54027413,-0.97807139,-1.35949246,-1.42533262,0.87818672

>  <Name>
ligand

>  <RI>
0

>  <Rbt.Current_Directory>
/home/itssahil/PROJECTS/Mol_Feturizer/Test_systems_manuscript/rnas/3la5

>  <Rbt.Executable>
rbdock ($Id: //depot/dev/client3/rdock/2013.1/src/exe/rbdock.cxx#4 $)

>  <Rbt.Library>
libRbt.so (2013.1, Build901 2013/11/27)

>  <Rbt.Parameter_File>
/export/apps/rDock/src/rDock_2013.1_src/data/scripts/dock_solv.prm

>  <Rbt.Receptor>
prm/blind_docking_80.prm

>  <SCORE>
-8.33539

>  <SCORE.INTER>
-8.33539

>  <SCORE.INTER.CONST>
1

>  <SCORE.INTER.POLAR>
0

>  <SCORE.INTER.ROT>
0

>  <SCORE.INTER.SOLV>
7.78578

>  <SCORE.INTER.VDW>
-11.7522

>  <SCORE.INTER.norm>
-1.04192

>  <SCORE.INTRA>
0

>  <SCORE.INTRA.DIHEDRAL>
0

>  <SCORE.INTRA.DIHEDRAL.0>
0

>  <SCORE.INTRA.POLAR>
0

>  <SCORE.INTRA.POLAR.0>
0

>  <SCORE.INTRA.REPUL>
0

>  <SCORE.INTRA.REPUL.0>
0

>  <SCORE.INTRA.SOLV>
0

>  <SCORE.INTRA.SOLV.lig_0>
-29.58

>  <SCORE.INTRA.VDW>
0

>  <SCORE.INTRA.VDW.0>
0

>  <SCORE.INTRA.norm>
0

>  <SCORE.RESTR>
0

>  <SCORE.RESTR.CAVITY>
0

>  <SCORE.RESTR.norm>
0

>  <SCORE.SYSTEM>
0

>  <SCORE.SYSTEM.CONST>
0

>  <SCORE.SYSTEM.DIHEDRAL>
0

>  <SCORE.SYSTEM.SOLV>
0

>  <SCORE.SYSTEM.norm>
0

>  <SCORE.heavy>
8

>  <SCORE.norm>
-1.04192

>  <RMSD>
3.542

$$$$
ligand
 OpenBabel02271912143D
libRbt.so/2013.1/901 2013/11/27
  8  8  0  0  0  0  0  0  0  0999 V2000
   10.1761    9.4827   -1.4471 C   0  0  0  0  0  0  0  0  0  0  0  0
   10.2402    9.9801   -0.2123 N   0  0  0  0  0  0  0  0  0  0  0  0
   10.1007   11.2946   -0.0209 C   0  0  0  0  0  0  0  0  0  0  0  0
    9.8797   12.1166   -1.0732 N   0  0  0  0  0  0  0  0  0  0  0  0
    9.8231   11.6038   -2.3139 C   0  0  0  0  0  0  0  0  0  0  0  0
    9.9666   10.2833   -2.5054 N   0  0  0  0  0  0  0  0  0  0  0  0
   10.1804   11.8120    1.3614 N   0  0  0  0  0  0  0  0  0  0  0  0
   10.3209    8.1464   -1.6010 O   0  0  0  0  0  0  0  0  0  0  0  0
  1  2  1  0  0  0  0
  1  6  1  0  0  0  0
  1  8  2  0  0  0  0
  2  3  1  0  0  0  0
  3  4  2  0  0  0  0
  3  7  1  0  0  0  0
  4  5  1  0  0  0  0
  5  6  2  0  0  0  0
M  END
>  <CHROM.1>
10.09321908,10.53358855,-0.97231765,-1.35943693,-1.41012270,0.87029233

>  <Name>
ligand

>  <RI>
0

>  <Rbt.Current_Directory>
/home/itssahil/PROJECTS/Mol_Feturizer/Test_systems_manuscript/rnas/3la5

>  <Rbt.Executable>
rbdock ($Id: //depot/dev/client3/rdock/2013.1/src/exe/rbdock.cxx#4 $)

>  <Rbt.Library>
libRbt.so (2013.1, Build901 2013/11/27)

>  <Rbt.Parameter_File>
/export/apps/rDock/src/rDock_2013.1_src/data/scripts/dock_solv.prm

>  <Rbt.Receptor>
prm/pocket_docking_5.prm

>  <SCORE>
-8.30453

>  <SCORE.INTER>
-8.30453

>  <SCORE.INTER.CONST>
1

>  <SCORE.INTER.POLAR>
0

>  <SCORE.INTER.ROT>
0

>  <SCORE.INTER.SOLV>
7.75583

>  <SCORE.INTER.VDW>
-11.7216

>  <SCORE.INTER.norm>
-1.03807

>  <SCORE.INTRA>
0

>  <SCORE.INTRA.DIHEDRAL>
0

>  <SCORE.INTRA.DIHEDRAL.0>
0

>  <SCORE.INTRA.POLAR>
0

>  <SCORE.INTRA.POLAR.0>
0

>  <SCORE.INTRA.REPUL>
0

>  <SCORE.INTRA.REPUL.0>
0

>  <SCORE.INTRA.SOLV>
0

>  <SCORE.INTRA.SOLV.lig_0>
-29.58

>  <SCORE.INTRA.VDW>
0

>  <SCORE.INTRA.VDW.0>
0

>  <SCORE.INTRA.norm>
0

>  <SCORE.RESTR>
0

>  <SCORE.RESTR.CAVITY>
0

>  <SCORE.RESTR.norm>
0

>  <SCORE.SYSTEM>
0

>  <SCORE.SYSTEM.CONST>
0

>  <SCORE.SYSTEM.DIHEDRAL>
0

>  <SCORE.SYSTEM.SOLV>
0

>  <SCORE.SYSTEM.norm>
0

>  <SCORE.heavy>
8

>  <SCORE.norm>
-1.03807

>  <RMSD>
3.543

$$$$
ligand
 OpenBabel02271912143D
libRbt.so/2013.1/901 2013/11/27
  8  8  0  0  0  0  0  0  0  0999 V2000
   10.1920    9.4893   -1.4606 C   0  0  0  0  0  0  0  0  0  0  0  0
   10.2489    9.9814   -0.2232 N   0  0  0  0  0  0  0  0  0  0  0  0
   10.1127   11.2955   -0.0273 C   0  0  0  0  0  0  0  0  0  0  0  0
    9.9022   12.1227   -1.0777 N   0  0  0  0  0  0  0  0  0  0  0  0
    9.8527   11.6153   -2.3209 C   0  0  0  0  0  0  0  0  0  0  0  0
    9.9930   10.2952   -2.5169 N   0  0  0  0  0  0  0  0  0  0  0  0
   10.1841   11.8068    1.3577 N   0  0  0  0  0  0  0  0  0  0  0  0
   10.3331    8.1532   -1.6191 O   0  0  0  0  0  0  0  0  0  0  0  0
  1  2  1  0  0  0  0
  1  6  1  0  0  0  0
  1  8  2  0  0  0  0
  2  3  1  0  0  0  0
  3  4  2  0  0  0  0
  3  7  1  0  0  0  0
  4  5  1  0  0  0  0
  5  6  2  0  0  0  0
M  END
>  <CHROM.1>
10.10934930,10.53852072,-0.98195931,-1.33806400,-1.41747218,0.89563073

>  <Name>
ligand

>  <RI>
0

>  <Rbt.Current_Directory>
/home/itssahil/PROJECTS/Mol_Feturizer/Test_systems_manuscript/rnas/3la5

>  <Rbt.Executable>
rbdock ($Id: //depot/dev/client3/rdock/2013.1/src/exe/rbdock.cxx#4 $)

>  <Rbt.Library>
libRbt.so (2013.1, Build901 2013/11/27)

>  <Rbt.Parameter_File>
/export/apps/rDock/src/rDock_2013.1_src/data/scripts/dock_solv.prm

>  <Rbt.Receptor>
prm/pocket_docking_6.prm

>  <SCORE>
-8.3371

>  <SCORE.INTER>
-8.3371

>  <SCORE.INTER.CONST>
1

>  <SCORE.INTER.POLAR>
0

>  <SCORE.INTER.ROT>
0

>  <SCORE.INTER.SOLV>
7.75266

>  <SCORE.INTER.VDW>
-11.7423

>  <SCORE.INTER.norm>
-1.04214

>  <SCORE.INTRA>
0

>  <SCORE.INTRA.DIHEDRAL>
0

>  <SCORE.INTRA.DIHEDRAL.0>
0

>  <SCORE.INTRA.POLAR>
0

>  <SCORE.INTRA.POLAR.0>
0

>  <SCORE.INTRA.REPUL>
0

>  <SCORE.INTRA.REPUL.0>
0

>  <SCORE.INTRA.SOLV>
0

>  <SCORE.INTRA.SOLV.lig_0>
-29.58

>  <SCORE.INTRA.VDW>
0

>  <SCORE.INTRA.VDW.0>
0

>  <SCORE.INTRA.norm>
0

>  <SCORE.RESTR>
0

>  <SCORE.RESTR.CAVITY>
0

>  <SCORE.RESTR.norm>
0

>  <SCORE.SYSTEM>
0

>  <SCORE.SYSTEM.CONST>
0

>  <SCORE.SYSTEM.DIHEDRAL>
0

>  <SCORE.SYSTEM.SOLV>
0

>  <SCORE.SYSTEM.norm>
0

>  <SCORE.heavy>
8

>  <SCORE.norm>
-1.04214

>  <RMSD>
3.543

$$$$
ligand
 OpenBabel02271912143D
libRbt.so/2013.1/901 2013/11/27
  8  8  0  0  0  0  0  0  0  0999 V2000
   10.1735    9.4753   -1.4387 C   0  0  0  0  0  0  0  0  0  0  0  0
   10.2401    9.9800   -0.2069 N   0  0  0  0  0  0  0  0  0  0  0  0
   10.1018   11.2956   -0.0231 C   0  0  0  0  0  0  0  0  0  0  0  0
    9.8795   12.1116   -1.0798 N   0  0  0  0  0  0  0  0  0  0  0  0
    9.8204   11.5914   -2.3173 C   0  0  0  0  0  0  0  0  0  0  0  0
    9.9628   10.2697   -2.5013 N   0  0  0  0  0  0  0  0  0  0  0  0
   10.1843   11.8212    1.3560 N   0  0  0  0  0  0  0  0  0  0  0  0
   10.3171    8.1379   -1.5849 O   0  0  0  0  0  0  0  0  0  0  0  0
  1  2  1  0  0  0  0
  1  6  1  0  0  0  0
  1  8  2  0  0  0  0
  2  3  1  0  0  0  0
  3  4  2  0  0  0  0
  3  7  1  0  0  0  0
  4  5  1  0  0  0  0
  5  6  2  0  0  0  0
M  END
>  <CHROM.1>
10.09217809,10.52899900,-0.96994953,-1.37037655,-1.40950536,0.85358183

>  <Name>
ligand

>  <RI>
0

>  <Rbt.Current_Directory>
/home/itssahil/PROJECTS/Mol_Feturizer/Test_systems_manuscript/rnas/3la5

>  <Rbt.Executable>
rbdock ($Id: //depot/dev/client3/rdock/2013.1/src/exe/rbdock.cxx#4 $)

>  <Rbt.Library>
libRbt.so (2013.1, Build901 2013/11/27)

>  <Rbt.Parameter_File>
/export/apps/rDock/src/rDock_2013.1_src/data/scripts/dock_solv.prm

>  <Rbt.Receptor>
prm/blind_docking_60.prm

>  <SCORE>
-8.30423

>  <SCORE.INTER>
-8.30423

>  <SCORE.INTER.CONST>
1

>  <SCORE.INTER.POLAR>
0

>  <SCORE.INTER.ROT>
0

>  <SCORE.INTER.SOLV>
7.72966

>  <SCORE.INTER.VDW>
-11.7127

>  <SCORE.INTER.norm>
-1.03803

>  <SCORE.INTRA>
0

>  <SCORE.INTRA.DIHEDRAL>
0

>  <SCORE.INTRA.DIHEDRAL.0>
0

>  <SCORE.INTRA.POLAR>
0

>  <SCORE.INTRA.POLAR.0>
0

>  <SCORE.INTRA.REPUL>
0

>  <SCORE.INTRA.REPUL.0>
0

>  <SCORE.INTRA.SOLV>
0

>  <SCORE.INTRA.SOLV.lig_0>
-29.58

>  <SCORE.INTRA.VDW>
0

>  <SCORE.INTRA.VDW.0>
0

>  <SCORE.INTRA.norm>
0

>  <SCORE.RESTR>
0

>  <SCORE.RESTR.CAVITY>
0

>  <SCORE.RESTR.norm>
0

>  <SCORE.SYSTEM>
0

>  <SCORE.SYSTEM.CONST>
0

>  <SCORE.SYSTEM.DIHEDRAL>
0

>  <SCORE.SYSTEM.SOLV>
0

>  <SCORE.SYSTEM.norm>
0

>  <SCORE.heavy>
8

>  <SCORE.norm>
-1.03803

>  <RMSD>
3.546

$$$$
ligand
 OpenBabel02271912143D
libRbt.so/2013.1/901 2013/11/27
  8  8  0  0  0  0  0  0  0  0999 V2000
   10.1782    9.4862   -1.4607 C   0  0  0  0  0  0  0  0  0  0  0  0
   10.2433    9.9807   -0.2247 N   0  0  0  0  0  0  0  0  0  0  0  0
   10.1064   11.2949   -0.0303 C   0  0  0  0  0  0  0  0  0  0  0  0
    9.8869   12.1199   -1.0807 N   0  0  0  0  0  0  0  0  0  0  0  0
    9.8292   11.6100   -2.3225 C   0  0  0  0  0  0  0  0  0  0  0  0
    9.9703   10.2897   -2.5171 N   0  0  0  0  0  0  0  0  0  0  0  0
   10.1870   11.8090    1.3532 N   0  0  0  0  0  0  0  0  0  0  0  0
   10.3204    8.1500   -1.6178 O   0  0  0  0  0  0  0  0  0  0  0  0
  1  2  1  0  0  0  0
  1  6  1  0  0  0  0
  1  8  2  0  0  0  0
  2  3  1  0  0  0  0
  3  4  2  0  0  0  0
  3  7  1  0  0  0  0
  4  5  1  0  0  0  0
  5  6  2  0  0  0  0
M  END
>  <CHROM.1>
10.09736887,10.53616631,-0.98348192,-1.36732294,-1.41157257,0.86485719

>  <Name>
ligand

>  <RI>
0

>  <Rbt.Current_Directory>
/home/itssahil/PROJECTS/Mol_Feturizer/Test_systems_manuscript/rnas/3la5

>  <Rbt.Executable>
rbdock ($Id: //depot/dev/client3/rdock/2013.1/src/exe/rbdock.cxx#4 $)

>  <Rbt.Library>
libRbt.so (2013.1, Build901 2013/11/27)

>  <Rbt.Parameter_File>
/export/apps/rDock/src/rDock_2013.1_src/data/scripts/dock_solv.prm

>  <Rbt.Receptor>
prm/blind_docking_40.prm

>  <SCORE>
-8.30541

>  <SCORE.INTER>
-8.30541

>  <SCORE.INTER.CONST>
1

>  <SCORE.INTER.POLAR>
0

>  <SCORE.INTER.ROT>
0

>  <SCORE.INTER.SOLV>
7.74426

>  <SCORE.INTER.VDW>
-11.7184

>  <SCORE.INTER.norm>
-1.03818

>  <SCORE.INTRA>
0

>  <SCORE.INTRA.DIHEDRAL>
0

>  <SCORE.INTRA.DIHEDRAL.0>
0

>  <SCORE.INTRA.POLAR>
0

>  <SCORE.INTRA.POLAR.0>
0

>  <SCORE.INTRA.REPUL>
0

>  <SCORE.INTRA.REPUL.0>
0

>  <SCORE.INTRA.SOLV>
0

>  <SCORE.INTRA.SOLV.lig_0>
-29.58

>  <SCORE.INTRA.VDW>
0

>  <SCORE.INTRA.VDW.0>
0

>  <SCORE.INTRA.norm>
0

>  <SCORE.RESTR>
0

>  <SCORE.RESTR.CAVITY>
0

>  <SCORE.RESTR.norm>
0

>  <SCORE.SYSTEM>
0

>  <SCORE.SYSTEM.CONST>
0

>  <SCORE.SYSTEM.DIHEDRAL>
0

>  <SCORE.SYSTEM.SOLV>
0

>  <SCORE.SYSTEM.norm>
0

>  <SCORE.heavy>
8

>  <SCORE.norm>
-1.03818

>  <RMSD>
3.547

$$$$
ligand
 OpenBabel02271912143D
libRbt.so/2013.1/901 2013/11/27
  8  8  0  0  0  0  0  0  0  0999 V2000
   10.1614    9.4864   -1.4595 C   0  0  0  0  0  0  0  0  0  0  0  0
   10.2312    9.9783   -0.2227 N   0  0  0  0  0  0  0  0  0  0  0  0
   10.0988   11.2927   -0.0255 C   0  0  0  0  0  0  0  0  0  0  0  0
    9.8792   12.1202   -1.0738 N   0  0  0  0  0  0  0  0  0  0  0  0
    9.8168   11.6128   -2.3164 C   0  0  0  0  0  0  0  0  0  0  0  0
    9.9533   10.2925   -2.5138 N   0  0  0  0  0  0  0  0  0  0  0  0
   10.1847   11.8039    1.3587 N   0  0  0  0  0  0  0  0  0  0  0  0
   10.2991    8.1500   -1.6193 O   0  0  0  0  0  0  0  0  0  0  0  0
  1  2  1  0  0  0  0
  1  6  1  0  0  0  0
  1  8  2  0  0  0  0
  2  3  1  0  0  0  0
  3  4  2  0  0  0  0
  3  7  1  0  0  0  0
  4  5  1  0  0  0  0
  5  6  2  0  0  0  0
M  END
>  <CHROM.1>
10.08504235,10.53567071,-0.98005995,-1.39247241,-1.41221174,0.84186445

>  <Name>
ligand

>  <RI>
0

>  <Rbt.Current_Directory>
/home/itssahil/PROJECTS/Mol_Feturizer/Test_systems_manuscript/rnas/3la5

>  <Rbt.Executable>
rbdock ($Id: //depot/dev/client3/rdock/2013.1/src/exe/rbdock.cxx#4 $)

>  <Rbt.Library>
libRbt.so (2013.1, Build901 2013/11/27)

>  <Rbt.Parameter_File>
/export/apps/rDock/src/rDock_2013.1_src/data/scripts/dock_solv.prm

>  <Rbt.Receptor>
prm/pocket_docking_6.prm

>  <SCORE>
-8.29681

>  <SCORE.INTER>
-8.29681

>  <SCORE.INTER.CONST>
1

>  <SCORE.INTER.POLAR>
0

>  <SCORE.INTER.ROT>
0

>  <SCORE.INTER.SOLV>
7.76664

>  <SCORE.INTER.VDW>
-11.7201

>  <SCORE.INTER.norm>
-1.0371

>  <SCORE.INTRA>
0

>  <SCORE.INTRA.DIHEDRAL>
0

>  <SCORE.INTRA.DIHEDRAL.0>
0

>  <SCORE.INTRA.POLAR>
0

>  <SCORE.INTRA.POLAR.0>
0

>  <SCORE.INTRA.REPUL>
0

>  <SCORE.INTRA.REPUL.0>
0

>  <SCORE.INTRA.SOLV>
0

>  <SCORE.INTRA.SOLV.lig_0>
-29.58

>  <SCORE.INTRA.VDW>
0

>  <SCORE.INTRA.VDW.0>
0

>  <SCORE.INTRA.norm>
0

>  <SCORE.RESTR>
0

>  <SCORE.RESTR.CAVITY>
0

>  <SCORE.RESTR.norm>
0

>  <SCORE.SYSTEM>
0

>  <SCORE.SYSTEM.CONST>
0

>  <SCORE.SYSTEM.DIHEDRAL>
0

>  <SCORE.SYSTEM.SOLV>
0

>  <SCORE.SYSTEM.norm>
0

>  <SCORE.heavy>
8

>  <SCORE.norm>
-1.0371

>  <RMSD>
3.547

$$$$
ligand
 OpenBabel02271912143D
libRbt.so/2013.1/901 2013/11/27
  8  8  0  0  0  0  0  0  0  0999 V2000
   10.1835    9.5050   -1.4629 C   0  0  0  0  0  0  0  0  0  0  0  0
   10.2845   10.0250   -0.2399 N   0  0  0  0  0  0  0  0  0  0  0  0
   10.1607   11.3440   -0.0700 C   0  0  0  0  0  0  0  0  0  0  0  0
    9.9182   12.1479   -1.1316 N   0  0  0  0  0  0  0  0  0  0  0  0
    9.8244   11.6123   -2.3603 C   0  0  0  0  0  0  0  0  0  0  0  0
    9.9523   10.2873   -2.5303 N   0  0  0  0  0  0  0  0  0  0  0  0
   10.2813   11.8867    1.2996 N   0  0  0  0  0  0  0  0  0  0  0  0
   10.3135    8.1648   -1.5951 O   0  0  0  0  0  0  0  0  0  0  0  0
  1  2  1  0  0  0  0
  1  6  1  0  0  0  0
  1  8  2  0  0  0  0
  2  3  1  0  0  0  0
  3  4  2  0  0  0  0
  3  7  1  0  0  0  0
  4  5  1  0  0  0  0
  5  6  2  0  0  0  0
M  END
>  <CHROM.1>
10.12171808,10.56529005,-1.00621486,-1.50777066,-1.39716620,0.70507438

>  <Name>
ligand

>  <RI>
0

>  <Rbt.Current_Directory>
/home/itssahil/PROJECTS/Mol_Feturizer/Test_systems_manuscript/rnas/3la5

>  <Rbt.Executable>
rbdock ($Id: //depot/dev/client3/rdock/2013.1/src/exe/rbdock.cxx#4 $)

>  <Rbt.Library>
libRbt.so (2013.1, Build901 2013/11/27)

>  <Rbt.Parameter_File>
/export/apps/rDock/src/rDock_2013.1_src/data/scripts/dock_solv.prm

>  <Rbt.Receptor>
prm/blind_docking_20.prm

>  <SCORE>
-8.29455

>  <SCORE.INTER>
-8.29455

>  <SCORE.INTER.CONST>
1

>  <SCORE.INTER.POLAR>
0

>  <SCORE.INTER.ROT>
0

>  <SCORE.INTER.SOLV>
7.49654

>  <SCORE.INTER.VDW>
-11.6285

>  <SCORE.INTER.norm>
-1.03682

>  <SCORE.INTRA>
0

>  <SCORE.INTRA.DIHEDRAL>
0

>  <SCORE.INTRA.DIHEDRAL.0>
0

>  <SCORE.INTRA.POLAR>
0

>  <SCORE.INTRA.POLAR.0>
0

>  <SCORE.INTRA.REPUL>
0

>  <SCORE.INTRA.REPUL.0>
0

>  <SCORE.INTRA.SOLV>
0

>  <SCORE.INTRA.SOLV.lig_0>
-29.58

>  <SCORE.INTRA.VDW>
0

>  <SCORE.INTRA.VDW.0>
0

>  <SCORE.INTRA.norm>
0

>  <SCORE.RESTR>
0

>  <SCORE.RESTR.CAVITY>
0

>  <SCORE.RESTR.norm>
0

>  <SCORE.SYSTEM>
0

>  <SCORE.SYSTEM.CONST>
0

>  <SCORE.SYSTEM.DIHEDRAL>
0

>  <SCORE.SYSTEM.SOLV>
0

>  <SCORE.SYSTEM.norm>
0

>  <SCORE.heavy>
8

>  <SCORE.norm>
-1.03682

>  <RMSD>
3.552

$$$$
ligand
 OpenBabel02271912143D
libRbt.so/2013.1/901 2013/11/27
  8  8  0  0  0  0  0  0  0  0999 V2000
   10.1859    9.4880   -1.4593 C   0  0  0  0  0  0  0  0  0  0  0  0
   10.2949   10.0117   -0.2386 N   0  0  0  0  0  0  0  0  0  0  0  0
   10.1606   11.3298   -0.0702 C   0  0  0  0  0  0  0  0  0  0  0  0
    9.8995   12.1291   -1.1308 N   0  0  0  0  0  0  0  0  0  0  0  0
    9.7977   11.5899   -2.3573 C   0  0  0  0  0  0  0  0  0  0  0  0
    9.9361   10.2657   -2.5259 N   0  0  0  0  0  0  0  0  0  0  0  0
   10.2906   11.8766    1.2969 N   0  0  0  0  0  0  0  0  0  0  0  0
   10.3269    8.1488   -1.5900 O   0  0  0  0  0  0  0  0  0  0  0  0
  1  2  1  0  0  0  0
  1  6  1  0  0  0  0
  1  8  2  0  0  0  0
  2  3  1  0  0  0  0
  3  4  2  0  0  0  0
  3  7  1  0  0  0  0
  4  5  1  0  0  0  0
  5  6  2  0  0  0  0
M  END
>  <CHROM.1>
10.11900825,10.54867755,-1.00424405,-1.50638170,-1.38308664,0.70426078

>  <Name>
ligand

>  <RI>
0

>  <Rbt.Current_Directory>
/home/itssahil/PROJECTS/Mol_Feturizer/Test_systems_manuscript/rnas/3la5

>  <Rbt.Executable>
rbdock ($Id: //depot/dev/client3/rdock/2013.1/src/exe/rbdock.cxx#4 $)

>  <Rbt.Library>
libRbt.so (2013.1, Build901 2013/11/27)

>  <Rbt.Parameter_File>
/export/apps/rDock/src/rDock_2013.1_src/data/scripts/dock_solv.prm

>  <Rbt.Receptor>
prm/blind_docking_60.prm

>  <SCORE>
-8.29376

>  <SCORE.INTER>
-8.29376

>  <SCORE.INTER.CONST>
1

>  <SCORE.INTER.POLAR>
0

>  <SCORE.INTER.ROT>
0

>  <SCORE.INTER.SOLV>
7.51196

>  <SCORE.INTER.VDW>
-11.6332

>  <SCORE.INTER.norm>
-1.03672

>  <SCORE.INTRA>
0

>  <SCORE.INTRA.DIHEDRAL>
0

>  <SCORE.INTRA.DIHEDRAL.0>
0

>  <SCORE.INTRA.POLAR>
0

>  <SCORE.INTRA.POLAR.0>
0

>  <SCORE.INTRA.REPUL>
0

>  <SCORE.INTRA.REPUL.0>
0

>  <SCORE.INTRA.SOLV>
0

>  <SCORE.INTRA.SOLV.lig_0>
-29.58

>  <SCORE.INTRA.VDW>
0

>  <SCORE.INTRA.VDW.0>
0

>  <SCORE.INTRA.norm>
0

>  <SCORE.RESTR>
0

>  <SCORE.RESTR.CAVITY>
0

>  <SCORE.RESTR.norm>
0

>  <SCORE.SYSTEM>
0

>  <SCORE.SYSTEM.CONST>
0

>  <SCORE.SYSTEM.DIHEDRAL>
0

>  <SCORE.SYSTEM.SOLV>
0

>  <SCORE.SYSTEM.norm>
0

>  <SCORE.heavy>
8

>  <SCORE.norm>
-1.03672

>  <RMSD>
3.558

$$$$
ligand
 OpenBabel02271912143D
libRbt.so/2013.1/901 2013/11/27
  8  8  0  0  0  0  0  0  0  0999 V2000
   10.1789    9.4533   -1.4513 C   0  0  0  0  0  0  0  0  0  0  0  0
   10.2822    9.9568   -0.2216 N   0  0  0  0  0  0  0  0  0  0  0  0
   10.1470   11.2720   -0.0322 C   0  0  0  0  0  0  0  0  0  0  0  0
    9.8908   12.0886   -1.0808 N   0  0  0  0  0  0  0  0  0  0  0  0
    9.7948   11.5697   -2.3165 C   0  0  0  0  0  0  0  0  0  0  0  0
    9.9341   10.2484   -2.5061 N   0  0  0  0  0  0  0  0  0  0  0  0
   10.2706   11.7963    1.3442 N   0  0  0  0  0  0  0  0  0  0  0  0
   10.3207    8.1164   -1.6034 O   0  0  0  0  0  0  0  0  0  0  0  0
  1  2  1  0  0  0  0
  1  6  1  0  0  0  0
  1  8  2  0  0  0  0
  2  3  1  0  0  0  0
  3  4  2  0  0  0  0
  3  7  1  0  0  0  0
  4  5  1  0  0  0  0
  5  6  2  0  0  0  0
M  END
>  <CHROM.1>
10.10986815,10.50636516,-0.97920623,-1.48952784,-1.38658620,0.73725346

>  <Name>
ligand

>  <RI>
0

>  <Rbt.Current_Directory>
/home/itssahil/PROJECTS/Mol_Feturizer/Test_systems_manuscript/rnas/3la5

>  <Rbt.Executable>
rbdock ($Id: //depot/dev/client3/rdock/2013.1/src/exe/rbdock.cxx#4 $)

>  <Rbt.Library>
libRbt.so (2013.1, Build901 2013/11/27)

>  <Rbt.Parameter_File>
/export/apps/rDock/src/rDock_2013.1_src/data/scripts/dock_solv.prm

>  <Rbt.Receptor>
prm/pocket_docking_7.prm

>  <SCORE>
-8.28826

>  <SCORE.INTER>
-8.28826

>  <SCORE.INTER.CONST>
1

>  <SCORE.INTER.POLAR>
0

>  <SCORE.INTER.ROT>
0

>  <SCORE.INTER.SOLV>
7.68503

>  <SCORE.INTER.VDW>
-11.6872

>  <SCORE.INTER.norm>
-1.03603

>  <SCORE.INTRA>
0

>  <SCORE.INTRA.DIHEDRAL>
0

>  <SCORE.INTRA.DIHEDRAL.0>
0

>  <SCORE.INTRA.POLAR>
0

>  <SCORE.INTRA.POLAR.0>
0

>  <SCORE.INTRA.REPUL>
0

>  <SCORE.INTRA.REPUL.0>
0

>  <SCORE.INTRA.SOLV>
0

>  <SCORE.INTRA.SOLV.lig_0>
-29.58

>  <SCORE.INTRA.VDW>
0

>  <SCORE.INTRA.VDW.0>
0

>  <SCORE.INTRA.norm>
0

>  <SCORE.RESTR>
0

>  <SCORE.RESTR.CAVITY>
0

>  <SCORE.RESTR.norm>
0

>  <SCORE.SYSTEM>
0

>  <SCORE.SYSTEM.CONST>
0

>  <SCORE.SYSTEM.DIHEDRAL>
0

>  <SCORE.SYSTEM.SOLV>
0

>  <SCORE.SYSTEM.norm>
0

>  <SCORE.heavy>
8

>  <SCORE.norm>
-1.03603

>  <RMSD>
3.558

$$$$
ligand
 OpenBabel02271912143D
libRbt.so/2013.1/901 2013/11/27
  8  8  0  0  0  0  0  0  0  0999 V2000
   10.1642    9.4716   -1.4590 C   0  0  0  0  0  0  0  0  0  0  0  0
   10.2637    9.9782   -0.2302 N   0  0  0  0  0  0  0  0  0  0  0  0
   10.1376   11.2951   -0.0458 C   0  0  0  0  0  0  0  0  0  0  0  0
    9.8943   12.1103   -1.0985 N   0  0  0  0  0  0  0  0  0  0  0  0
    9.8021   11.5882   -2.3331 C   0  0  0  0  0  0  0  0  0  0  0  0
    9.9322   10.2653   -2.5178 N   0  0  0  0  0  0  0  0  0  0  0  0
   10.2566   11.8227    1.3298 N   0  0  0  0  0  0  0  0  0  0  0  0
   10.2964    8.1332   -1.6059 O   0  0  0  0  0  0  0  0  0  0  0  0
  1  2  1  0  0  0  0
  1  6  1  0  0  0  0
  1  8  2  0  0  0  0
  2  3  1  0  0  0  0
  3  4  2  0  0  0  0
  3  7  1  0  0  0  0
  4  5  1  0  0  0  0
  5  6  2  0  0  0  0
M  END
>  <CHROM.1>
10.10039836,10.52669728,-0.99059113,-1.49859089,-1.39646121,0.72519481

>  <Name>
ligand

>  <RI>
0

>  <Rbt.Current_Directory>
/home/itssahil/PROJECTS/Mol_Feturizer/Test_systems_manuscript/rnas/3la5

>  <Rbt.Executable>
rbdock ($Id: //depot/dev/client3/rdock/2013.1/src/exe/rbdock.cxx#4 $)

>  <Rbt.Library>
libRbt.so (2013.1, Build901 2013/11/27)

>  <Rbt.Parameter_File>
/export/apps/rDock/src/rDock_2013.1_src/data/scripts/dock_solv.prm

>  <Rbt.Receptor>
prm/pocket_docking_5.prm

>  <SCORE>
-8.29231

>  <SCORE.INTER>
-8.29231

>  <SCORE.INTER.CONST>
1

>  <SCORE.INTER.POLAR>
0

>  <SCORE.INTER.ROT>
0

>  <SCORE.INTER.SOLV>
7.62677

>  <SCORE.INTER.VDW>
-11.6705

>  <SCORE.INTER.norm>
-1.03654

>  <SCORE.INTRA>
0

>  <SCORE.INTRA.DIHEDRAL>
0

>  <SCORE.INTRA.DIHEDRAL.0>
0

>  <SCORE.INTRA.POLAR>
0

>  <SCORE.INTRA.POLAR.0>
0

>  <SCORE.INTRA.REPUL>
0

>  <SCORE.INTRA.REPUL.0>
0

>  <SCORE.INTRA.SOLV>
0

>  <SCORE.INTRA.SOLV.lig_0>
-29.58

>  <SCORE.INTRA.VDW>
0

>  <SCORE.INTRA.VDW.0>
0

>  <SCORE.INTRA.norm>
0

>  <SCORE.RESTR>
0

>  <SCORE.RESTR.CAVITY>
0

>  <SCORE.RESTR.norm>
0

>  <SCORE.SYSTEM>
0

>  <SCORE.SYSTEM.CONST>
0

>  <SCORE.SYSTEM.DIHEDRAL>
0

>  <SCORE.SYSTEM.SOLV>
0

>  <SCORE.SYSTEM.norm>
0

>  <SCORE.heavy>
8

>  <SCORE.norm>
-1.03654

>  <RMSD>
3.559

$$$$
ligand
 OpenBabel02271912143D
libRbt.so/2013.1/901 2013/11/27
  8  8  0  0  0  0  0  0  0  0999 V2000
   10.1482    9.4790   -1.4753 C   0  0  0  0  0  0  0  0  0  0  0  0
   10.2483    9.9723   -0.2411 N   0  0  0  0  0  0  0  0  0  0  0  0
   10.1358   11.2885   -0.0440 C   0  0  0  0  0  0  0  0  0  0  0  0
    9.9058   12.1168   -1.0895 N   0  0  0  0  0  0  0  0  0  0  0  0
    9.8128   11.6080   -2.3296 C   0  0  0  0  0  0  0  0  0  0  0  0
    9.9293   10.2857   -2.5270 N   0  0  0  0  0  0  0  0  0  0  0  0
   10.2550   11.8011    1.3372 N   0  0  0  0  0  0  0  0  0  0  0  0
   10.2664    8.1408   -1.6351 O   0  0  0  0  0  0  0  0  0  0  0  0
  1  2  1  0  0  0  0
  1  6  1  0  0  0  0
  1  8  2  0  0  0  0
  2  3  1  0  0  0  0
  3  4  2  0  0  0  0
  3  7  1  0  0  0  0
  4  5  1  0  0  0  0
  5  6  2  0  0  0  0
M  END
>  <CHROM.1>
10.09407622,10.53002633,-0.99660026,-1.53211890,-1.40666725,0.70211838

>  <Name>
ligand

>  <RI>
0

>  <Rbt.Current_Directory>
/home/itssahil/PROJECTS/Mol_Feturizer/Test_systems_manuscript/rnas/3la5

>  <Rbt.Executable>
rbdock ($Id: //depot/dev/client3/rdock/2013.1/src/exe/rbdock.cxx#4 $)

>  <Rbt.Library>
libRbt.so (2013.1, Build901 2013/11/27)

>  <Rbt.Parameter_File>
/export/apps/rDock/src/rDock_2013.1_src/data/scripts/dock_solv.prm

>  <Rbt.Receptor>
prm/blind_docking_100.prm

>  <SCORE>
-8.28233

>  <SCORE.INTER>
-8.28233

>  <SCORE.INTER.CONST>
1

>  <SCORE.INTER.POLAR>
0

>  <SCORE.INTER.ROT>
0

>  <SCORE.INTER.SOLV>
7.65767

>  <SCORE.INTER.VDW>
-11.6741

>  <SCORE.INTER.norm>
-1.03529

>  <SCORE.INTRA>
0

>  <SCORE.INTRA.DIHEDRAL>
0

>  <SCORE.INTRA.DIHEDRAL.0>
0

>  <SCORE.INTRA.POLAR>
0

>  <SCORE.INTRA.POLAR.0>
0

>  <SCORE.INTRA.REPUL>
0

>  <SCORE.INTRA.REPUL.0>
0

>  <SCORE.INTRA.SOLV>
0

>  <SCORE.INTRA.SOLV.lig_0>
-29.58

>  <SCORE.INTRA.VDW>
0

>  <SCORE.INTRA.VDW.0>
0

>  <SCORE.INTRA.norm>
0

>  <SCORE.RESTR>
0

>  <SCORE.RESTR.CAVITY>
0

>  <SCORE.RESTR.norm>
0

>  <SCORE.SYSTEM>
0

>  <SCORE.SYSTEM.CONST>
0

>  <SCORE.SYSTEM.DIHEDRAL>
0

>  <SCORE.SYSTEM.SOLV>
0

>  <SCORE.SYSTEM.norm>
0

>  <SCORE.heavy>
8

>  <SCORE.norm>
-1.03529

>  <RMSD>
3.560

$$$$
ligand
 OpenBabel02271912143D
libRbt.so/2013.1/901 2013/11/27
  8  8  0  0  0  0  0  0  0  0999 V2000
   10.1664    9.4724   -1.4640 C   0  0  0  0  0  0  0  0  0  0  0  0
   10.2676    9.9771   -0.2346 N   0  0  0  0  0  0  0  0  0  0  0  0
   10.1395   11.2934   -0.0476 C   0  0  0  0  0  0  0  0  0  0  0  0
    9.8927   12.1100   -1.0985 N   0  0  0  0  0  0  0  0  0  0  0  0
    9.7988   11.5898   -2.3338 C   0  0  0  0  0  0  0  0  0  0  0  0
    9.9309   10.2675   -2.5210 N   0  0  0  0  0  0  0  0  0  0  0  0
   10.2605   11.8189    1.3285 N   0  0  0  0  0  0  0  0  0  0  0  0
   10.3007    8.1345   -1.6135 O   0  0  0  0  0  0  0  0  0  0  0  0
  1  2  1  0  0  0  0
  1  6  1  0  0  0  0
  1  8  2  0  0  0  0
  2  3  1  0  0  0  0
  3  4  2  0  0  0  0
  3  7  1  0  0  0  0
  4  5  1  0  0  0  0
  5  6  2  0  0  0  0
M  END
>  <CHROM.1>
10.10175856,10.52657627,-0.99368746,-1.49886703,-1.39375878,0.72662850

>  <Name>
ligand

>  <RI>
0

>  <Rbt.Current_Directory>
/home/itssahil/PROJECTS/Mol_Feturizer/Test_systems_manuscript/rnas/3la5

>  <Rbt.Executable>
rbdock ($Id: //depot/dev/client3/rdock/2013.1/src/exe/rbdock.cxx#4 $)

>  <Rbt.Library>
libRbt.so (2013.1, Build901 2013/11/27)

>  <Rbt.Parameter_File>
/export/apps/rDock/src/rDock_2013.1_src/data/scripts/dock_solv.prm

>  <Rbt.Receptor>
prm/pocket_docking_5.prm

>  <SCORE>
-8.29244

>  <SCORE.INTER>
-8.29244

>  <SCORE.INTER.CONST>
1

>  <SCORE.INTER.POLAR>
0

>  <SCORE.INTER.ROT>
0

>  <SCORE.INTER.SOLV>
7.62422

>  <SCORE.INTER.VDW>
-11.6697

>  <SCORE.INTER.norm>
-1.03656

>  <SCORE.INTRA>
0

>  <SCORE.INTRA.DIHEDRAL>
0

>  <SCORE.INTRA.DIHEDRAL.0>
0

>  <SCORE.INTRA.POLAR>
0

>  <SCORE.INTRA.POLAR.0>
0

>  <SCORE.INTRA.REPUL>
0

>  <SCORE.INTRA.REPUL.0>
0

>  <SCORE.INTRA.SOLV>
0

>  <SCORE.INTRA.SOLV.lig_0>
-29.58

>  <SCORE.INTRA.VDW>
0

>  <SCORE.INTRA.VDW.0>
0

>  <SCORE.INTRA.norm>
0

>  <SCORE.RESTR>
0

>  <SCORE.RESTR.CAVITY>
0

>  <SCORE.RESTR.norm>
0

>  <SCORE.SYSTEM>
0

>  <SCORE.SYSTEM.CONST>
0

>  <SCORE.SYSTEM.DIHEDRAL>
0

>  <SCORE.SYSTEM.SOLV>
0

>  <SCORE.SYSTEM.norm>
0

>  <SCORE.heavy>
8

>  <SCORE.norm>
-1.03656

>  <RMSD>
3.560

$$$$
ligand
 OpenBabel02271912143D
libRbt.so/2013.1/901 2013/11/27
  8  8  0  0  0  0  0  0  0  0999 V2000
   10.1701    9.4716   -1.4676 C   0  0  0  0  0  0  0  0  0  0  0  0
   10.2680    9.9744   -0.2372 N   0  0  0  0  0  0  0  0  0  0  0  0
   10.1392   11.2903   -0.0485 C   0  0  0  0  0  0  0  0  0  0  0  0
    9.8948   12.1085   -1.0986 N   0  0  0  0  0  0  0  0  0  0  0  0
    9.8041   11.5902   -2.3350 C   0  0  0  0  0  0  0  0  0  0  0  0
    9.9370   10.2682   -2.5239 N   0  0  0  0  0  0  0  0  0  0  0  0
   10.2566   11.8137    1.3288 N   0  0  0  0  0  0  0  0  0  0  0  0
   10.3050    8.1339   -1.6189 O   0  0  0  0  0  0  0  0  0  0  0  0
  1  2  1  0  0  0  0
  1  6  1  0  0  0  0
  1  8  2  0  0  0  0
  2  3  1  0  0  0  0
  3  4  2  0  0  0  0
  3  7  1  0  0  0  0
  4  5  1  0  0  0  0
  5  6  2  0  0  0  0
M  END
>  <CHROM.1>
10.10396431,10.52497785,-0.99580593,-1.48838759,-1.39544616,0.73851189

>  <Name>
ligand

>  <RI>
0

>  <Rbt.Current_Directory>
/home/itssahil/PROJECTS/Mol_Feturizer/Test_systems_manuscript/rnas/3la5

>  <Rbt.Executable>
rbdock ($Id: //depot/dev/client3/rdock/2013.1/src/exe/rbdock.cxx#4 $)

>  <Rbt.Library>
libRbt.so (2013.1, Build901 2013/11/27)

>  <Rbt.Parameter_File>
/export/apps/rDock/src/rDock_2013.1_src/data/scripts/dock_solv.prm

>  <Rbt.Receptor>
prm/pocket_docking_6.prm

>  <SCORE>
-8.29257

>  <SCORE.INTER>
-8.29257

>  <SCORE.INTER.CONST>
1

>  <SCORE.INTER.POLAR>
0

>  <SCORE.INTER.ROT>
0

>  <SCORE.INTER.SOLV>
7.63255

>  <SCORE.INTER.VDW>
-11.6726

>  <SCORE.INTER.norm>
-1.03657

>  <SCORE.INTRA>
0

>  <SCORE.INTRA.DIHEDRAL>
0

>  <SCORE.INTRA.DIHEDRAL.0>
0

>  <SCORE.INTRA.POLAR>
0

>  <SCORE.INTRA.POLAR.0>
0

>  <SCORE.INTRA.REPUL>
0

>  <SCORE.INTRA.REPUL.0>
0

>  <SCORE.INTRA.SOLV>
0

>  <SCORE.INTRA.SOLV.lig_0>
-29.58

>  <SCORE.INTRA.VDW>
0

>  <SCORE.INTRA.VDW.0>
0

>  <SCORE.INTRA.norm>
0

>  <SCORE.RESTR>
0

>  <SCORE.RESTR.CAVITY>
0

>  <SCORE.RESTR.norm>
0

>  <SCORE.SYSTEM>
0

>  <SCORE.SYSTEM.CONST>
0

>  <SCORE.SYSTEM.DIHEDRAL>
0

>  <SCORE.SYSTEM.SOLV>
0

>  <SCORE.SYSTEM.norm>
0

>  <SCORE.heavy>
8

>  <SCORE.norm>
-1.03657

>  <RMSD>
3.560

$$$$
ligand
 OpenBabel02271912143D
libRbt.so/2013.1/901 2013/11/27
  8  8  0  0  0  0  0  0  0  0999 V2000
   10.1750    9.4591   -1.4574 C   0  0  0  0  0  0  0  0  0  0  0  0
   10.2725    9.9665   -0.2288 N   0  0  0  0  0  0  0  0  0  0  0  0
   10.1359   11.2822   -0.0441 C   0  0  0  0  0  0  0  0  0  0  0  0
    9.8841   12.0955   -1.0963 N   0  0  0  0  0  0  0  0  0  0  0  0
    9.7940   11.5727   -2.3308 C   0  0  0  0  0  0  0  0  0  0  0  0
    9.9347   10.2509   -2.5158 N   0  0  0  0  0  0  0  0  0  0  0  0
   10.2530   11.8108    1.3313 N   0  0  0  0  0  0  0  0  0  0  0  0
   10.3180    8.1219   -1.6047 O   0  0  0  0  0  0  0  0  0  0  0  0
  1  2  1  0  0  0  0
  1  6  1  0  0  0  0
  1  8  2  0  0  0  0
  2  3  1  0  0  0  0
  3  4  2  0  0  0  0
  3  7  1  0  0  0  0
  4  5  1  0  0  0  0
  5  6  2  0  0  0  0
M  END
>  <CHROM.1>
10.10338232,10.51363228,-0.98885154,-1.47085940,-1.38965156,0.75254480

>  <Name>
ligand

>  <RI>
0

>  <Rbt.Current_Directory>
/home/itssahil/PROJECTS/Mol_Feturizer/Test_systems_manuscript/rnas/3la5

>  <Rbt.Executable>
rbdock ($Id: //depot/dev/client3/rdock/2013.1/src/exe/rbdock.cxx#4 $)

>  <Rbt.Library>
libRbt.so (2013.1, Build901 2013/11/27)

>  <Rbt.Parameter_File>
/export/apps/rDock/src/rDock_2013.1_src/data/scripts/dock_solv.prm

>  <Rbt.Receptor>
prm/pocket_docking_7.prm

>  <SCORE>
-8.25991

>  <SCORE.INTER>
-8.25991

>  <SCORE.INTER.CONST>
1

>  <SCORE.INTER.POLAR>
0

>  <SCORE.INTER.ROT>
0

>  <SCORE.INTER.SOLV>
7.65214

>  <SCORE.INTER.VDW>
-11.6573

>  <SCORE.INTER.norm>
-1.03249

>  <SCORE.INTRA>
0

>  <SCORE.INTRA.DIHEDRAL>
0

>  <SCORE.INTRA.DIHEDRAL.0>
0

>  <SCORE.INTRA.POLAR>
0

>  <SCORE.INTRA.POLAR.0>
0

>  <SCORE.INTRA.REPUL>
0

>  <SCORE.INTRA.REPUL.0>
0

>  <SCORE.INTRA.SOLV>
0

>  <SCORE.INTRA.SOLV.lig_0>
-29.58

>  <SCORE.INTRA.VDW>
0

>  <SCORE.INTRA.VDW.0>
0

>  <SCORE.INTRA.norm>
0

>  <SCORE.RESTR>
0

>  <SCORE.RESTR.CAVITY>
0

>  <SCORE.RESTR.norm>
0

>  <SCORE.SYSTEM>
0

>  <SCORE.SYSTEM.CONST>
0

>  <SCORE.SYSTEM.DIHEDRAL>
0

>  <SCORE.SYSTEM.SOLV>
0

>  <SCORE.SYSTEM.norm>
0

>  <SCORE.heavy>
8

>  <SCORE.norm>
-1.03249

>  <RMSD>
3.561

$$$$
ligand
 OpenBabel02271912143D
libRbt.so/2013.1/901 2013/11/27
  8  8  0  0  0  0  0  0  0  0999 V2000
   10.2274    9.4423   -1.4686 C   0  0  0  0  0  0  0  0  0  0  0  0
   10.2934    9.9437   -0.2354 N   0  0  0  0  0  0  0  0  0  0  0  0
   10.1195   11.2541   -0.0443 C   0  0  0  0  0  0  0  0  0  0  0  0
    9.8620   12.0676   -1.0949 N   0  0  0  0  0  0  0  0  0  0  0  0
    9.8039   11.5510   -2.3339 C   0  0  0  0  0  0  0  0  0  0  0  0
    9.9820   10.2347   -2.5253 N   0  0  0  0  0  0  0  0  0  0  0  0
   10.2024   11.7761    1.3360 N   0  0  0  0  0  0  0  0  0  0  0  0
   10.4077    8.1103   -1.6223 O   0  0  0  0  0  0  0  0  0  0  0  0
  1  2  1  0  0  0  0
  1  6  1  0  0  0  0
  1  8  2  0  0  0  0
  2  3  1  0  0  0  0
  3  4  2  0  0  0  0
  3  7  1  0  0  0  0
  4  5  1  0  0  0  0
  5  6  2  0  0  0  0
M  END
>  <CHROM.1>
10.12117874,10.49134059,-0.99435715,-1.31570425,-1.38018977,0.91165295

>  <Name>
ligand

>  <RI>
0

>  <Rbt.Current_Directory>
/home/itssahil/PROJECTS/Mol_Feturizer/Test_systems_manuscript/rnas/3la5

>  <Rbt.Executable>
rbdock ($Id: //depot/dev/client3/rdock/2013.1/src/exe/rbdock.cxx#4 $)

>  <Rbt.Library>
libRbt.so (2013.1, Build901 2013/11/27)

>  <Rbt.Parameter_File>
/export/apps/rDock/src/rDock_2013.1_src/data/scripts/dock_solv.prm

>  <Rbt.Receptor>
prm/blind_docking_20.prm

>  <SCORE>
-8.2967

>  <SCORE.INTER>
-8.2967

>  <SCORE.INTER.CONST>
1

>  <SCORE.INTER.POLAR>
0

>  <SCORE.INTER.ROT>
0

>  <SCORE.INTER.SOLV>
7.8337

>  <SCORE.INTER.VDW>
-11.7424

>  <SCORE.INTER.norm>
-1.03709

>  <SCORE.INTRA>
0

>  <SCORE.INTRA.DIHEDRAL>
0

>  <SCORE.INTRA.DIHEDRAL.0>
0

>  <SCORE.INTRA.POLAR>
0

>  <SCORE.INTRA.POLAR.0>
0

>  <SCORE.INTRA.REPUL>
0

>  <SCORE.INTRA.REPUL.0>
0

>  <SCORE.INTRA.SOLV>
0

>  <SCORE.INTRA.SOLV.lig_0>
-29.58

>  <SCORE.INTRA.VDW>
0

>  <SCORE.INTRA.VDW.0>
0

>  <SCORE.INTRA.norm>
0

>  <SCORE.RESTR>
0

>  <SCORE.RESTR.CAVITY>
0

>  <SCORE.RESTR.norm>
0

>  <SCORE.SYSTEM>
0

>  <SCORE.SYSTEM.CONST>
0

>  <SCORE.SYSTEM.DIHEDRAL>
0

>  <SCORE.SYSTEM.SOLV>
0

>  <SCORE.SYSTEM.norm>
0

>  <SCORE.heavy>
8

>  <SCORE.norm>
-1.03709

>  <RMSD>
3.563

$$$$
ligand
 OpenBabel02271912143D
libRbt.so/2013.1/901 2013/11/27
  8  8  0  0  0  0  0  0  0  0999 V2000
   10.1624    9.4766   -1.4549 C   0  0  0  0  0  0  0  0  0  0  0  0
   10.2711    9.9981   -0.2332 N   0  0  0  0  0  0  0  0  0  0  0  0
   10.1587   11.3184   -0.0654 C   0  0  0  0  0  0  0  0  0  0  0  0
    9.9200   12.1223   -1.1278 N   0  0  0  0  0  0  0  0  0  0  0  0
    9.8184   11.5852   -2.3552 C   0  0  0  0  0  0  0  0  0  0  0  0
    9.9347   10.2589   -2.5231 N   0  0  0  0  0  0  0  0  0  0  0  0
   10.2876   11.8626    1.3028 N   0  0  0  0  0  0  0  0  0  0  0  0
   10.2808    8.1352   -1.5849 O   0  0  0  0  0  0  0  0  0  0  0  0
  1  2  1  0  0  0  0
  1  6  1  0  0  0  0
  1  8  2  0  0  0  0
  2  3  1  0  0  0  0
  3  4  2  0  0  0  0
  3  7  1  0  0  0  0
  4  5  1  0  0  0  0
  5  6  2  0  0  0  0
M  END
>  <CHROM.1>
10.11067324,10.53828315,-1.00003649,-1.55566697,-1.40024552,0.65601652

>  <Name>
ligand

>  <RI>
0

>  <Rbt.Current_Directory>
/home/itssahil/PROJECTS/Mol_Feturizer/Test_systems_manuscript/rnas/3la5

>  <Rbt.Executable>
rbdock ($Id: //depot/dev/client3/rdock/2013.1/src/exe/rbdock.cxx#4 $)

>  <Rbt.Library>
libRbt.so (2013.1, Build901 2013/11/27)

>  <Rbt.Parameter_File>
/export/apps/rDock/src/rDock_2013.1_src/data/scripts/dock_solv.prm

>  <Rbt.Receptor>
prm/pocket_docking_5.prm

>  <SCORE>
-8.27491

>  <SCORE.INTER>
-8.27491

>  <SCORE.INTER.CONST>
1

>  <SCORE.INTER.POLAR>
0

>  <SCORE.INTER.ROT>
0

>  <SCORE.INTER.SOLV>
7.54227

>  <SCORE.INTER.VDW>
-11.6307

>  <SCORE.INTER.norm>
-1.03436

>  <SCORE.INTRA>
0

>  <SCORE.INTRA.DIHEDRAL>
0

>  <SCORE.INTRA.DIHEDRAL.0>
0

>  <SCORE.INTRA.POLAR>
0

>  <SCORE.INTRA.POLAR.0>
0

>  <SCORE.INTRA.REPUL>
0

>  <SCORE.INTRA.REPUL.0>
0

>  <SCORE.INTRA.SOLV>
0

>  <SCORE.INTRA.SOLV.lig_0>
-29.58

>  <SCORE.INTRA.VDW>
0

>  <SCORE.INTRA.VDW.0>
0

>  <SCORE.INTRA.norm>
0

>  <SCORE.RESTR>
0

>  <SCORE.RESTR.CAVITY>
0

>  <SCORE.RESTR.norm>
0

>  <SCORE.SYSTEM>
0

>  <SCORE.SYSTEM.CONST>
0

>  <SCORE.SYSTEM.DIHEDRAL>
0

>  <SCORE.SYSTEM.SOLV>
0

>  <SCORE.SYSTEM.norm>
0

>  <SCORE.heavy>
8

>  <SCORE.norm>
-1.03436

>  <RMSD>
3.564

$$$$
ligand
 OpenBabel02271912143D
libRbt.so/2013.1/901 2013/11/27
  8  8  0  0  0  0  0  0  0  0999 V2000
   10.1521    9.4735   -1.4698 C   0  0  0  0  0  0  0  0  0  0  0  0
   10.2607    9.9763   -0.2402 N   0  0  0  0  0  0  0  0  0  0  0  0
   10.1442   11.2934   -0.0517 C   0  0  0  0  0  0  0  0  0  0  0  0
    9.9015   12.1130   -1.1012 N   0  0  0  0  0  0  0  0  0  0  0  0
    9.8000   11.5947   -2.3367 C   0  0  0  0  0  0  0  0  0  0  0  0
    9.9205   10.2715   -2.5254 N   0  0  0  0  0  0  0  0  0  0  0  0
   10.2731   11.8166    1.3246 N   0  0  0  0  0  0  0  0  0  0  0  0
   10.2748    8.1347   -1.6208 O   0  0  0  0  0  0  0  0  0  0  0  0
  1  2  1  0  0  0  0
  1  6  1  0  0  0  0
  1  8  2  0  0  0  0
  2  3  1  0  0  0  0
  3  4  2  0  0  0  0
  3  7  1  0  0  0  0
  4  5  1  0  0  0  0
  5  6  2  0  0  0  0
M  END
>  <CHROM.1>
10.09750727,10.52778784,-0.99834062,-1.54524959,-1.39721526,0.68184008

>  <Name>
ligand

>  <RI>
0

>  <Rbt.Current_Directory>
/home/itssahil/PROJECTS/Mol_Feturizer/Test_systems_manuscript/rnas/3la5

>  <Rbt.Executable>
rbdock ($Id: //depot/dev/client3/rdock/2013.1/src/exe/rbdock.cxx#4 $)

>  <Rbt.Library>
libRbt.so (2013.1, Build901 2013/11/27)

>  <Rbt.Parameter_File>
/export/apps/rDock/src/rDock_2013.1_src/data/scripts/dock_solv.prm

>  <Rbt.Receptor>
prm/pocket_docking_6.prm

>  <SCORE>
-8.28982

>  <SCORE.INTER>
-8.28982

>  <SCORE.INTER.CONST>
1

>  <SCORE.INTER.POLAR>
0

>  <SCORE.INTER.ROT>
0

>  <SCORE.INTER.SOLV>
7.61001

>  <SCORE.INTER.VDW>
-11.6632

>  <SCORE.INTER.norm>
-1.03623

>  <SCORE.INTRA>
0

>  <SCORE.INTRA.DIHEDRAL>
0

>  <SCORE.INTRA.DIHEDRAL.0>
0

>  <SCORE.INTRA.POLAR>
0

>  <SCORE.INTRA.POLAR.0>
0

>  <SCORE.INTRA.REPUL>
0

>  <SCORE.INTRA.REPUL.0>
0

>  <SCORE.INTRA.SOLV>
0

>  <SCORE.INTRA.SOLV.lig_0>
-29.58

>  <SCORE.INTRA.VDW>
0

>  <SCORE.INTRA.VDW.0>
0

>  <SCORE.INTRA.norm>
0

>  <SCORE.RESTR>
0

>  <SCORE.RESTR.CAVITY>
0

>  <SCORE.RESTR.norm>
0

>  <SCORE.SYSTEM>
0

>  <SCORE.SYSTEM.CONST>
0

>  <SCORE.SYSTEM.DIHEDRAL>
0

>  <SCORE.SYSTEM.SOLV>
0

>  <SCORE.SYSTEM.norm>
0

>  <SCORE.heavy>
8

>  <SCORE.norm>
-1.03623

>  <RMSD>
3.564

$$$$
ligand
 OpenBabel02271912143D
libRbt.so/2013.1/901 2013/11/27
  8  8  0  0  0  0  0  0  0  0999 V2000
   10.1748    9.4513   -1.4529 C   0  0  0  0  0  0  0  0  0  0  0  0
   10.2755    9.9619   -0.2258 N   0  0  0  0  0  0  0  0  0  0  0  0
   10.1355   11.2776   -0.0436 C   0  0  0  0  0  0  0  0  0  0  0  0
    9.8771   12.0876   -1.0968 N   0  0  0  0  0  0  0  0  0  0  0  0
    9.7838   11.5616   -2.3297 C   0  0  0  0  0  0  0  0  0  0  0  0
    9.9279   10.2399   -2.5121 N   0  0  0  0  0  0  0  0  0  0  0  0
   10.2563   11.8098    1.3300 N   0  0  0  0  0  0  0  0  0  0  0  0
   10.3213    8.1141   -1.5975 O   0  0  0  0  0  0  0  0  0  0  0  0
  1  2  1  0  0  0  0
  1  6  1  0  0  0  0
  1  8  2  0  0  0  0
  2  3  1  0  0  0  0
  3  4  2  0  0  0  0
  3  7  1  0  0  0  0
  4  5  1  0  0  0  0
  5  6  2  0  0  0  0
M  END
>  <CHROM.1>
10.10169870,10.50669597,-0.98648328,-1.47302717,-1.38468944,0.74805053

>  <Name>
ligand

>  <RI>
0

>  <Rbt.Current_Directory>
/home/itssahil/PROJECTS/Mol_Feturizer/Test_systems_manuscript/rnas/3la5

>  <Rbt.Executable>
rbdock ($Id: //depot/dev/client3/rdock/2013.1/src/exe/rbdock.cxx#4 $)

>  <Rbt.Library>
libRbt.so (2013.1, Build901 2013/11/27)

>  <Rbt.Parameter_File>
/export/apps/rDock/src/rDock_2013.1_src/data/scripts/dock_solv.prm

>  <Rbt.Receptor>
prm/pocket_docking_8.prm

>  <SCORE>
-8.28697

>  <SCORE.INTER>
-8.28697

>  <SCORE.INTER.CONST>
1

>  <SCORE.INTER.POLAR>
0

>  <SCORE.INTER.ROT>
0

>  <SCORE.INTER.SOLV>
7.65652

>  <SCORE.INTER.VDW>
-11.6768

>  <SCORE.INTER.norm>
-1.03587

>  <SCORE.INTRA>
0

>  <SCORE.INTRA.DIHEDRAL>
0

>  <SCORE.INTRA.DIHEDRAL.0>
0

>  <SCORE.INTRA.POLAR>
0

>  <SCORE.INTRA.POLAR.0>
0

>  <SCORE.INTRA.REPUL>
0

>  <SCORE.INTRA.REPUL.0>
0

>  <SCORE.INTRA.SOLV>
0

>  <SCORE.INTRA.SOLV.lig_0>
-29.58

>  <SCORE.INTRA.VDW>
0

>  <SCORE.INTRA.VDW.0>
0

>  <SCORE.INTRA.norm>
0

>  <SCORE.RESTR>
0

>  <SCORE.RESTR.CAVITY>
0

>  <SCORE.RESTR.norm>
0

>  <SCORE.SYSTEM>
0

>  <SCORE.SYSTEM.CONST>
0

>  <SCORE.SYSTEM.DIHEDRAL>
0

>  <SCORE.SYSTEM.SOLV>
0

>  <SCORE.SYSTEM.norm>
0

>  <SCORE.heavy>
8

>  <SCORE.norm>
-1.03587

>  <RMSD>
3.564

$$$$
ligand
 OpenBabel02271912143D
libRbt.so/2013.1/901 2013/11/27
  8  8  0  0  0  0  0  0  0  0999 V2000
   10.2187    9.4323   -1.4683 C   0  0  0  0  0  0  0  0  0  0  0  0
   10.2773    9.9298   -0.2332 N   0  0  0  0  0  0  0  0  0  0  0  0
   10.1091   11.2406   -0.0396 C   0  0  0  0  0  0  0  0  0  0  0  0
    9.8649   12.0586   -1.0899 N   0  0  0  0  0  0  0  0  0  0  0  0
    9.8141   11.5459   -2.3309 C   0  0  0  0  0  0  0  0  0  0  0  0
    9.9865   10.2292   -2.5246 N   0  0  0  0  0  0  0  0  0  0  0  0
   10.1835   11.7581    1.3429 N   0  0  0  0  0  0  0  0  0  0  0  0
   10.3927    8.0998   -1.6244 O   0  0  0  0  0  0  0  0  0  0  0  0
  1  2  1  0  0  0  0
  1  6  1  0  0  0  0
  1  8  2  0  0  0  0
  2  3  1  0  0  0  0
  3  4  2  0  0  0  0
  3  7  1  0  0  0  0
  4  5  1  0  0  0  0
  5  6  2  0  0  0  0
M  END
>  <CHROM.1>
10.11437527,10.48060259,-0.99187682,-1.29837472,-1.38966783,0.93161546

>  <Name>
ligand

>  <RI>
0

>  <Rbt.Current_Directory>
/home/itssahil/PROJECTS/Mol_Feturizer/Test_systems_manuscript/rnas/3la5

>  <Rbt.Executable>
rbdock ($Id: //depot/dev/client3/rdock/2013.1/src/exe/rbdock.cxx#4 $)

>  <Rbt.Library>
libRbt.so (2013.1, Build901 2013/11/27)

>  <Rbt.Parameter_File>
/export/apps/rDock/src/rDock_2013.1_src/data/scripts/dock_solv.prm

>  <Rbt.Receptor>
prm/blind_docking_100.prm

>  <SCORE>
-8.31903

>  <SCORE.INTER>
-8.31903

>  <SCORE.INTER.CONST>
1

>  <SCORE.INTER.POLAR>
0

>  <SCORE.INTER.ROT>
0

>  <SCORE.INTER.SOLV>
7.92338

>  <SCORE.INTER.VDW>
-11.7871

>  <SCORE.INTER.norm>
-1.03988

>  <SCORE.INTRA>
0

>  <SCORE.INTRA.DIHEDRAL>
0

>  <SCORE.INTRA.DIHEDRAL.0>
0

>  <SCORE.INTRA.POLAR>
0

>  <SCORE.INTRA.POLAR.0>
0

>  <SCORE.INTRA.REPUL>
0

>  <SCORE.INTRA.REPUL.0>
0

>  <SCORE.INTRA.SOLV>
0

>  <SCORE.INTRA.SOLV.lig_0>
-29.58

>  <SCORE.INTRA.VDW>
0

>  <SCORE.INTRA.VDW.0>
0

>  <SCORE.INTRA.norm>
0

>  <SCORE.RESTR>
0

>  <SCORE.RESTR.CAVITY>
0

>  <SCORE.RESTR.norm>
0

>  <SCORE.SYSTEM>
0

>  <SCORE.SYSTEM.CONST>
0

>  <SCORE.SYSTEM.DIHEDRAL>
0

>  <SCORE.SYSTEM.SOLV>
0

>  <SCORE.SYSTEM.norm>
0

>  <SCORE.heavy>
8

>  <SCORE.norm>
-1.03988

>  <RMSD>
3.567

$$$$
ligand
 OpenBabel02271912143D
libRbt.so/2013.1/901 2013/11/27
  8  8  0  0  0  0  0  0  0  0999 V2000
   10.1545    9.4826   -1.4861 C   0  0  0  0  0  0  0  0  0  0  0  0
   10.2675    9.9849   -0.2567 N   0  0  0  0  0  0  0  0  0  0  0  0
   10.1572   11.3025   -0.0682 C   0  0  0  0  0  0  0  0  0  0  0  0
    9.9164   12.1231   -1.1172 N   0  0  0  0  0  0  0  0  0  0  0  0
    9.8105   11.6053   -2.3526 C   0  0  0  0  0  0  0  0  0  0  0  0
    9.9247   10.2816   -2.5414 N   0  0  0  0  0  0  0  0  0  0  0  0
   10.2908   11.8253    1.3079 N   0  0  0  0  0  0  0  0  0  0  0  0
   10.2709    8.1432   -1.6373 O   0  0  0  0  0  0  0  0  0  0  0  0
  1  2  1  0  0  0  0
  1  6  1  0  0  0  0
  1  8  2  0  0  0  0
  2  3  1  0  0  0  0
  3  4  2  0  0  0  0
  3  7  1  0  0  0  0
  4  5  1  0  0  0  0
  5  6  2  0  0  0  0
M  END
>  <CHROM.1>
10.10545936,10.53710212,-1.01465559,-1.57185539,-1.39867224,0.65558855

>  <Name>
ligand

>  <RI>
0

>  <Rbt.Current_Directory>
/home/itssahil/PROJECTS/Mol_Feturizer/Test_systems_manuscript/rnas/3la5

>  <Rbt.Executable>
rbdock ($Id: //depot/dev/client3/rdock/2013.1/src/exe/rbdock.cxx#4 $)

>  <Rbt.Library>
libRbt.so (2013.1, Build901 2013/11/27)

>  <Rbt.Parameter_File>
/export/apps/rDock/src/rDock_2013.1_src/data/scripts/dock_solv.prm

>  <Rbt.Receptor>
prm/blind_docking_100.prm

>  <SCORE>
-8.31333

>  <SCORE.INTER>
-8.31333

>  <SCORE.INTER.CONST>
1

>  <SCORE.INTER.POLAR>
0

>  <SCORE.INTER.ROT>
0

>  <SCORE.INTER.SOLV>
7.56545

>  <SCORE.INTER.VDW>
-11.664

>  <SCORE.INTER.norm>
-1.03917

>  <SCORE.INTRA>
0

>  <SCORE.INTRA.DIHEDRAL>
0

>  <SCORE.INTRA.DIHEDRAL.0>
0

>  <SCORE.INTRA.POLAR>
0

>  <SCORE.INTRA.POLAR.0>
0

>  <SCORE.INTRA.REPUL>
0

>  <SCORE.INTRA.REPUL.0>
0

>  <SCORE.INTRA.SOLV>
0

>  <SCORE.INTRA.SOLV.lig_0>
-29.58

>  <SCORE.INTRA.VDW>
0

>  <SCORE.INTRA.VDW.0>
0

>  <SCORE.INTRA.norm>
0

>  <SCORE.RESTR>
0

>  <SCORE.RESTR.CAVITY>
0

>  <SCORE.RESTR.norm>
0

>  <SCORE.SYSTEM>
0

>  <SCORE.SYSTEM.CONST>
0

>  <SCORE.SYSTEM.DIHEDRAL>
0

>  <SCORE.SYSTEM.SOLV>
0

>  <SCORE.SYSTEM.norm>
0

>  <SCORE.heavy>
8

>  <SCORE.norm>
-1.03917

>  <RMSD>
3.568

$$$$
ligand
 OpenBabel02271912143D
libRbt.so/2013.1/901 2013/11/27
  8  8  0  0  0  0  0  0  0  0999 V2000
   10.2182    9.4296   -1.4674 C   0  0  0  0  0  0  0  0  0  0  0  0
   10.2760    9.9297   -0.2333 N   0  0  0  0  0  0  0  0  0  0  0  0
   10.1056   11.2406   -0.0424 C   0  0  0  0  0  0  0  0  0  0  0  0
    9.8599   12.0560   -1.0944 N   0  0  0  0  0  0  0  0  0  0  0  0
    9.8099   11.5408   -2.3343 C   0  0  0  0  0  0  0  0  0  0  0  0
    9.9845   10.2239   -2.5254 N   0  0  0  0  0  0  0  0  0  0  0  0
   10.1792   11.7611    1.3390 N   0  0  0  0  0  0  0  0  0  0  0  0
   10.3945    8.0970   -1.6208 O   0  0  0  0  0  0  0  0  0  0  0  0
  1  2  1  0  0  0  0
  1  6  1  0  0  0  0
  1  8  2  0  0  0  0
  2  3  1  0  0  0  0
  3  4  2  0  0  0  0
  3  7  1  0  0  0  0
  4  5  1  0  0  0  0
  5  6  2  0  0  0  0
M  END
>  <CHROM.1>
10.11210772,10.47867922,-0.99315187,-1.29312598,-1.38825441,0.93472674

>  <Name>
ligand

>  <RI>
0

>  <Rbt.Current_Directory>
/home/itssahil/PROJECTS/Mol_Feturizer/Test_systems_manuscript/rnas/3la5

>  <Rbt.Executable>
rbdock ($Id: //depot/dev/client3/rdock/2013.1/src/exe/rbdock.cxx#4 $)

>  <Rbt.Library>
libRbt.so (2013.1, Build901 2013/11/27)

>  <Rbt.Parameter_File>
/export/apps/rDock/src/rDock_2013.1_src/data/scripts/dock_solv.prm

>  <Rbt.Receptor>
prm/pocket_docking_7.prm

>  <SCORE>
-8.29061

>  <SCORE.INTER>
-8.29061

>  <SCORE.INTER.CONST>
1

>  <SCORE.INTER.POLAR>
0

>  <SCORE.INTER.ROT>
0

>  <SCORE.INTER.SOLV>
7.92179

>  <SCORE.INTER.VDW>
-11.7677

>  <SCORE.INTER.norm>
-1.03633

>  <SCORE.INTRA>
0

>  <SCORE.INTRA.DIHEDRAL>
0

>  <SCORE.INTRA.DIHEDRAL.0>
0

>  <SCORE.INTRA.POLAR>
0

>  <SCORE.INTRA.POLAR.0>
0

>  <SCORE.INTRA.REPUL>
0

>  <SCORE.INTRA.REPUL.0>
0

>  <SCORE.INTRA.SOLV>
0

>  <SCORE.INTRA.SOLV.lig_0>
-29.58

>  <SCORE.INTRA.VDW>
0

>  <SCORE.INTRA.VDW.0>
0

>  <SCORE.INTRA.norm>
0

>  <SCORE.RESTR>
0

>  <SCORE.RESTR.CAVITY>
0

>  <SCORE.RESTR.norm>
0

>  <SCORE.SYSTEM>
0

>  <SCORE.SYSTEM.CONST>
0

>  <SCORE.SYSTEM.DIHEDRAL>
0

>  <SCORE.SYSTEM.SOLV>
0

>  <SCORE.SYSTEM.norm>
0

>  <SCORE.heavy>
8

>  <SCORE.norm>
-1.03633

>  <RMSD>
3.570

$$$$
ligand
 OpenBabel02271912143D
libRbt.so/2013.1/901 2013/11/27
  8  8  0  0  0  0  0  0  0  0999 V2000
   10.2199    9.4284   -1.4654 C   0  0  0  0  0  0  0  0  0  0  0  0
   10.2803    9.9316   -0.2327 N   0  0  0  0  0  0  0  0  0  0  0  0
   10.1179   11.2441   -0.0456 C   0  0  0  0  0  0  0  0  0  0  0  0
    9.8775   12.0580   -1.1000 N   0  0  0  0  0  0  0  0  0  0  0  0
    9.8249   11.5395   -2.3385 C   0  0  0  0  0  0  0  0  0  0  0  0
    9.9915   10.2211   -2.5257 N   0  0  0  0  0  0  0  0  0  0  0  0
   10.1941   11.7681    1.3343 N   0  0  0  0  0  0  0  0  0  0  0  0
   10.3882    8.0943   -1.6150 O   0  0  0  0  0  0  0  0  0  0  0  0
  1  2  1  0  0  0  0
  1  6  1  0  0  0  0
  1  8  2  0  0  0  0
  2  3  1  0  0  0  0
  3  4  2  0  0  0  0
  3  7  1  0  0  0  0
  4  5  1  0  0  0  0
  5  6  2  0  0  0  0
M  END
>  <CHROM.1>
10.12005910,10.47942885,-0.99417627,-1.31182372,-1.39335184,0.91348294

>  <Name>
ligand

>  <RI>
0

>  <Rbt.Current_Directory>
/home/itssahil/PROJECTS/Mol_Feturizer/Test_systems_manuscript/rnas/3la5

>  <Rbt.Executable>
rbdock ($Id: //depot/dev/client3/rdock/2013.1/src/exe/rbdock.cxx#4 $)

>  <Rbt.Library>
libRbt.so (2013.1, Build901 2013/11/27)

>  <Rbt.Parameter_File>
/export/apps/rDock/src/rDock_2013.1_src/data/scripts/dock_solv.prm

>  <Rbt.Receptor>
prm/pocket_docking_5.prm

>  <SCORE>
-8.30081

>  <SCORE.INTER>
-8.30081

>  <SCORE.INTER.CONST>
1

>  <SCORE.INTER.POLAR>
0

>  <SCORE.INTER.ROT>
0

>  <SCORE.INTER.SOLV>
7.87971

>  <SCORE.INTER.VDW>
-11.7604

>  <SCORE.INTER.norm>
-1.0376

>  <SCORE.INTRA>
0

>  <SCORE.INTRA.DIHEDRAL>
0

>  <SCORE.INTRA.DIHEDRAL.0>
0

>  <SCORE.INTRA.POLAR>
0

>  <SCORE.INTRA.POLAR.0>
0

>  <SCORE.INTRA.REPUL>
0

>  <SCORE.INTRA.REPUL.0>
0

>  <SCORE.INTRA.SOLV>
0

>  <SCORE.INTRA.SOLV.lig_0>
-29.58

>  <SCORE.INTRA.VDW>
0

>  <SCORE.INTRA.VDW.0>
0

>  <SCORE.INTRA.norm>
0

>  <SCORE.RESTR>
0

>  <SCORE.RESTR.CAVITY>
0

>  <SCORE.RESTR.norm>
0

>  <SCORE.SYSTEM>
0

>  <SCORE.SYSTEM.CONST>
0

>  <SCORE.SYSTEM.DIHEDRAL>
0

>  <SCORE.SYSTEM.SOLV>
0

>  <SCORE.SYSTEM.norm>
0

>  <SCORE.heavy>
8

>  <SCORE.norm>
-1.0376

>  <RMSD>
3.571

$$$$
ligand
 OpenBabel02271912143D
libRbt.so/2013.1/901 2013/11/27
  8  8  0  0  0  0  0  0  0  0999 V2000
   10.1503    9.4795   -1.4839 C   0  0  0  0  0  0  0  0  0  0  0  0
   10.2615    9.9834   -0.2550 N   0  0  0  0  0  0  0  0  0  0  0  0
   10.1595   11.3021   -0.0694 C   0  0  0  0  0  0  0  0  0  0  0  0
    9.9288   12.1223   -1.1211 N   0  0  0  0  0  0  0  0  0  0  0  0
    9.8246   11.6029   -2.3559 C   0  0  0  0  0  0  0  0  0  0  0  0
    9.9305   10.2780   -2.5417 N   0  0  0  0  0  0  0  0  0  0  0  0
   10.2909   11.8266    1.3062 N   0  0  0  0  0  0  0  0  0  0  0  0
   10.2580    8.1390   -1.6320 O   0  0  0  0  0  0  0  0  0  0  0  0
  1  2  1  0  0  0  0
  1  6  1  0  0  0  0
  1  8  2  0  0  0  0
  2  3  1  0  0  0  0
  3  4  2  0  0  0  0
  3  7  1  0  0  0  0
  4  5  1  0  0  0  0
  5  6  2  0  0  0  0
M  END
>  <CHROM.1>
10.10648683,10.53523700,-1.01466763,-1.58950732,-1.40620749,0.63626691

>  <Name>
ligand

>  <RI>
0

>  <Rbt.Current_Directory>
/home/itssahil/PROJECTS/Mol_Feturizer/Test_systems_manuscript/rnas/3la5

>  <Rbt.Executable>
rbdock ($Id: //depot/dev/client3/rdock/2013.1/src/exe/rbdock.cxx#4 $)

>  <Rbt.Library>
libRbt.so (2013.1, Build901 2013/11/27)

>  <Rbt.Parameter_File>
/export/apps/rDock/src/rDock_2013.1_src/data/scripts/dock_solv.prm

>  <Rbt.Receptor>
prm/pocket_docking_5.prm

>  <SCORE>
-8.30641

>  <SCORE.INTER>
-8.30641

>  <SCORE.INTER.CONST>
1

>  <SCORE.INTER.POLAR>
0

>  <SCORE.INTER.ROT>
0

>  <SCORE.INTER.SOLV>
7.56597

>  <SCORE.INTER.VDW>
-11.6596

>  <SCORE.INTER.norm>
-1.0383

>  <SCORE.INTRA>
0

>  <SCORE.INTRA.DIHEDRAL>
0

>  <SCORE.INTRA.DIHEDRAL.0>
0

>  <SCORE.INTRA.POLAR>
0

>  <SCORE.INTRA.POLAR.0>
0

>  <SCORE.INTRA.REPUL>
0

>  <SCORE.INTRA.REPUL.0>
0

>  <SCORE.INTRA.SOLV>
0

>  <SCORE.INTRA.SOLV.lig_0>
-29.58

>  <SCORE.INTRA.VDW>
0

>  <SCORE.INTRA.VDW.0>
0

>  <SCORE.INTRA.norm>
0

>  <SCORE.RESTR>
0

>  <SCORE.RESTR.CAVITY>
0

>  <SCORE.RESTR.norm>
0

>  <SCORE.SYSTEM>
0

>  <SCORE.SYSTEM.CONST>
0

>  <SCORE.SYSTEM.DIHEDRAL>
0

>  <SCORE.SYSTEM.SOLV>
0

>  <SCORE.SYSTEM.norm>
0

>  <SCORE.heavy>
8

>  <SCORE.norm>
-1.0383

>  <RMSD>
3.571

$$$$
ligand
 OpenBabel02271912143D
libRbt.so/2013.1/901 2013/11/27
  8  8  0  0  0  0  0  0  0  0999 V2000
   10.2118    9.4367   -1.4769 C   0  0  0  0  0  0  0  0  0  0  0  0
   10.2815    9.9365   -0.2433 N   0  0  0  0  0  0  0  0  0  0  0  0
   10.1164   11.2479   -0.0509 C   0  0  0  0  0  0  0  0  0  0  0  0
    9.8638   12.0640   -1.1007 N   0  0  0  0  0  0  0  0  0  0  0  0
    9.8018   11.5490   -2.3402 C   0  0  0  0  0  0  0  0  0  0  0  0
    9.9712   10.2317   -2.5327 N   0  0  0  0  0  0  0  0  0  0  0  0
   10.2032   11.7681    1.3299 N   0  0  0  0  0  0  0  0  0  0  0  0
   10.3832    8.1037   -1.6318 O   0  0  0  0  0  0  0  0  0  0  0  0
  1  2  1  0  0  0  0
  1  6  1  0  0  0  0
  1  8  2  0  0  0  0
  2  3  1  0  0  0  0
  3  4  2  0  0  0  0
  3  7  1  0  0  0  0
  4  5  1  0  0  0  0
  5  6  2  0  0  0  0
M  END
>  <CHROM.1>
10.11261598,10.48602674,-1.00165859,-1.33918854,-1.38513840,0.88948679

>  <Name>
ligand

>  <RI>
0

>  <Rbt.Current_Directory>
/home/itssahil/PROJECTS/Mol_Feturizer/Test_systems_manuscript/rnas/3la5

>  <Rbt.Executable>
rbdock ($Id: //depot/dev/client3/rdock/2013.1/src/exe/rbdock.cxx#4 $)

>  <Rbt.Library>
libRbt.so (2013.1, Build901 2013/11/27)

>  <Rbt.Parameter_File>
/export/apps/rDock/src/rDock_2013.1_src/data/scripts/dock_solv.prm

>  <Rbt.Receptor>
prm/pocket_docking_8.prm

>  <SCORE>
-8.33532

>  <SCORE.INTER>
-8.33532

>  <SCORE.INTER.CONST>
1

>  <SCORE.INTER.POLAR>
0

>  <SCORE.INTER.ROT>
0

>  <SCORE.INTER.SOLV>
7.85433

>  <SCORE.INTER.VDW>
-11.775

>  <SCORE.INTER.norm>
-1.04192

>  <SCORE.INTRA>
0

>  <SCORE.INTRA.DIHEDRAL>
0

>  <SCORE.INTRA.DIHEDRAL.0>
0

>  <SCORE.INTRA.POLAR>
0

>  <SCORE.INTRA.POLAR.0>
0

>  <SCORE.INTRA.REPUL>
0

>  <SCORE.INTRA.REPUL.0>
0

>  <SCORE.INTRA.SOLV>
0

>  <SCORE.INTRA.SOLV.lig_0>
-29.58

>  <SCORE.INTRA.VDW>
0

>  <SCORE.INTRA.VDW.0>
0

>  <SCORE.INTRA.norm>
0

>  <SCORE.RESTR>
0

>  <SCORE.RESTR.CAVITY>
0

>  <SCORE.RESTR.norm>
0

>  <SCORE.SYSTEM>
0

>  <SCORE.SYSTEM.CONST>
0

>  <SCORE.SYSTEM.DIHEDRAL>
0

>  <SCORE.SYSTEM.SOLV>
0

>  <SCORE.SYSTEM.norm>
0

>  <SCORE.heavy>
8

>  <SCORE.norm>
-1.04192

>  <RMSD>
3.572

$$$$
ligand
 OpenBabel02271912143D
libRbt.so/2013.1/901 2013/11/27
  8  8  0  0  0  0  0  0  0  0999 V2000
   10.2035    9.4306   -1.4791 C   0  0  0  0  0  0  0  0  0  0  0  0
   10.2797    9.9223   -0.2426 N   0  0  0  0  0  0  0  0  0  0  0  0
   10.1294   11.2343   -0.0424 C   0  0  0  0  0  0  0  0  0  0  0  0
    9.8854   12.0594   -1.0872 N   0  0  0  0  0  0  0  0  0  0  0  0
    9.8169   11.5524   -2.3296 C   0  0  0  0  0  0  0  0  0  0  0  0
    9.9713   10.2345   -2.5301 N   0  0  0  0  0  0  0  0  0  0  0  0
   10.2229   11.7453    1.3414 N   0  0  0  0  0  0  0  0  0  0  0  0
   10.3598    8.0966   -1.6420 O   0  0  0  0  0  0  0  0  0  0  0  0
  1  2  1  0  0  0  0
  1  6  1  0  0  0  0
  1  8  2  0  0  0  0
  2  3  1  0  0  0  0
  3  4  2  0  0  0  0
  3  7  1  0  0  0  0
  4  5  1  0  0  0  0
  5  6  2  0  0  0  0
M  END
>  <CHROM.1>
10.11649498,10.47812631,-0.99761704,-1.38203470,-1.39333619,0.85324956

>  <Name>
ligand

>  <RI>
0

>  <Rbt.Current_Directory>
/home/itssahil/PROJECTS/Mol_Feturizer/Test_systems_manuscript/rnas/3la5

>  <Rbt.Executable>
rbdock ($Id: //depot/dev/client3/rdock/2013.1/src/exe/rbdock.cxx#4 $)

>  <Rbt.Library>
libRbt.so (2013.1, Build901 2013/11/27)

>  <Rbt.Parameter_File>
/export/apps/rDock/src/rDock_2013.1_src/data/scripts/dock_solv.prm

>  <Rbt.Receptor>
prm/blind_docking_20.prm

>  <SCORE>
-8.29751

>  <SCORE.INTER>
-8.29751

>  <SCORE.INTER.CONST>
1

>  <SCORE.INTER.POLAR>
0

>  <SCORE.INTER.ROT>
0

>  <SCORE.INTER.SOLV>
7.89818

>  <SCORE.INTER.VDW>
-11.7644

>  <SCORE.INTER.norm>
-1.03719

>  <SCORE.INTRA>
0

>  <SCORE.INTRA.DIHEDRAL>
0

>  <SCORE.INTRA.DIHEDRAL.0>
0

>  <SCORE.INTRA.POLAR>
0

>  <SCORE.INTRA.POLAR.0>
0

>  <SCORE.INTRA.REPUL>
0

>  <SCORE.INTRA.REPUL.0>
0

>  <SCORE.INTRA.SOLV>
0

>  <SCORE.INTRA.SOLV.lig_0>
-29.58

>  <SCORE.INTRA.VDW>
0

>  <SCORE.INTRA.VDW.0>
0

>  <SCORE.INTRA.norm>
0

>  <SCORE.RESTR>
0

>  <SCORE.RESTR.CAVITY>
0

>  <SCORE.RESTR.norm>
0

>  <SCORE.SYSTEM>
0

>  <SCORE.SYSTEM.CONST>
0

>  <SCORE.SYSTEM.DIHEDRAL>
0

>  <SCORE.SYSTEM.SOLV>
0

>  <SCORE.SYSTEM.norm>
0

>  <SCORE.heavy>
8

>  <SCORE.norm>
-1.03719

>  <RMSD>
3.573

$$$$
ligand
 OpenBabel02271912143D
libRbt.so/2013.1/901 2013/11/27
  8  8  0  0  0  0  0  0  0  0999 V2000
   10.1402    9.4752   -1.4774 C   0  0  0  0  0  0  0  0  0  0  0  0
   10.2583    9.9836   -0.2510 N   0  0  0  0  0  0  0  0  0  0  0  0
   10.1589   11.3032   -0.0700 C   0  0  0  0  0  0  0  0  0  0  0  0
    9.9238   12.1197   -1.1235 N   0  0  0  0  0  0  0  0  0  0  0  0
    9.8126   11.5956   -2.3558 C   0  0  0  0  0  0  0  0  0  0  0  0
    9.9159   10.2699   -2.5371 N   0  0  0  0  0  0  0  0  0  0  0  0
   10.2981   11.8327    1.3030 N   0  0  0  0  0  0  0  0  0  0  0  0
   10.2456    8.1341   -1.6210 O   0  0  0  0  0  0  0  0  0  0  0  0
  1  2  1  0  0  0  0
  1  6  1  0  0  0  0
  1  8  2  0  0  0  0
  2  3  1  0  0  0  0
  3  4  2  0  0  0  0
  3  7  1  0  0  0  0
  4  5  1  0  0  0  0
  5  6  2  0  0  0  0
M  END
>  <CHROM.1>
10.10012629,10.53278493,-1.01198047,-1.61368750,-1.40274659,0.60860122

>  <Name>
ligand

>  <RI>
0

>  <Rbt.Current_Directory>
/home/itssahil/PROJECTS/Mol_Feturizer/Test_systems_manuscript/rnas/3la5

>  <Rbt.Executable>
rbdock ($Id: //depot/dev/client3/rdock/2013.1/src/exe/rbdock.cxx#4 $)

>  <Rbt.Library>
libRbt.so (2013.1, Build901 2013/11/27)

>  <Rbt.Parameter_File>
/export/apps/rDock/src/rDock_2013.1_src/data/scripts/dock_solv.prm

>  <Rbt.Receptor>
prm/blind_docking_80.prm

>  <SCORE>
-8.30543

>  <SCORE.INTER>
-8.30543

>  <SCORE.INTER.CONST>
1

>  <SCORE.INTER.POLAR>
0

>  <SCORE.INTER.ROT>
0

>  <SCORE.INTER.SOLV>
7.55683

>  <SCORE.INTER.VDW>
-11.6559

>  <SCORE.INTER.norm>
-1.03818

>  <SCORE.INTRA>
0

>  <SCORE.INTRA.DIHEDRAL>
0

>  <SCORE.INTRA.DIHEDRAL.0>
0

>  <SCORE.INTRA.POLAR>
0

>  <SCORE.INTRA.POLAR.0>
0

>  <SCORE.INTRA.REPUL>
0

>  <SCORE.INTRA.REPUL.0>
0

>  <SCORE.INTRA.SOLV>
0

>  <SCORE.INTRA.SOLV.lig_0>
-29.58

>  <SCORE.INTRA.VDW>
0

>  <SCORE.INTRA.VDW.0>
0

>  <SCORE.INTRA.norm>
0

>  <SCORE.RESTR>
0

>  <SCORE.RESTR.CAVITY>
0

>  <SCORE.RESTR.norm>
0

>  <SCORE.SYSTEM>
0

>  <SCORE.SYSTEM.CONST>
0

>  <SCORE.SYSTEM.DIHEDRAL>
0

>  <SCORE.SYSTEM.SOLV>
0

>  <SCORE.SYSTEM.norm>
0

>  <SCORE.heavy>
8

>  <SCORE.norm>
-1.03818

>  <RMSD>
3.573

$$$$
ligand
 OpenBabel02271912143D
libRbt.so/2013.1/901 2013/11/27
  8  8  0  0  0  0  0  0  0  0999 V2000
   10.1814    9.4393   -1.4793 C   0  0  0  0  0  0  0  0  0  0  0  0
   10.3009    9.9390   -0.2495 N   0  0  0  0  0  0  0  0  0  0  0  0
   10.1666   11.2534   -0.0540 C   0  0  0  0  0  0  0  0  0  0  0  0
    9.8951   12.0730   -1.0963 N   0  0  0  0  0  0  0  0  0  0  0  0
    9.7829   11.5579   -2.3323 C   0  0  0  0  0  0  0  0  0  0  0  0
    9.9213   10.2375   -2.5281 N   0  0  0  0  0  0  0  0  0  0  0  0
   10.3083   11.7734    1.3223 N   0  0  0  0  0  0  0  0  0  0  0  0
   10.3227    8.1031   -1.6376 O   0  0  0  0  0  0  0  0  0  0  0  0
  1  2  1  0  0  0  0
  1  6  1  0  0  0  0
  1  8  2  0  0  0  0
  2  3  1  0  0  0  0
  3  4  2  0  0  0  0
  3  7  1  0  0  0  0
  4  5  1  0  0  0  0
  5  6  2  0  0  0  0
M  END
>  <CHROM.1>
10.11750435,10.49074474,-1.00287765,-1.53213033,-1.37546616,0.69865180

>  <Name>
ligand

>  <RI>
0

>  <Rbt.Current_Directory>
/home/itssahil/PROJECTS/Mol_Feturizer/Test_systems_manuscript/rnas/3la5

>  <Rbt.Executable>
rbdock ($Id: //depot/dev/client3/rdock/2013.1/src/exe/rbdock.cxx#4 $)

>  <Rbt.Library>
libRbt.so (2013.1, Build901 2013/11/27)

>  <Rbt.Parameter_File>
/export/apps/rDock/src/rDock_2013.1_src/data/scripts/dock_solv.prm

>  <Rbt.Receptor>
prm/pocket_docking_8.prm

>  <SCORE>
-8.27747

>  <SCORE.INTER>
-8.27747

>  <SCORE.INTER.CONST>
1

>  <SCORE.INTER.POLAR>
0

>  <SCORE.INTER.ROT>
0

>  <SCORE.INTER.SOLV>
7.71112

>  <SCORE.INTER.VDW>
-11.6887

>  <SCORE.INTER.norm>
-1.03468

>  <SCORE.INTRA>
0

>  <SCORE.INTRA.DIHEDRAL>
0

>  <SCORE.INTRA.DIHEDRAL.0>
0

>  <SCORE.INTRA.POLAR>
0

>  <SCORE.INTRA.POLAR.0>
0

>  <SCORE.INTRA.REPUL>
0

>  <SCORE.INTRA.REPUL.0>
0

>  <SCORE.INTRA.SOLV>
0

>  <SCORE.INTRA.SOLV.lig_0>
-29.58

>  <SCORE.INTRA.VDW>
0

>  <SCORE.INTRA.VDW.0>
0

>  <SCORE.INTRA.norm>
0

>  <SCORE.RESTR>
0

>  <SCORE.RESTR.CAVITY>
0

>  <SCORE.RESTR.norm>
0

>  <SCORE.SYSTEM>
0

>  <SCORE.SYSTEM.CONST>
0

>  <SCORE.SYSTEM.DIHEDRAL>
0

>  <SCORE.SYSTEM.SOLV>
0

>  <SCORE.SYSTEM.norm>
0

>  <SCORE.heavy>
8

>  <SCORE.norm>
-1.03468

>  <RMSD>
3.575

$$$$
ligand
 OpenBabel02271912143D
libRbt.so/2013.1/901 2013/11/27
  8  8  0  0  0  0  0  0  0  0999 V2000
   10.1925    9.4485   -1.4914 C   0  0  0  0  0  0  0  0  0  0  0  0
   10.2507    9.9415   -0.2545 N   0  0  0  0  0  0  0  0  0  0  0  0
   10.1090   11.2551   -0.0589 C   0  0  0  0  0  0  0  0  0  0  0  0
    9.8918   12.0808   -1.1091 N   0  0  0  0  0  0  0  0  0  0  0  0
    9.8411   11.5725   -2.3519 C   0  0  0  0  0  0  0  0  0  0  0  0
    9.9869   10.2529   -2.5476 N   0  0  0  0  0  0  0  0  0  0  0  0
   10.1821   11.7674    1.3256 N   0  0  0  0  0  0  0  0  0  0  0  0
   10.3393    8.1129   -1.6496 O   0  0  0  0  0  0  0  0  0  0  0  0
  1  2  1  0  0  0  0
  1  6  1  0  0  0  0
  1  8  2  0  0  0  0
  2  3  1  0  0  0  0
  3  4  2  0  0  0  0
  3  7  1  0  0  0  0
  4  5  1  0  0  0  0
  5  6  2  0  0  0  0
M  END
>  <CHROM.1>
10.10645611,10.49758030,-1.01312216,-1.33400394,-1.41211704,0.89910996

>  <Name>
ligand

>  <RI>
0

>  <Rbt.Current_Directory>
/home/itssahil/PROJECTS/Mol_Feturizer/Test_systems_manuscript/rnas/3la5

>  <Rbt.Executable>
rbdock ($Id: //depot/dev/client3/rdock/2013.1/src/exe/rbdock.cxx#4 $)

>  <Rbt.Library>
libRbt.so (2013.1, Build901 2013/11/27)

>  <Rbt.Parameter_File>
/export/apps/rDock/src/rDock_2013.1_src/data/scripts/dock_solv.prm

>  <Rbt.Receptor>
prm/pocket_docking_6.prm

>  <SCORE>
-8.3038

>  <SCORE.INTER>
-8.3038

>  <SCORE.INTER.CONST>
1

>  <SCORE.INTER.POLAR>
0

>  <SCORE.INTER.ROT>
0

>  <SCORE.INTER.SOLV>
7.87586

>  <SCORE.INTER.VDW>
-11.7612

>  <SCORE.INTER.norm>
-1.03797

>  <SCORE.INTRA>
0

>  <SCORE.INTRA.DIHEDRAL>
0

>  <SCORE.INTRA.DIHEDRAL.0>
0

>  <SCORE.INTRA.POLAR>
0

>  <SCORE.INTRA.POLAR.0>
0

>  <SCORE.INTRA.REPUL>
0

>  <SCORE.INTRA.REPUL.0>
0

>  <SCORE.INTRA.SOLV>
0

>  <SCORE.INTRA.SOLV.lig_0>
-29.58

>  <SCORE.INTRA.VDW>
0

>  <SCORE.INTRA.VDW.0>
0

>  <SCORE.INTRA.norm>
0

>  <SCORE.RESTR>
0

>  <SCORE.RESTR.CAVITY>
0

>  <SCORE.RESTR.norm>
0

>  <SCORE.SYSTEM>
0

>  <SCORE.SYSTEM.CONST>
0

>  <SCORE.SYSTEM.DIHEDRAL>
0

>  <SCORE.SYSTEM.SOLV>
0

>  <SCORE.SYSTEM.norm>
0

>  <SCORE.heavy>
8

>  <SCORE.norm>
-1.03797

>  <RMSD>
3.576

$$$$
ligand
 OpenBabel02271912143D
libRbt.so/2013.1/901 2013/11/27
  8  8  0  0  0  0  0  0  0  0999 V2000
   10.2161    9.4111   -1.4634 C   0  0  0  0  0  0  0  0  0  0  0  0
   10.2928    9.9187   -0.2334 N   0  0  0  0  0  0  0  0  0  0  0  0
   10.1155   11.2293   -0.0467 C   0  0  0  0  0  0  0  0  0  0  0  0
    9.8439   12.0367   -1.0985 N   0  0  0  0  0  0  0  0  0  0  0  0
    9.7751   11.5140   -2.3344 C   0  0  0  0  0  0  0  0  0  0  0  0
    9.9566   10.1975   -2.5213 N   0  0  0  0  0  0  0  0  0  0  0  0
   10.2105   11.7583    1.3301 N   0  0  0  0  0  0  0  0  0  0  0  0
   10.4001    8.0791   -1.6126 O   0  0  0  0  0  0  0  0  0  0  0  0
  1  2  1  0  0  0  0
  1  6  1  0  0  0  0
  1  8  2  0  0  0  0
  2  3  1  0  0  0  0
  3  4  2  0  0  0  0
  3  7  1  0  0  0  0
  4  5  1  0  0  0  0
  5  6  2  0  0  0  0
M  END
>  <CHROM.1>
10.11049097,10.46201145,-0.99314278,-1.34420035,-1.37060938,0.87891099

>  <Name>
ligand

>  <RI>
0

>  <Rbt.Current_Directory>
/home/itssahil/PROJECTS/Mol_Feturizer/Test_systems_manuscript/rnas/3la5

>  <Rbt.Executable>
rbdock ($Id: //depot/dev/client3/rdock/2013.1/src/exe/rbdock.cxx#4 $)

>  <Rbt.Library>
libRbt.so (2013.1, Build901 2013/11/27)

>  <Rbt.Parameter_File>
/export/apps/rDock/src/rDock_2013.1_src/data/scripts/dock_solv.prm

>  <Rbt.Receptor>
prm/pocket_docking_5.prm

>  <SCORE>
-8.32739

>  <SCORE.INTER>
-8.32739

>  <SCORE.INTER.CONST>
1

>  <SCORE.INTER.POLAR>
0

>  <SCORE.INTER.ROT>
0

>  <SCORE.INTER.SOLV>
7.89153

>  <SCORE.INTER.VDW>
-11.7821

>  <SCORE.INTER.norm>
-1.04092

>  <SCORE.INTRA>
0

>  <SCORE.INTRA.DIHEDRAL>
0

>  <SCORE.INTRA.DIHEDRAL.0>
0

>  <SCORE.INTRA.POLAR>
0

>  <SCORE.INTRA.POLAR.0>
0

>  <SCORE.INTRA.REPUL>
0

>  <SCORE.INTRA.REPUL.0>
0

>  <SCORE.INTRA.SOLV>
0

>  <SCORE.INTRA.SOLV.lig_0>
-29.58

>  <SCORE.INTRA.VDW>
0

>  <SCORE.INTRA.VDW.0>
0

>  <SCORE.INTRA.norm>
0

>  <SCORE.RESTR>
0

>  <SCORE.RESTR.CAVITY>
0

>  <SCORE.RESTR.norm>
0

>  <SCORE.SYSTEM>
0

>  <SCORE.SYSTEM.CONST>
0

>  <SCORE.SYSTEM.DIHEDRAL>
0

>  <SCORE.SYSTEM.SOLV>
0

>  <SCORE.SYSTEM.norm>
0

>  <SCORE.heavy>
8

>  <SCORE.norm>
-1.04092

>  <RMSD>
3.578

$$$$
ligand
 OpenBabel02271912143D
libRbt.so/2013.1/901 2013/11/27
  8  8  0  0  0  0  0  0  0  0999 V2000
   10.2349    9.4291   -1.4757 C   0  0  0  0  0  0  0  0  0  0  0  0
   10.3399    9.9484   -0.2527 N   0  0  0  0  0  0  0  0  0  0  0  0
   10.1661   11.2606   -0.0743 C   0  0  0  0  0  0  0  0  0  0  0  0
    9.8694   12.0579   -1.1271 N   0  0  0  0  0  0  0  0  0  0  0  0
    9.7721   11.5234   -2.3560 C   0  0  0  0  0  0  0  0  0  0  0  0
    9.9502   10.2053   -2.5346 N   0  0  0  0  0  0  0  0  0  0  0  0
   10.2928   11.8027    1.2949 N   0  0  0  0  0  0  0  0  0  0  0  0
   10.4164    8.0959   -1.6166 O   0  0  0  0  0  0  0  0  0  0  0  0
  1  2  1  0  0  0  0
  1  6  1  0  0  0  0
  1  8  2  0  0  0  0
  2  3  1  0  0  0  0
  3  4  2  0  0  0  0
  3  7  1  0  0  0  0
  4  5  1  0  0  0  0
  5  6  2  0  0  0  0
M  END
>  <CHROM.1>
10.13952183,10.48438821,-1.01306700,-1.42591092,-1.35442219,0.78949132

>  <Name>
ligand

>  <RI>
0

>  <Rbt.Current_Directory>
/home/itssahil/PROJECTS/Mol_Feturizer/Test_systems_manuscript/rnas/3la5

>  <Rbt.Executable>
rbdock ($Id: //depot/dev/client3/rdock/2013.1/src/exe/rbdock.cxx#4 $)

>  <Rbt.Library>
libRbt.so (2013.1, Build901 2013/11/27)

>  <Rbt.Parameter_File>
/export/apps/rDock/src/rDock_2013.1_src/data/scripts/dock_solv.prm

>  <Rbt.Receptor>
prm/pocket_docking_8.prm

>  <SCORE>
-8.28894

>  <SCORE.INTER>
-8.28894

>  <SCORE.INTER.CONST>
1

>  <SCORE.INTER.POLAR>
0

>  <SCORE.INTER.ROT>
0

>  <SCORE.INTER.SOLV>
7.62791

>  <SCORE.INTER.VDW>
-11.6686

>  <SCORE.INTER.norm>
-1.03612

>  <SCORE.INTRA>
0

>  <SCORE.INTRA.DIHEDRAL>
0

>  <SCORE.INTRA.DIHEDRAL.0>
0

>  <SCORE.INTRA.POLAR>
0

>  <SCORE.INTRA.POLAR.0>
0

>  <SCORE.INTRA.REPUL>
0

>  <SCORE.INTRA.REPUL.0>
0

>  <SCORE.INTRA.SOLV>
0

>  <SCORE.INTRA.SOLV.lig_0>
-29.58

>  <SCORE.INTRA.VDW>
0

>  <SCORE.INTRA.VDW.0>
0

>  <SCORE.INTRA.norm>
0

>  <SCORE.RESTR>
0

>  <SCORE.RESTR.CAVITY>
0

>  <SCORE.RESTR.norm>
0

>  <SCORE.SYSTEM>
0

>  <SCORE.SYSTEM.CONST>
0

>  <SCORE.SYSTEM.DIHEDRAL>
0

>  <SCORE.SYSTEM.SOLV>
0

>  <SCORE.SYSTEM.norm>
0

>  <SCORE.heavy>
8

>  <SCORE.norm>
-1.03612

>  <RMSD>
3.578

$$$$
ligand
 OpenBabel02271912143D
libRbt.so/2013.1/901 2013/11/27
  8  8  0  0  0  0  0  0  0  0999 V2000
   10.2111    9.4235   -1.4677 C   0  0  0  0  0  0  0  0  0  0  0  0
   10.3150    9.9372   -0.2423 N   0  0  0  0  0  0  0  0  0  0  0  0
   10.1663   11.2522   -0.0618 C   0  0  0  0  0  0  0  0  0  0  0  0
    9.8958   12.0582   -1.1149 N   0  0  0  0  0  0  0  0  0  0  0  0
    9.7993   11.5292   -2.3463 C   0  0  0  0  0  0  0  0  0  0  0  0
    9.9522   10.2082   -2.5270 N   0  0  0  0  0  0  0  0  0  0  0  0
   10.2911   11.7879    1.3102 N   0  0  0  0  0  0  0  0  0  0  0  0
   10.3667    8.0872   -1.6107 O   0  0  0  0  0  0  0  0  0  0  0  0
  1  2  1  0  0  0  0
  1  6  1  0  0  0  0
  1  8  2  0  0  0  0
  2  3  1  0  0  0  0
  3  4  2  0  0  0  0
  3  7  1  0  0  0  0
  4  5  1  0  0  0  0
  5  6  2  0  0  0  0
M  END
>  <CHROM.1>
10.13281014,10.47925119,-1.00293091,-1.46507707,-1.37538839,0.75394987

>  <Name>
ligand

>  <RI>
0

>  <Rbt.Current_Directory>
/home/itssahil/PROJECTS/Mol_Feturizer/Test_systems_manuscript/rnas/3la5

>  <Rbt.Executable>
rbdock ($Id: //depot/dev/client3/rdock/2013.1/src/exe/rbdock.cxx#4 $)

>  <Rbt.Library>
libRbt.so (2013.1, Build901 2013/11/27)

>  <Rbt.Parameter_File>
/export/apps/rDock/src/rDock_2013.1_src/data/scripts/dock_solv.prm

>  <Rbt.Receptor>
prm/blind_docking_80.prm

>  <SCORE>
-8.27657

>  <SCORE.INTER>
-8.27657

>  <SCORE.INTER.CONST>
1

>  <SCORE.INTER.POLAR>
0

>  <SCORE.INTER.ROT>
0

>  <SCORE.INTER.SOLV>
7.68163

>  <SCORE.INTER.VDW>
-11.6783

>  <SCORE.INTER.norm>
-1.03457

>  <SCORE.INTRA>
0

>  <SCORE.INTRA.DIHEDRAL>
0

>  <SCORE.INTRA.DIHEDRAL.0>
0

>  <SCORE.INTRA.POLAR>
0

>  <SCORE.INTRA.POLAR.0>
0

>  <SCORE.INTRA.REPUL>
0

>  <SCORE.INTRA.REPUL.0>
0

>  <SCORE.INTRA.SOLV>
0

>  <SCORE.INTRA.SOLV.lig_0>
-29.58

>  <SCORE.INTRA.VDW>
0

>  <SCORE.INTRA.VDW.0>
0

>  <SCORE.INTRA.norm>
0

>  <SCORE.RESTR>
0

>  <SCORE.RESTR.CAVITY>
0

>  <SCORE.RESTR.norm>
0

>  <SCORE.SYSTEM>
0

>  <SCORE.SYSTEM.CONST>
0

>  <SCORE.SYSTEM.DIHEDRAL>
0

>  <SCORE.SYSTEM.SOLV>
0

>  <SCORE.SYSTEM.norm>
0

>  <SCORE.heavy>
8

>  <SCORE.norm>
-1.03457

>  <RMSD>
3.579

$$$$
ligand
 OpenBabel02271912143D
libRbt.so/2013.1/901 2013/11/27
  8  8  0  0  0  0  0  0  0  0999 V2000
   10.2084    9.4201   -1.4679 C   0  0  0  0  0  0  0  0  0  0  0  0
   10.2818    9.9305   -0.2388 N   0  0  0  0  0  0  0  0  0  0  0  0
   10.1041   11.2415   -0.0556 C   0  0  0  0  0  0  0  0  0  0  0  0
    9.8352   12.0465   -1.1099 N   0  0  0  0  0  0  0  0  0  0  0  0
    9.7697   11.5210   -2.3448 C   0  0  0  0  0  0  0  0  0  0  0  0
    9.9517   10.2041   -2.5282 N   0  0  0  0  0  0  0  0  0  0  0  0
   10.1954   11.7736    1.3203 N   0  0  0  0  0  0  0  0  0  0  0  0
   10.3929    8.0878   -1.6136 O   0  0  0  0  0  0  0  0  0  0  0  0
  1  2  1  0  0  0  0
  1  6  1  0  0  0  0
  1  8  2  0  0  0  0
  2  3  1  0  0  0  0
  3  4  2  0  0  0  0
  3  7  1  0  0  0  0
  4  5  1  0  0  0  0
  5  6  2  0  0  0  0
M  END
>  <CHROM.1>
10.10155690,10.47207933,-1.00026742,-1.33385689,-1.37224074,0.88677658

>  <Name>
ligand

>  <RI>
0

>  <Rbt.Current_Directory>
/home/itssahil/PROJECTS/Mol_Feturizer/Test_systems_manuscript/rnas/3la5

>  <Rbt.Executable>
rbdock ($Id: //depot/dev/client3/rdock/2013.1/src/exe/rbdock.cxx#4 $)

>  <Rbt.Library>
libRbt.so (2013.1, Build901 2013/11/27)

>  <Rbt.Parameter_File>
/export/apps/rDock/src/rDock_2013.1_src/data/scripts/dock_solv.prm

>  <Rbt.Receptor>
prm/pocket_docking_6.prm

>  <SCORE>
-8.32825

>  <SCORE.INTER>
-8.32825

>  <SCORE.INTER.CONST>
1

>  <SCORE.INTER.POLAR>
0

>  <SCORE.INTER.ROT>
0

>  <SCORE.INTER.SOLV>
7.85939

>  <SCORE.INTER.VDW>
-11.772

>  <SCORE.INTER.norm>
-1.04103

>  <SCORE.INTRA>
0

>  <SCORE.INTRA.DIHEDRAL>
0

>  <SCORE.INTRA.DIHEDRAL.0>
0

>  <SCORE.INTRA.POLAR>
0

>  <SCORE.INTRA.POLAR.0>
0

>  <SCORE.INTRA.REPUL>
0

>  <SCORE.INTRA.REPUL.0>
0

>  <SCORE.INTRA.SOLV>
0

>  <SCORE.INTRA.SOLV.lig_0>
-29.58

>  <SCORE.INTRA.VDW>
0

>  <SCORE.INTRA.VDW.0>
0

>  <SCORE.INTRA.norm>
0

>  <SCORE.RESTR>
0

>  <SCORE.RESTR.CAVITY>
0

>  <SCORE.RESTR.norm>
0

>  <SCORE.SYSTEM>
0

>  <SCORE.SYSTEM.CONST>
0

>  <SCORE.SYSTEM.DIHEDRAL>
0

>  <SCORE.SYSTEM.SOLV>
0

>  <SCORE.SYSTEM.norm>
0

>  <SCORE.heavy>
8

>  <SCORE.norm>
-1.04103

>  <RMSD>
3.579

$$$$
ligand
 OpenBabel02271912143D
libRbt.so/2013.1/901 2013/11/27
  8  8  0  0  0  0  0  0  0  0999 V2000
   10.2115    9.4294   -1.4706 C   0  0  0  0  0  0  0  0  0  0  0  0
   10.2974    9.9481   -0.2459 N   0  0  0  0  0  0  0  0  0  0  0  0
   10.1245   11.2608   -0.0701 C   0  0  0  0  0  0  0  0  0  0  0  0
    9.8480   12.0591   -1.1275 N   0  0  0  0  0  0  0  0  0  0  0  0
    9.7699   11.5253   -2.3580 C   0  0  0  0  0  0  0  0  0  0  0  0
    9.9470   10.2067   -2.5340 N   0  0  0  0  0  0  0  0  0  0  0  0
   10.2297   11.8022    1.3012 N   0  0  0  0  0  0  0  0  0  0  0  0
   10.3915    8.0957   -1.6087 O   0  0  0  0  0  0  0  0  0  0  0  0
  1  2  1  0  0  0  0
  1  6  1  0  0  0  0
  1  8  2  0  0  0  0
  2  3  1  0  0  0  0
  3  4  2  0  0  0  0
  3  7  1  0  0  0  0
  4  5  1  0  0  0  0
  5  6  2  0  0  0  0
M  END
>  <CHROM.1>
10.11148250,10.48485261,-1.00935014,-1.37657517,-1.36817685,0.83799578

>  <Name>
ligand

>  <RI>
0

>  <Rbt.Current_Directory>
/home/itssahil/PROJECTS/Mol_Feturizer/Test_systems_manuscript/rnas/3la5

>  <Rbt.Executable>
rbdock ($Id: //depot/dev/client3/rdock/2013.1/src/exe/rbdock.cxx#4 $)

>  <Rbt.Library>
libRbt.so (2013.1, Build901 2013/11/27)

>  <Rbt.Parameter_File>
/export/apps/rDock/src/rDock_2013.1_src/data/scripts/dock_solv.prm

>  <Rbt.Receptor>
prm/blind_docking_100.prm

>  <SCORE>
-8.33089

>  <SCORE.INTER>
-8.33089

>  <SCORE.INTER.CONST>
1

>  <SCORE.INTER.POLAR>
0

>  <SCORE.INTER.ROT>
0

>  <SCORE.INTER.SOLV>
7.70909

>  <SCORE.INTER.VDW>
-11.7236

>  <SCORE.INTER.norm>
-1.04136

>  <SCORE.INTRA>
0

>  <SCORE.INTRA.DIHEDRAL>
0

>  <SCORE.INTRA.DIHEDRAL.0>
0

>  <SCORE.INTRA.POLAR>
0

>  <SCORE.INTRA.POLAR.0>
0

>  <SCORE.INTRA.REPUL>
0

>  <SCORE.INTRA.REPUL.0>
0

>  <SCORE.INTRA.SOLV>
0

>  <SCORE.INTRA.SOLV.lig_0>
-29.58

>  <SCORE.INTRA.VDW>
0

>  <SCORE.INTRA.VDW.0>
0

>  <SCORE.INTRA.norm>
0

>  <SCORE.RESTR>
0

>  <SCORE.RESTR.CAVITY>
0

>  <SCORE.RESTR.norm>
0

>  <SCORE.SYSTEM>
0

>  <SCORE.SYSTEM.CONST>
0

>  <SCORE.SYSTEM.DIHEDRAL>
0

>  <SCORE.SYSTEM.SOLV>
0

>  <SCORE.SYSTEM.norm>
0

>  <SCORE.heavy>
8

>  <SCORE.norm>
-1.04136

>  <RMSD>
3.580

$$$$
ligand
 OpenBabel02271912143D
libRbt.so/2013.1/901 2013/11/27
  8  8  0  0  0  0  0  0  0  0999 V2000
   10.2081    9.4261   -1.4710 C   0  0  0  0  0  0  0  0  0  0  0  0
   10.2933    9.9460   -0.2467 N   0  0  0  0  0  0  0  0  0  0  0  0
   10.1269   11.2598   -0.0731 C   0  0  0  0  0  0  0  0  0  0  0  0
    9.8575   12.0582   -1.1323 N   0  0  0  0  0  0  0  0  0  0  0  0
    9.7799   11.5231   -2.3624 C   0  0  0  0  0  0  0  0  0  0  0  0
    9.9506   10.2033   -2.5361 N   0  0  0  0  0  0  0  0  0  0  0  0
   10.2311   11.8025    1.2978 N   0  0  0  0  0  0  0  0  0  0  0  0
   10.3813    8.0913   -1.6068 O   0  0  0  0  0  0  0  0  0  0  0  0
  1  2  1  0  0  0  0
  1  6  1  0  0  0  0
  1  8  2  0  0  0  0
  2  3  1  0  0  0  0
  3  4  2  0  0  0  0
  3  7  1  0  0  0  0
  4  5  1  0  0  0  0
  5  6  2  0  0  0  0
M  END
>  <CHROM.1>
10.11233167,10.48269803,-1.01137292,-1.38422534,-1.37392681,0.82916820

>  <Name>
ligand

>  <RI>
0

>  <Rbt.Current_Directory>
/home/itssahil/PROJECTS/Mol_Feturizer/Test_systems_manuscript/rnas/3la5

>  <Rbt.Executable>
rbdock ($Id: //depot/dev/client3/rdock/2013.1/src/exe/rbdock.cxx#4 $)

>  <Rbt.Library>
libRbt.so (2013.1, Build901 2013/11/27)

>  <Rbt.Parameter_File>
/export/apps/rDock/src/rDock_2013.1_src/data/scripts/dock_solv.prm

>  <Rbt.Receptor>
prm/pocket_docking_5.prm

>  <SCORE>
-8.33594

>  <SCORE.INTER>
-8.33594

>  <SCORE.INTER.CONST>
1

>  <SCORE.INTER.POLAR>
0

>  <SCORE.INTER.ROT>
0

>  <SCORE.INTER.SOLV>
7.7086

>  <SCORE.INTER.VDW>
-11.7268

>  <SCORE.INTER.norm>
-1.04199

>  <SCORE.INTRA>
0

>  <SCORE.INTRA.DIHEDRAL>
0

>  <SCORE.INTRA.DIHEDRAL.0>
0

>  <SCORE.INTRA.POLAR>
0

>  <SCORE.INTRA.POLAR.0>
0

>  <SCORE.INTRA.REPUL>
0

>  <SCORE.INTRA.REPUL.0>
0

>  <SCORE.INTRA.SOLV>
0

>  <SCORE.INTRA.SOLV.lig_0>
-29.58

>  <SCORE.INTRA.VDW>
0

>  <SCORE.INTRA.VDW.0>
0

>  <SCORE.INTRA.norm>
0

>  <SCORE.RESTR>
0

>  <SCORE.RESTR.CAVITY>
0

>  <SCORE.RESTR.norm>
0

>  <SCORE.SYSTEM>
0

>  <SCORE.SYSTEM.CONST>
0

>  <SCORE.SYSTEM.DIHEDRAL>
0

>  <SCORE.SYSTEM.SOLV>
0

>  <SCORE.SYSTEM.norm>
0

>  <SCORE.heavy>
8

>  <SCORE.norm>
-1.04199

>  <RMSD>
3.583

$$$$
ligand
 OpenBabel02271912143D
libRbt.so/2013.1/901 2013/11/27
  8  8  0  0  0  0  0  0  0  0999 V2000
   10.2099    9.4198   -1.4693 C   0  0  0  0  0  0  0  0  0  0  0  0
   10.3115    9.9373   -0.2452 N   0  0  0  0  0  0  0  0  0  0  0  0
   10.1519   11.2515   -0.0676 C   0  0  0  0  0  0  0  0  0  0  0  0
    9.8728   12.0526   -1.1222 N   0  0  0  0  0  0  0  0  0  0  0  0
    9.7788   11.5198   -2.3522 C   0  0  0  0  0  0  0  0  0  0  0  0
    9.9426   10.1997   -2.5300 N   0  0  0  0  0  0  0  0  0  0  0  0
   10.2743   11.7915    1.3028 N   0  0  0  0  0  0  0  0  0  0  0  0
   10.3767    8.0846   -1.6093 O   0  0  0  0  0  0  0  0  0  0  0  0
  1  2  1  0  0  0  0
  1  6  1  0  0  0  0
  1  8  2  0  0  0  0
  2  3  1  0  0  0  0
  3  4  2  0  0  0  0
  3  7  1  0  0  0  0
  4  5  1  0  0  0  0
  5  6  2  0  0  0  0
M  END
>  <CHROM.1>
10.12338300,10.47596913,-1.00687373,-1.43983050,-1.36828765,0.77630172

>  <Name>
ligand

>  <RI>
0

>  <Rbt.Current_Directory>
/home/itssahil/PROJECTS/Mol_Feturizer/Test_systems_manuscript/rnas/3la5

>  <Rbt.Executable>
rbdock ($Id: //depot/dev/client3/rdock/2013.1/src/exe/rbdock.cxx#4 $)

>  <Rbt.Library>
libRbt.so (2013.1, Build901 2013/11/27)

>  <Rbt.Parameter_File>
/export/apps/rDock/src/rDock_2013.1_src/data/scripts/dock_solv.prm

>  <Rbt.Receptor>
prm/pocket_docking_7.prm

>  <SCORE>
-8.31781

>  <SCORE.INTER>
-8.31781

>  <SCORE.INTER.CONST>
1

>  <SCORE.INTER.POLAR>
0

>  <SCORE.INTER.ROT>
0

>  <SCORE.INTER.SOLV>
7.67911

>  <SCORE.INTER.VDW>
-11.7049

>  <SCORE.INTER.norm>
-1.03973

>  <SCORE.INTRA>
0

>  <SCORE.INTRA.DIHEDRAL>
0

>  <SCORE.INTRA.DIHEDRAL.0>
0

>  <SCORE.INTRA.POLAR>
0

>  <SCORE.INTRA.POLAR.0>
0

>  <SCORE.INTRA.REPUL>
0

>  <SCORE.INTRA.REPUL.0>
0

>  <SCORE.INTRA.SOLV>
0

>  <SCORE.INTRA.SOLV.lig_0>
-29.58

>  <SCORE.INTRA.VDW>
0

>  <SCORE.INTRA.VDW.0>
0

>  <SCORE.INTRA.norm>
0

>  <SCORE.RESTR>
0

>  <SCORE.RESTR.CAVITY>
0

>  <SCORE.RESTR.norm>
0

>  <SCORE.SYSTEM>
0

>  <SCORE.SYSTEM.CONST>
0

>  <SCORE.SYSTEM.DIHEDRAL>
0

>  <SCORE.SYSTEM.SOLV>
0

>  <SCORE.SYSTEM.norm>
0

>  <SCORE.heavy>
8

>  <SCORE.norm>
-1.03973

>  <RMSD>
3.583

$$$$
ligand
 OpenBabel02271912143D
libRbt.so/2013.1/901 2013/11/27
  8  8  0  0  0  0  0  0  0  0999 V2000
   10.2161    9.4236   -1.4713 C   0  0  0  0  0  0  0  0  0  0  0  0
   10.3002    9.9441   -0.2472 N   0  0  0  0  0  0  0  0  0  0  0  0
   10.1299   11.2575   -0.0741 C   0  0  0  0  0  0  0  0  0  0  0  0
    9.8578   12.0547   -1.1335 N   0  0  0  0  0  0  0  0  0  0  0  0
    9.7815   11.5189   -2.3633 C   0  0  0  0  0  0  0  0  0  0  0  0
    9.9560   10.1996   -2.5366 N   0  0  0  0  0  0  0  0  0  0  0  0
   10.2329   11.8010    1.2966 N   0  0  0  0  0  0  0  0  0  0  0  0
   10.3933    8.0892   -1.6067 O   0  0  0  0  0  0  0  0  0  0  0  0
  1  2  1  0  0  0  0
  1  6  1  0  0  0  0
  1  8  2  0  0  0  0
  2  3  1  0  0  0  0
  3  4  2  0  0  0  0
  3  7  1  0  0  0  0
  4  5  1  0  0  0  0
  5  6  2  0  0  0  0
M  END
>  <CHROM.1>
10.11737493,10.48000157,-1.01205832,-1.37520982,-1.37154322,0.83764242

>  <Name>
ligand

>  <RI>
0

>  <Rbt.Current_Directory>
/home/itssahil/PROJECTS/Mol_Feturizer/Test_systems_manuscript/rnas/3la5

>  <Rbt.Executable>
rbdock ($Id: //depot/dev/client3/rdock/2013.1/src/exe/rbdock.cxx#4 $)

>  <Rbt.Library>
libRbt.so (2013.1, Build901 2013/11/27)

>  <Rbt.Parameter_File>
/export/apps/rDock/src/rDock_2013.1_src/data/scripts/dock_solv.prm

>  <Rbt.Receptor>
prm/blind_docking_40.prm

>  <SCORE>
-8.33129

>  <SCORE.INTER>
-8.33129

>  <SCORE.INTER.CONST>
1

>  <SCORE.INTER.POLAR>
0

>  <SCORE.INTER.ROT>
0

>  <SCORE.INTER.SOLV>
7.7098

>  <SCORE.INTER.VDW>
-11.7241

>  <SCORE.INTER.norm>
-1.04141

>  <SCORE.INTRA>
0

>  <SCORE.INTRA.DIHEDRAL>
0

>  <SCORE.INTRA.DIHEDRAL.0>
0

>  <SCORE.INTRA.POLAR>
0

>  <SCORE.INTRA.POLAR.0>
0

>  <SCORE.INTRA.REPUL>
0

>  <SCORE.INTRA.REPUL.0>
0

>  <SCORE.INTRA.SOLV>
0

>  <SCORE.INTRA.SOLV.lig_0>
-29.58

>  <SCORE.INTRA.VDW>
0

>  <SCORE.INTRA.VDW.0>
0

>  <SCORE.INTRA.norm>
0

>  <SCORE.RESTR>
0

>  <SCORE.RESTR.CAVITY>
0

>  <SCORE.RESTR.norm>
0

>  <SCORE.SYSTEM>
0

>  <SCORE.SYSTEM.CONST>
0

>  <SCORE.SYSTEM.DIHEDRAL>
0

>  <SCORE.SYSTEM.SOLV>
0

>  <SCORE.SYSTEM.norm>
0

>  <SCORE.heavy>
8

>  <SCORE.norm>
-1.04141

>  <RMSD>
3.584

$$$$
ligand
 OpenBabel02271912143D
libRbt.so/2013.1/901 2013/11/27
  8  8  0  0  0  0  0  0  0  0999 V2000
   10.2088    9.4087   -1.4644 C   0  0  0  0  0  0  0  0  0  0  0  0
   10.2709    9.9216   -0.2358 N   0  0  0  0  0  0  0  0  0  0  0  0
   10.1019   11.2345   -0.0581 C   0  0  0  0  0  0  0  0  0  0  0  0
    9.8531   12.0390   -1.1177 N   0  0  0  0  0  0  0  0  0  0  0  0
    9.7988   11.5108   -2.3520 C   0  0  0  0  0  0  0  0  0  0  0  0
    9.9721   10.1920   -2.5298 N   0  0  0  0  0  0  0  0  0  0  0  0
   10.1802   11.7694    1.3176 N   0  0  0  0  0  0  0  0  0  0  0  0
   10.3840    8.0745   -1.6044 O   0  0  0  0  0  0  0  0  0  0  0  0
  1  2  1  0  0  0  0
  1  6  1  0  0  0  0
  1  8  2  0  0  0  0
  2  3  1  0  0  0  0
  3  4  2  0  0  0  0
  3  7  1  0  0  0  0
  4  5  1  0  0  0  0
  5  6  2  0  0  0  0
M  END
>  <CHROM.1>
10.10486587,10.46268711,-1.00077530,-1.30913291,-1.38669138,0.90850608

>  <Name>
ligand

>  <RI>
0

>  <Rbt.Current_Directory>
/home/itssahil/PROJECTS/Mol_Feturizer/Test_systems_manuscript/rnas/3la5

>  <Rbt.Executable>
rbdock ($Id: //depot/dev/client3/rdock/2013.1/src/exe/rbdock.cxx#4 $)

>  <Rbt.Library>
libRbt.so (2013.1, Build901 2013/11/27)

>  <Rbt.Parameter_File>
/export/apps/rDock/src/rDock_2013.1_src/data/scripts/dock_solv.prm

>  <Rbt.Receptor>
prm/blind_docking_60.prm

>  <SCORE>
-8.31825

>  <SCORE.INTER>
-8.31825

>  <SCORE.INTER.CONST>
1

>  <SCORE.INTER.POLAR>
0

>  <SCORE.INTER.ROT>
0

>  <SCORE.INTER.SOLV>
7.90309

>  <SCORE.INTER.VDW>
-11.7799

>  <SCORE.INTER.norm>
-1.03978

>  <SCORE.INTRA>
0

>  <SCORE.INTRA.DIHEDRAL>
0

>  <SCORE.INTRA.DIHEDRAL.0>
0

>  <SCORE.INTRA.POLAR>
0

>  <SCORE.INTRA.POLAR.0>
0

>  <SCORE.INTRA.REPUL>
0

>  <SCORE.INTRA.REPUL.0>
0

>  <SCORE.INTRA.SOLV>
0

>  <SCORE.INTRA.SOLV.lig_0>
-29.58

>  <SCORE.INTRA.VDW>
0

>  <SCORE.INTRA.VDW.0>
0

>  <SCORE.INTRA.norm>
0

>  <SCORE.RESTR>
0

>  <SCORE.RESTR.CAVITY>
0

>  <SCORE.RESTR.norm>
0

>  <SCORE.SYSTEM>
0

>  <SCORE.SYSTEM.CONST>
0

>  <SCORE.SYSTEM.DIHEDRAL>
0

>  <SCORE.SYSTEM.SOLV>
0

>  <SCORE.SYSTEM.norm>
0

>  <SCORE.heavy>
8

>  <SCORE.norm>
-1.03978

>  <RMSD>
3.585

$$$$
ligand
 OpenBabel02271912143D
libRbt.so/2013.1/901 2013/11/27
  8  8  0  0  0  0  0  0  0  0999 V2000
   10.2029    9.4281   -1.4748 C   0  0  0  0  0  0  0  0  0  0  0  0
   10.2911    9.9471   -0.2504 N   0  0  0  0  0  0  0  0  0  0  0  0
   10.1258   11.2609   -0.0757 C   0  0  0  0  0  0  0  0  0  0  0  0
    9.8546   12.0601   -1.1338 N   0  0  0  0  0  0  0  0  0  0  0  0
    9.7741   11.5258   -2.3640 C   0  0  0  0  0  0  0  0  0  0  0  0
    9.9436   10.2061   -2.5389 N   0  0  0  0  0  0  0  0  0  0  0  0
   10.2334   11.8026    1.2954 N   0  0  0  0  0  0  0  0  0  0  0  0
   10.3750    8.0932   -1.6119 O   0  0  0  0  0  0  0  0  0  0  0  0
  1  2  1  0  0  0  0
  1  6  1  0  0  0  0
  1  8  2  0  0  0  0
  2  3  1  0  0  0  0
  3  4  2  0  0  0  0
  3  7  1  0  0  0  0
  4  5  1  0  0  0  0
  5  6  2  0  0  0  0
M  END
>  <CHROM.1>
10.10877435,10.48438644,-1.01436274,-1.39451547,-1.37292768,0.81971233

>  <Name>
ligand

>  <RI>
0

>  <Rbt.Current_Directory>
/home/itssahil/PROJECTS/Mol_Feturizer/Test_systems_manuscript/rnas/3la5

>  <Rbt.Executable>
rbdock ($Id: //depot/dev/client3/rdock/2013.1/src/exe/rbdock.cxx#4 $)

>  <Rbt.Library>
libRbt.so (2013.1, Build901 2013/11/27)

>  <Rbt.Parameter_File>
/export/apps/rDock/src/rDock_2013.1_src/data/scripts/dock_solv.prm

>  <Rbt.Receptor>
prm/blind_docking_80.prm

>  <SCORE>
-8.33529

>  <SCORE.INTER>
-8.33529

>  <SCORE.INTER.CONST>
1

>  <SCORE.INTER.POLAR>
0

>  <SCORE.INTER.ROT>
0

>  <SCORE.INTER.SOLV>
7.70245

>  <SCORE.INTER.VDW>
-11.7243

>  <SCORE.INTER.norm>
-1.04191

>  <SCORE.INTRA>
0

>  <SCORE.INTRA.DIHEDRAL>
0

>  <SCORE.INTRA.DIHEDRAL.0>
0

>  <SCORE.INTRA.POLAR>
0

>  <SCORE.INTRA.POLAR.0>
0

>  <SCORE.INTRA.REPUL>
0

>  <SCORE.INTRA.REPUL.0>
0

>  <SCORE.INTRA.SOLV>
0

>  <SCORE.INTRA.SOLV.lig_0>
-29.58

>  <SCORE.INTRA.VDW>
0

>  <SCORE.INTRA.VDW.0>
0

>  <SCORE.INTRA.norm>
0

>  <SCORE.RESTR>
0

>  <SCORE.RESTR.CAVITY>
0

>  <SCORE.RESTR.norm>
0

>  <SCORE.SYSTEM>
0

>  <SCORE.SYSTEM.CONST>
0

>  <SCORE.SYSTEM.DIHEDRAL>
0

>  <SCORE.SYSTEM.SOLV>
0

>  <SCORE.SYSTEM.norm>
0

>  <SCORE.heavy>
8

>  <SCORE.norm>
-1.04191

>  <RMSD>
3.585

$$$$
ligand
 OpenBabel02271912143D
libRbt.so/2013.1/901 2013/11/27
  8  8  0  0  0  0  0  0  0  0999 V2000
   10.2061    9.4238   -1.4707 C   0  0  0  0  0  0  0  0  0  0  0  0
   10.2916    9.9440   -0.2465 N   0  0  0  0  0  0  0  0  0  0  0  0
   10.1258   11.2579   -0.0733 C   0  0  0  0  0  0  0  0  0  0  0  0
    9.8568   12.0561   -1.1328 N   0  0  0  0  0  0  0  0  0  0  0  0
    9.7789   11.5207   -2.3627 C   0  0  0  0  0  0  0  0  0  0  0  0
    9.9489   10.2008   -2.5360 N   0  0  0  0  0  0  0  0  0  0  0  0
   10.2304   11.8009    1.2974 N   0  0  0  0  0  0  0  0  0  0  0  0
   10.3787    8.0888   -1.6061 O   0  0  0  0  0  0  0  0  0  0  0  0
  1  2  1  0  0  0  0
  1  6  1  0  0  0  0
  1  8  2  0  0  0  0
  2  3  1  0  0  0  0
  3  4  2  0  0  0  0
  3  7  1  0  0  0  0
  4  5  1  0  0  0  0
  5  6  2  0  0  0  0
M  END
>  <CHROM.1>
10.11087672,10.48055098,-1.01136984,-1.38608755,-1.37425755,0.82705232

>  <Name>
ligand

>  <RI>
0

>  <Rbt.Current_Directory>
/home/itssahil/PROJECTS/Mol_Feturizer/Test_systems_manuscript/rnas/3la5

>  <Rbt.Executable>
rbdock ($Id: //depot/dev/client3/rdock/2013.1/src/exe/rbdock.cxx#4 $)

>  <Rbt.Library>
libRbt.so (2013.1, Build901 2013/11/27)

>  <Rbt.Parameter_File>
/export/apps/rDock/src/rDock_2013.1_src/data/scripts/dock_solv.prm

>  <Rbt.Receptor>
prm/pocket_docking_6.prm

>  <SCORE>
-8.33497

>  <SCORE.INTER>
-8.33497

>  <SCORE.INTER.CONST>
1

>  <SCORE.INTER.POLAR>
0

>  <SCORE.INTER.ROT>
0

>  <SCORE.INTER.SOLV>
7.7142

>  <SCORE.INTER.VDW>
-11.728

>  <SCORE.INTER.norm>
-1.04187

>  <SCORE.INTRA>
0

>  <SCORE.INTRA.DIHEDRAL>
0

>  <SCORE.INTRA.DIHEDRAL.0>
0

>  <SCORE.INTRA.POLAR>
0

>  <SCORE.INTRA.POLAR.0>
0

>  <SCORE.INTRA.REPUL>
0

>  <SCORE.INTRA.REPUL.0>
0

>  <SCORE.INTRA.SOLV>
0

>  <SCORE.INTRA.SOLV.lig_0>
-29.58

>  <SCORE.INTRA.VDW>
0

>  <SCORE.INTRA.VDW.0>
0

>  <SCORE.INTRA.norm>
0

>  <SCORE.RESTR>
0

>  <SCORE.RESTR.CAVITY>
0

>  <SCORE.RESTR.norm>
0

>  <SCORE.SYSTEM>
0

>  <SCORE.SYSTEM.CONST>
0

>  <SCORE.SYSTEM.DIHEDRAL>
0

>  <SCORE.SYSTEM.SOLV>
0

>  <SCORE.SYSTEM.norm>
0

>  <SCORE.heavy>
8

>  <SCORE.norm>
-1.04187

>  <RMSD>
3.585

$$$$
ligand
 OpenBabel02271912143D
libRbt.so/2013.1/901 2013/11/27
  8  8  0  0  0  0  0  0  0  0999 V2000
   10.2183    9.4002   -1.4682 C   0  0  0  0  0  0  0  0  0  0  0  0
   10.2833    9.9081   -0.2376 N   0  0  0  0  0  0  0  0  0  0  0  0
   10.0996   11.2180   -0.0525 C   0  0  0  0  0  0  0  0  0  0  0  0
    9.8332   12.0243   -1.1065 N   0  0  0  0  0  0  0  0  0  0  0  0
    9.7760   11.5012   -2.3428 C   0  0  0  0  0  0  0  0  0  0  0  0
    9.9640   10.1854   -2.5281 N   0  0  0  0  0  0  0  0  0  0  0  0
   10.1818   11.7475    1.3250 N   0  0  0  0  0  0  0  0  0  0  0  0
   10.4086    8.0689   -1.6158 O   0  0  0  0  0  0  0  0  0  0  0  0
  1  2  1  0  0  0  0
  1  6  1  0  0  0  0
  1  8  2  0  0  0  0
  2  3  1  0  0  0  0
  3  4  2  0  0  0  0
  3  7  1  0  0  0  0
  4  5  1  0  0  0  0
  5  6  2  0  0  0  0
M  END
>  <CHROM.1>
10.10493193,10.45067652,-0.99883517,-1.30116176,-1.37246332,0.92100709

>  <Name>
ligand

>  <RI>
0

>  <Rbt.Current_Directory>
/home/itssahil/PROJECTS/Mol_Feturizer/Test_systems_manuscript/rnas/3la5

>  <Rbt.Executable>
rbdock ($Id: //depot/dev/client3/rdock/2013.1/src/exe/rbdock.cxx#4 $)

>  <Rbt.Library>
libRbt.so (2013.1, Build901 2013/11/27)

>  <Rbt.Parameter_File>
/export/apps/rDock/src/rDock_2013.1_src/data/scripts/dock_solv.prm

>  <Rbt.Receptor>
prm/pocket_docking_6.prm

>  <SCORE>
-8.31333

>  <SCORE.INTER>
-8.31333

>  <SCORE.INTER.CONST>
1

>  <SCORE.INTER.POLAR>
0

>  <SCORE.INTER.ROT>
0

>  <SCORE.INTER.SOLV>
7.97065

>  <SCORE.INTER.VDW>
-11.7991

>  <SCORE.INTER.norm>
-1.03917

>  <SCORE.INTRA>
0

>  <SCORE.INTRA.DIHEDRAL>
0

>  <SCORE.INTRA.DIHEDRAL.0>
0

>  <SCORE.INTRA.POLAR>
0

>  <SCORE.INTRA.POLAR.0>
0

>  <SCORE.INTRA.REPUL>
0

>  <SCORE.INTRA.REPUL.0>
0

>  <SCORE.INTRA.SOLV>
0

>  <SCORE.INTRA.SOLV.lig_0>
-29.58

>  <SCORE.INTRA.VDW>
0

>  <SCORE.INTRA.VDW.0>
0

>  <SCORE.INTRA.norm>
0

>  <SCORE.RESTR>
0

>  <SCORE.RESTR.CAVITY>
0

>  <SCORE.RESTR.norm>
0

>  <SCORE.SYSTEM>
0

>  <SCORE.SYSTEM.CONST>
0

>  <SCORE.SYSTEM.DIHEDRAL>
0

>  <SCORE.SYSTEM.SOLV>
0

>  <SCORE.SYSTEM.norm>
0

>  <SCORE.heavy>
8

>  <SCORE.norm>
-1.03917

>  <RMSD>
3.585

$$$$
ligand
 OpenBabel02271912143D
libRbt.so/2013.1/901 2013/11/27
  8  8  0  0  0  0  0  0  0  0999 V2000
   10.2082    9.4266   -1.4727 C   0  0  0  0  0  0  0  0  0  0  0  0
   10.3170    9.9489   -0.2513 N   0  0  0  0  0  0  0  0  0  0  0  0
   10.1617   11.2641   -0.0783 C   0  0  0  0  0  0  0  0  0  0  0  0
    9.8796   12.0616   -1.1349 N   0  0  0  0  0  0  0  0  0  0  0  0
    9.7783   11.5240   -2.3622 C   0  0  0  0  0  0  0  0  0  0  0  0
    9.9378   10.2028   -2.5353 N   0  0  0  0  0  0  0  0  0  0  0  0
   10.2922   11.8095    1.2892 N   0  0  0  0  0  0  0  0  0  0  0  0
   10.3708    8.0904   -1.6081 O   0  0  0  0  0  0  0  0  0  0  0  0
  1  2  1  0  0  0  0
  1  6  1  0  0  0  0
  1  8  2  0  0  0  0
  2  3  1  0  0  0  0
  3  4  2  0  0  0  0
  3  7  1  0  0  0  0
  4  5  1  0  0  0  0
  5  6  2  0  0  0  0
M  END
>  <CHROM.1>
10.12667436,10.48487060,-1.01425887,-1.46574069,-1.36658857,0.74680472

>  <Name>
ligand

>  <RI>
0

>  <Rbt.Current_Directory>
/home/itssahil/PROJECTS/Mol_Feturizer/Test_systems_manuscript/rnas/3la5

>  <Rbt.Executable>
rbdock ($Id: //depot/dev/client3/rdock/2013.1/src/exe/rbdock.cxx#4 $)

>  <Rbt.Library>
libRbt.so (2013.1, Build901 2013/11/27)

>  <Rbt.Parameter_File>
/export/apps/rDock/src/rDock_2013.1_src/data/scripts/dock_solv.prm

>  <Rbt.Receptor>
prm/pocket_docking_8.prm

>  <SCORE>
-8.3194

>  <SCORE.INTER>
-8.3194

>  <SCORE.INTER.CONST>
1

>  <SCORE.INTER.POLAR>
0

>  <SCORE.INTER.ROT>
0

>  <SCORE.INTER.SOLV>
7.61666

>  <SCORE.INTER.VDW>
-11.6852

>  <SCORE.INTER.norm>
-1.03993

>  <SCORE.INTRA>
0

>  <SCORE.INTRA.DIHEDRAL>
0

>  <SCORE.INTRA.DIHEDRAL.0>
0

>  <SCORE.INTRA.POLAR>
0

>  <SCORE.INTRA.POLAR.0>
0

>  <SCORE.INTRA.REPUL>
0

>  <SCORE.INTRA.REPUL.0>
0

>  <SCORE.INTRA.SOLV>
0

>  <SCORE.INTRA.SOLV.lig_0>
-29.58

>  <SCORE.INTRA.VDW>
0

>  <SCORE.INTRA.VDW.0>
0

>  <SCORE.INTRA.norm>
0

>  <SCORE.RESTR>
0

>  <SCORE.RESTR.CAVITY>
0

>  <SCORE.RESTR.norm>
0

>  <SCORE.SYSTEM>
0

>  <SCORE.SYSTEM.CONST>
0

>  <SCORE.SYSTEM.DIHEDRAL>
0

>  <SCORE.SYSTEM.SOLV>
0

>  <SCORE.SYSTEM.norm>
0

>  <SCORE.heavy>
8

>  <SCORE.norm>
-1.03993

>  <RMSD>
3.585

$$$$
ligand
 OpenBabel02271912143D
libRbt.so/2013.1/901 2013/11/27
  8  8  0  0  0  0  0  0  0  0999 V2000
   10.1996    9.4203   -1.4747 C   0  0  0  0  0  0  0  0  0  0  0  0
   10.3050    9.9370   -0.2506 N   0  0  0  0  0  0  0  0  0  0  0  0
   10.1512   11.2518   -0.0724 C   0  0  0  0  0  0  0  0  0  0  0  0
    9.8742   12.0544   -1.1265 N   0  0  0  0  0  0  0  0  0  0  0  0
    9.7763   11.5223   -2.3564 C   0  0  0  0  0  0  0  0  0  0  0  0
    9.9343   10.2017   -2.5348 N   0  0  0  0  0  0  0  0  0  0  0  0
   10.2777   11.7909    1.2980 N   0  0  0  0  0  0  0  0  0  0  0  0
   10.3606    8.0844   -1.6153 O   0  0  0  0  0  0  0  0  0  0  0  0
  1  2  1  0  0  0  0
  1  6  1  0  0  0  0
  1  8  2  0  0  0  0
  2  3  1  0  0  0  0
  3  4  2  0  0  0  0
  3  7  1  0  0  0  0
  4  5  1  0  0  0  0
  5  6  2  0  0  0  0
M  END
>  <CHROM.1>
10.11821448,10.47668822,-1.01186412,-1.45957747,-1.37031060,0.75724005

>  <Name>
ligand

>  <RI>
0

>  <Rbt.Current_Directory>
/home/itssahil/PROJECTS/Mol_Feturizer/Test_systems_manuscript/rnas/3la5

>  <Rbt.Executable>
rbdock ($Id: //depot/dev/client3/rdock/2013.1/src/exe/rbdock.cxx#4 $)

>  <Rbt.Library>
libRbt.so (2013.1, Build901 2013/11/27)

>  <Rbt.Parameter_File>
/export/apps/rDock/src/rDock_2013.1_src/data/scripts/dock_solv.prm

>  <Rbt.Receptor>
prm/blind_docking_40.prm

>  <SCORE>
-8.31913

>  <SCORE.INTER>
-8.31913

>  <SCORE.INTER.CONST>
1

>  <SCORE.INTER.POLAR>
0

>  <SCORE.INTER.ROT>
0

>  <SCORE.INTER.SOLV>
7.67253

>  <SCORE.INTER.VDW>
-11.7036

>  <SCORE.INTER.norm>
-1.03989

>  <SCORE.INTRA>
0

>  <SCORE.INTRA.DIHEDRAL>
0

>  <SCORE.INTRA.DIHEDRAL.0>
0

>  <SCORE.INTRA.POLAR>
0

>  <SCORE.INTRA.POLAR.0>
0

>  <SCORE.INTRA.REPUL>
0

>  <SCORE.INTRA.REPUL.0>
0

>  <SCORE.INTRA.SOLV>
0

>  <SCORE.INTRA.SOLV.lig_0>
-29.58

>  <SCORE.INTRA.VDW>
0

>  <SCORE.INTRA.VDW.0>
0

>  <SCORE.INTRA.norm>
0

>  <SCORE.RESTR>
0

>  <SCORE.RESTR.CAVITY>
0

>  <SCORE.RESTR.norm>
0

>  <SCORE.SYSTEM>
0

>  <SCORE.SYSTEM.CONST>
0

>  <SCORE.SYSTEM.DIHEDRAL>
0

>  <SCORE.SYSTEM.SOLV>
0

>  <SCORE.SYSTEM.norm>
0

>  <SCORE.heavy>
8

>  <SCORE.norm>
-1.03989

>  <RMSD>
3.587

$$$$
ligand
 OpenBabel02271912143D
libRbt.so/2013.1/901 2013/11/27
  8  8  0  0  0  0  0  0  0  0999 V2000
   10.1988    9.4244   -1.4752 C   0  0  0  0  0  0  0  0  0  0  0  0
   10.2870    9.9431   -0.2507 N   0  0  0  0  0  0  0  0  0  0  0  0
   10.1273   11.2576   -0.0763 C   0  0  0  0  0  0  0  0  0  0  0  0
    9.8615   12.0580   -1.1349 N   0  0  0  0  0  0  0  0  0  0  0  0
    9.7809   11.5240   -2.3653 C   0  0  0  0  0  0  0  0  0  0  0  0
    9.9449   10.2035   -2.5398 N   0  0  0  0  0  0  0  0  0  0  0  0
   10.2347   11.7989    1.2949 N   0  0  0  0  0  0  0  0  0  0  0  0
   10.3652    8.0887   -1.6119 O   0  0  0  0  0  0  0  0  0  0  0  0
  1  2  1  0  0  0  0
  1  6  1  0  0  0  0
  1  8  2  0  0  0  0
  2  3  1  0  0  0  0
  3  4  2  0  0  0  0
  3  7  1  0  0  0  0
  4  5  1  0  0  0  0
  5  6  2  0  0  0  0
M  END
>  <CHROM.1>
10.10850346,10.48113556,-1.01500337,-1.40321053,-1.37739564,0.81112600

>  <Name>
ligand

>  <RI>
0

>  <Rbt.Current_Directory>
/home/itssahil/PROJECTS/Mol_Feturizer/Test_systems_manuscript/rnas/3la5

>  <Rbt.Executable>
rbdock ($Id: //depot/dev/client3/rdock/2013.1/src/exe/rbdock.cxx#4 $)

>  <Rbt.Library>
libRbt.so (2013.1, Build901 2013/11/27)

>  <Rbt.Parameter_File>
/export/apps/rDock/src/rDock_2013.1_src/data/scripts/dock_solv.prm

>  <Rbt.Receptor>
prm/pocket_docking_7.prm

>  <SCORE>
-8.33744

>  <SCORE.INTER>
-8.33744

>  <SCORE.INTER.CONST>
1

>  <SCORE.INTER.POLAR>
0

>  <SCORE.INTER.ROT>
0

>  <SCORE.INTER.SOLV>
7.71049

>  <SCORE.INTER.VDW>
-11.7285

>  <SCORE.INTER.norm>
-1.04218

>  <SCORE.INTRA>
0

>  <SCORE.INTRA.DIHEDRAL>
0

>  <SCORE.INTRA.DIHEDRAL.0>
0

>  <SCORE.INTRA.POLAR>
0

>  <SCORE.INTRA.POLAR.0>
0

>  <SCORE.INTRA.REPUL>
0

>  <SCORE.INTRA.REPUL.0>
0

>  <SCORE.INTRA.SOLV>
0

>  <SCORE.INTRA.SOLV.lig_0>
-29.58

>  <SCORE.INTRA.VDW>
0

>  <SCORE.INTRA.VDW.0>
0

>  <SCORE.INTRA.norm>
0

>  <SCORE.RESTR>
0

>  <SCORE.RESTR.CAVITY>
0

>  <SCORE.RESTR.norm>
0

>  <SCORE.SYSTEM>
0

>  <SCORE.SYSTEM.CONST>
0

>  <SCORE.SYSTEM.DIHEDRAL>
0

>  <SCORE.SYSTEM.SOLV>
0

>  <SCORE.SYSTEM.norm>
0

>  <SCORE.heavy>
8

>  <SCORE.norm>
-1.04218

>  <RMSD>
3.587

$$$$
ligand
 OpenBabel02271912143D
libRbt.so/2013.1/901 2013/11/27
  8  8  0  0  0  0  0  0  0  0999 V2000
   10.1982    9.4211   -1.4741 C   0  0  0  0  0  0  0  0  0  0  0  0
   10.2851    9.9410   -0.2500 N   0  0  0  0  0  0  0  0  0  0  0  0
   10.1288   11.2562   -0.0776 C   0  0  0  0  0  0  0  0  0  0  0  0
    9.8678   12.0560   -1.1378 N   0  0  0  0  0  0  0  0  0  0  0  0
    9.7885   11.5208   -2.3677 C   0  0  0  0  0  0  0  0  0  0  0  0
    9.9490   10.1996   -2.5402 N   0  0  0  0  0  0  0  0  0  0  0  0
   10.2346   11.7989    1.2932 N   0  0  0  0  0  0  0  0  0  0  0  0
   10.3612    8.0848   -1.6088 O   0  0  0  0  0  0  0  0  0  0  0  0
  1  2  1  0  0  0  0
  1  6  1  0  0  0  0
  1  8  2  0  0  0  0
  2  3  1  0  0  0  0
  3  4  2  0  0  0  0
  3  7  1  0  0  0  0
  4  5  1  0  0  0  0
  5  6  2  0  0  0  0
M  END
>  <CHROM.1>
10.10993995,10.47864688,-1.01537929,-1.40486853,-1.38107125,0.80829374

>  <Name>
ligand

>  <RI>
0

>  <Rbt.Current_Directory>
/home/itssahil/PROJECTS/Mol_Feturizer/Test_systems_manuscript/rnas/3la5

>  <Rbt.Executable>
rbdock ($Id: //depot/dev/client3/rdock/2013.1/src/exe/rbdock.cxx#4 $)

>  <Rbt.Library>
libRbt.so (2013.1, Build901 2013/11/27)

>  <Rbt.Parameter_File>
/export/apps/rDock/src/rDock_2013.1_src/data/scripts/dock_solv.prm

>  <Rbt.Receptor>
prm/pocket_docking_6.prm

>  <SCORE>
-8.33632

>  <SCORE.INTER>
-8.33632

>  <SCORE.INTER.CONST>
1

>  <SCORE.INTER.POLAR>
0

>  <SCORE.INTER.ROT>
0

>  <SCORE.INTER.SOLV>
7.71317

>  <SCORE.INTER.VDW>
-11.7286

>  <SCORE.INTER.norm>
-1.04204

>  <SCORE.INTRA>
0

>  <SCORE.INTRA.DIHEDRAL>
0

>  <SCORE.INTRA.DIHEDRAL.0>
0

>  <SCORE.INTRA.POLAR>
0

>  <SCORE.INTRA.POLAR.0>
0

>  <SCORE.INTRA.REPUL>
0

>  <SCORE.INTRA.REPUL.0>
0

>  <SCORE.INTRA.SOLV>
0

>  <SCORE.INTRA.SOLV.lig_0>
-29.58

>  <SCORE.INTRA.VDW>
0

>  <SCORE.INTRA.VDW.0>
0

>  <SCORE.INTRA.norm>
0

>  <SCORE.RESTR>
0

>  <SCORE.RESTR.CAVITY>
0

>  <SCORE.RESTR.norm>
0

>  <SCORE.SYSTEM>
0

>  <SCORE.SYSTEM.CONST>
0

>  <SCORE.SYSTEM.DIHEDRAL>
0

>  <SCORE.SYSTEM.SOLV>
0

>  <SCORE.SYSTEM.norm>
0

>  <SCORE.heavy>
8

>  <SCORE.norm>
-1.04204

>  <RMSD>
3.589

$$$$
ligand
 OpenBabel02271912143D
libRbt.so/2013.1/901 2013/11/27
  8  8  0  0  0  0  0  0  0  0999 V2000
   10.1982    9.4211   -1.4760 C   0  0  0  0  0  0  0  0  0  0  0  0
   10.3130    9.9402   -0.2537 N   0  0  0  0  0  0  0  0  0  0  0  0
   10.1662   11.2560   -0.0778 C   0  0  0  0  0  0  0  0  0  0  0  0
    9.8867   12.0574   -1.1321 N   0  0  0  0  0  0  0  0  0  0  0  0
    9.7794   11.5230   -2.3602 C   0  0  0  0  0  0  0  0  0  0  0  0
    9.9303   10.2012   -2.5364 N   0  0  0  0  0  0  0  0  0  0  0  0
   10.3030   11.7978    1.2906 N   0  0  0  0  0  0  0  0  0  0  0  0
   10.3523    8.0841   -1.6144 O   0  0  0  0  0  0  0  0  0  0  0  0
  1  2  1  0  0  0  0
  1  6  1  0  0  0  0
  1  8  2  0  0  0  0
  2  3  1  0  0  0  0
  3  4  2  0  0  0  0
  3  7  1  0  0  0  0
  4  5  1  0  0  0  0
  5  6  2  0  0  0  0
M  END
>  <CHROM.1>
10.12429324,10.47890706,-1.01518306,-1.49578361,-1.36910570,0.71941473

>  <Name>
ligand

>  <RI>
0

>  <Rbt.Current_Directory>
/home/itssahil/PROJECTS/Mol_Feturizer/Test_systems_manuscript/rnas/3la5

>  <Rbt.Executable>
rbdock ($Id: //depot/dev/client3/rdock/2013.1/src/exe/rbdock.cxx#4 $)

>  <Rbt.Library>
libRbt.so (2013.1, Build901 2013/11/27)

>  <Rbt.Parameter_File>
/export/apps/rDock/src/rDock_2013.1_src/data/scripts/dock_solv.prm

>  <Rbt.Receptor>
prm/pocket_docking_6.prm

>  <SCORE>
-8.31974

>  <SCORE.INTER>
-8.31974

>  <SCORE.INTER.CONST>
1

>  <SCORE.INTER.POLAR>
0

>  <SCORE.INTER.ROT>
0

>  <SCORE.INTER.SOLV>
7.63473

>  <SCORE.INTER.VDW>
-11.6914

>  <SCORE.INTER.norm>
-1.03997

>  <SCORE.INTRA>
0

>  <SCORE.INTRA.DIHEDRAL>
0

>  <SCORE.INTRA.DIHEDRAL.0>
0

>  <SCORE.INTRA.POLAR>
0

>  <SCORE.INTRA.POLAR.0>
0

>  <SCORE.INTRA.REPUL>
0

>  <SCORE.INTRA.REPUL.0>
0

>  <SCORE.INTRA.SOLV>
0

>  <SCORE.INTRA.SOLV.lig_0>
-29.58

>  <SCORE.INTRA.VDW>
0

>  <SCORE.INTRA.VDW.0>
0

>  <SCORE.INTRA.norm>
0

>  <SCORE.RESTR>
0

>  <SCORE.RESTR.CAVITY>
0

>  <SCORE.RESTR.norm>
0

>  <SCORE.SYSTEM>
0

>  <SCORE.SYSTEM.CONST>
0

>  <SCORE.SYSTEM.DIHEDRAL>
0

>  <SCORE.SYSTEM.SOLV>
0

>  <SCORE.SYSTEM.norm>
0

>  <SCORE.heavy>
8

>  <SCORE.norm>
-1.03997

>  <RMSD>
3.589

$$$$
ligand
 OpenBabel02271912143D
libRbt.so/2013.1/901 2013/11/27
  8  8  0  0  0  0  0  0  0  0999 V2000
   10.1944    9.4190   -1.4751 C   0  0  0  0  0  0  0  0  0  0  0  0
   10.3003    9.9361   -0.2513 N   0  0  0  0  0  0  0  0  0  0  0  0
   10.1485   11.2512   -0.0737 C   0  0  0  0  0  0  0  0  0  0  0  0
    9.8730   12.0538   -1.1282 N   0  0  0  0  0  0  0  0  0  0  0  0
    9.7746   11.5213   -2.3579 C   0  0  0  0  0  0  0  0  0  0  0  0
    9.9305   10.2003   -2.5357 N   0  0  0  0  0  0  0  0  0  0  0  0
   10.2755   11.7907    1.2965 N   0  0  0  0  0  0  0  0  0  0  0  0
   10.3532    8.0828   -1.6151 O   0  0  0  0  0  0  0  0  0  0  0  0
  1  2  1  0  0  0  0
  1  6  1  0  0  0  0
  1  8  2  0  0  0  0
  2  3  1  0  0  0  0
  3  4  2  0  0  0  0
  3  7  1  0  0  0  0
  4  5  1  0  0  0  0
  5  6  2  0  0  0  0
M  END
>  <CHROM.1>
10.11452747,10.47573214,-1.01279630,-1.46454169,-1.37155927,0.75192381

>  <Name>
ligand

>  <RI>
0

>  <Rbt.Current_Directory>
/home/itssahil/PROJECTS/Mol_Feturizer/Test_systems_manuscript/rnas/3la5

>  <Rbt.Executable>
rbdock ($Id: //depot/dev/client3/rdock/2013.1/src/exe/rbdock.cxx#4 $)

>  <Rbt.Library>
libRbt.so (2013.1, Build901 2013/11/27)

>  <Rbt.Parameter_File>
/export/apps/rDock/src/rDock_2013.1_src/data/scripts/dock_solv.prm

>  <Rbt.Receptor>
prm/pocket_docking_8.prm

>  <SCORE>
-8.31808

>  <SCORE.INTER>
-8.31808

>  <SCORE.INTER.CONST>
1

>  <SCORE.INTER.POLAR>
0

>  <SCORE.INTER.ROT>
0

>  <SCORE.INTER.SOLV>
7.67518

>  <SCORE.INTER.VDW>
-11.7038

>  <SCORE.INTER.norm>
-1.03976

>  <SCORE.INTRA>
0

>  <SCORE.INTRA.DIHEDRAL>
0

>  <SCORE.INTRA.DIHEDRAL.0>
0

>  <SCORE.INTRA.POLAR>
0

>  <SCORE.INTRA.POLAR.0>
0

>  <SCORE.INTRA.REPUL>
0

>  <SCORE.INTRA.REPUL.0>
0

>  <SCORE.INTRA.SOLV>
0

>  <SCORE.INTRA.SOLV.lig_0>
-29.58

>  <SCORE.INTRA.VDW>
0

>  <SCORE.INTRA.VDW.0>
0

>  <SCORE.INTRA.norm>
0

>  <SCORE.RESTR>
0

>  <SCORE.RESTR.CAVITY>
0

>  <SCORE.RESTR.norm>
0

>  <SCORE.SYSTEM>
0

>  <SCORE.SYSTEM.CONST>
0

>  <SCORE.SYSTEM.DIHEDRAL>
0

>  <SCORE.SYSTEM.SOLV>
0

>  <SCORE.SYSTEM.norm>
0

>  <SCORE.heavy>
8

>  <SCORE.norm>
-1.03976

>  <RMSD>
3.589

$$$$
ligand
 OpenBabel02271912143D
libRbt.so/2013.1/901 2013/11/27
  8  8  0  0  0  0  0  0  0  0999 V2000
   10.1727    9.4415   -1.4986 C   0  0  0  0  0  0  0  0  0  0  0  0
   10.2606    9.9452   -0.2678 N   0  0  0  0  0  0  0  0  0  0  0  0
   10.1289   11.2612   -0.0810 C   0  0  0  0  0  0  0  0  0  0  0  0
    9.8917   12.0784   -1.1336 N   0  0  0  0  0  0  0  0  0  0  0  0
    9.8111   11.5591   -2.3703 C   0  0  0  0  0  0  0  0  0  0  0  0
    9.9468   10.2372   -2.5572 N   0  0  0  0  0  0  0  0  0  0  0  0
   10.2352   11.7856    1.2968 N   0  0  0  0  0  0  0  0  0  0  0  0
   10.3102    8.1039   -1.6479 O   0  0  0  0  0  0  0  0  0  0  0  0
  1  2  1  0  0  0  0
  1  6  1  0  0  0  0
  1  8  2  0  0  0  0
  2  3  1  0  0  0  0
  3  4  2  0  0  0  0
  3  7  1  0  0  0  0
  4  5  1  0  0  0  0
  5  6  2  0  0  0  0
M  END
>  <CHROM.1>
10.10180281,10.49514736,-1.02808299,-1.45320401,-1.40030320,0.77247434

>  <Name>
ligand

>  <RI>
0

>  <Rbt.Current_Directory>
/home/itssahil/PROJECTS/Mol_Feturizer/Test_systems_manuscript/rnas/3la5

>  <Rbt.Executable>
rbdock ($Id: //depot/dev/client3/rdock/2013.1/src/exe/rbdock.cxx#4 $)

>  <Rbt.Library>
libRbt.so (2013.1, Build901 2013/11/27)

>  <Rbt.Parameter_File>
/export/apps/rDock/src/rDock_2013.1_src/data/scripts/dock_solv.prm

>  <Rbt.Receptor>
prm/blind_docking_100.prm

>  <SCORE>
-8.29656

>  <SCORE.INTER>
-8.29656

>  <SCORE.INTER.CONST>
1

>  <SCORE.INTER.POLAR>
0

>  <SCORE.INTER.ROT>
0

>  <SCORE.INTER.SOLV>
7.73228

>  <SCORE.INTER.VDW>
-11.7085

>  <SCORE.INTER.norm>
-1.03707

>  <SCORE.INTRA>
0

>  <SCORE.INTRA.DIHEDRAL>
0

>  <SCORE.INTRA.DIHEDRAL.0>
0

>  <SCORE.INTRA.POLAR>
0

>  <SCORE.INTRA.POLAR.0>
0

>  <SCORE.INTRA.REPUL>
0

>  <SCORE.INTRA.REPUL.0>
0

>  <SCORE.INTRA.SOLV>
0

>  <SCORE.INTRA.SOLV.lig_0>
-29.58

>  <SCORE.INTRA.VDW>
0

>  <SCORE.INTRA.VDW.0>
0

>  <SCORE.INTRA.norm>
0

>  <SCORE.RESTR>
0

>  <SCORE.RESTR.CAVITY>
0

>  <SCORE.RESTR.norm>
0

>  <SCORE.SYSTEM>
0

>  <SCORE.SYSTEM.CONST>
0

>  <SCORE.SYSTEM.DIHEDRAL>
0

>  <SCORE.SYSTEM.SOLV>
0

>  <SCORE.SYSTEM.norm>
0

>  <SCORE.heavy>
8

>  <SCORE.norm>
-1.03707

>  <RMSD>
3.590

$$$$
ligand
 OpenBabel02271912143D
libRbt.so/2013.1/901 2013/11/27
  8  8  0  0  0  0  0  0  0  0999 V2000
   10.1991    9.4219   -1.4769 C   0  0  0  0  0  0  0  0  0  0  0  0
   10.3133    9.9430   -0.2555 N   0  0  0  0  0  0  0  0  0  0  0  0
   10.1658   11.2590   -0.0816 C   0  0  0  0  0  0  0  0  0  0  0  0
    9.8863   12.0586   -1.1372 N   0  0  0  0  0  0  0  0  0  0  0  0
    9.7795   11.5222   -2.3645 C   0  0  0  0  0  0  0  0  0  0  0  0
    9.9312   10.2002   -2.5386 N   0  0  0  0  0  0  0  0  0  0  0  0
   10.3020   11.8030    1.2860 N   0  0  0  0  0  0  0  0  0  0  0  0
   10.3538    8.0848   -1.6132 O   0  0  0  0  0  0  0  0  0  0  0  0
  1  2  1  0  0  0  0
  1  6  1  0  0  0  0
  1  8  2  0  0  0  0
  2  3  1  0  0  0  0
  3  4  2  0  0  0  0
  3  7  1  0  0  0  0
  4  5  1  0  0  0  0
  5  6  2  0  0  0  0
M  END
>  <CHROM.1>
10.12452528,10.48042248,-1.01778477,-1.49312304,-1.36902941,0.72045848

>  <Name>
ligand

>  <RI>
0

>  <Rbt.Current_Directory>
/home/itssahil/PROJECTS/Mol_Feturizer/Test_systems_manuscript/rnas/3la5

>  <Rbt.Executable>
rbdock ($Id: //depot/dev/client3/rdock/2013.1/src/exe/rbdock.cxx#4 $)

>  <Rbt.Library>
libRbt.so (2013.1, Build901 2013/11/27)

>  <Rbt.Parameter_File>
/export/apps/rDock/src/rDock_2013.1_src/data/scripts/dock_solv.prm

>  <Rbt.Receptor>
prm/blind_docking_20.prm

>  <SCORE>
-8.31789

>  <SCORE.INTER>
-8.31789

>  <SCORE.INTER.CONST>
1

>  <SCORE.INTER.POLAR>
0

>  <SCORE.INTER.ROT>
0

>  <SCORE.INTER.SOLV>
7.62336

>  <SCORE.INTER.VDW>
-11.6864

>  <SCORE.INTER.norm>
-1.03974

>  <SCORE.INTRA>
0

>  <SCORE.INTRA.DIHEDRAL>
0

>  <SCORE.INTRA.DIHEDRAL.0>
0

>  <SCORE.INTRA.POLAR>
0

>  <SCORE.INTRA.POLAR.0>
0

>  <SCORE.INTRA.REPUL>
0

>  <SCORE.INTRA.REPUL.0>
0

>  <SCORE.INTRA.SOLV>
0

>  <SCORE.INTRA.SOLV.lig_0>
-29.58

>  <SCORE.INTRA.VDW>
0

>  <SCORE.INTRA.VDW.0>
0

>  <SCORE.INTRA.norm>
0

>  <SCORE.RESTR>
0

>  <SCORE.RESTR.CAVITY>
0

>  <SCORE.RESTR.norm>
0

>  <SCORE.SYSTEM>
0

>  <SCORE.SYSTEM.CONST>
0

>  <SCORE.SYSTEM.DIHEDRAL>
0

>  <SCORE.SYSTEM.SOLV>
0

>  <SCORE.SYSTEM.norm>
0

>  <SCORE.heavy>
8

>  <SCORE.norm>
-1.03974

>  <RMSD>
3.590

$$$$
ligand
 OpenBabel02271912143D
libRbt.so/2013.1/901 2013/11/27
  8  8  0  0  0  0  0  0  0  0999 V2000
   10.1993    9.4133   -1.4714 C   0  0  0  0  0  0  0  0  0  0  0  0
   10.3008    9.9329   -0.2482 N   0  0  0  0  0  0  0  0  0  0  0  0
   10.1536   11.2491   -0.0747 C   0  0  0  0  0  0  0  0  0  0  0  0
    9.8873   12.0502   -1.1327 N   0  0  0  0  0  0  0  0  0  0  0  0
    9.7933   11.5151   -2.3616 C   0  0  0  0  0  0  0  0  0  0  0  0
    9.9446   10.1930   -2.5353 N   0  0  0  0  0  0  0  0  0  0  0  0
   10.2755   11.7914    1.2948 N   0  0  0  0  0  0  0  0  0  0  0  0
   10.3533    8.0760   -1.6073 O   0  0  0  0  0  0  0  0  0  0  0  0
  1  2  1  0  0  0  0
  1  6  1  0  0  0  0
  1  8  2  0  0  0  0
  2  3  1  0  0  0  0
  3  4  2  0  0  0  0
  3  7  1  0  0  0  0
  4  5  1  0  0  0  0
  5  6  2  0  0  0  0
M  END
>  <CHROM.1>
10.12148186,10.47143459,-1.01210658,-1.46134272,-1.37843475,0.75259708

>  <Name>
ligand

>  <RI>
0

>  <Rbt.Current_Directory>
/home/itssahil/PROJECTS/Mol_Feturizer/Test_systems_manuscript/rnas/3la5

>  <Rbt.Executable>
rbdock ($Id: //depot/dev/client3/rdock/2013.1/src/exe/rbdock.cxx#4 $)

>  <Rbt.Library>
libRbt.so (2013.1, Build901 2013/11/27)

>  <Rbt.Parameter_File>
/export/apps/rDock/src/rDock_2013.1_src/data/scripts/dock_solv.prm

>  <Rbt.Receptor>
prm/pocket_docking_7.prm

>  <SCORE>
-8.31506

>  <SCORE.INTER>
-8.31506

>  <SCORE.INTER.CONST>
1

>  <SCORE.INTER.POLAR>
0

>  <SCORE.INTER.ROT>
0

>  <SCORE.INTER.SOLV>
7.67832

>  <SCORE.INTER.VDW>
-11.7028

>  <SCORE.INTER.norm>
-1.03938

>  <SCORE.INTRA>
0

>  <SCORE.INTRA.DIHEDRAL>
0

>  <SCORE.INTRA.DIHEDRAL.0>
0

>  <SCORE.INTRA.POLAR>
0

>  <SCORE.INTRA.POLAR.0>
0

>  <SCORE.INTRA.REPUL>
0

>  <SCORE.INTRA.REPUL.0>
0

>  <SCORE.INTRA.SOLV>
0

>  <SCORE.INTRA.SOLV.lig_0>
-29.58

>  <SCORE.INTRA.VDW>
0

>  <SCORE.INTRA.VDW.0>
0

>  <SCORE.INTRA.norm>
0

>  <SCORE.RESTR>
0

>  <SCORE.RESTR.CAVITY>
0

>  <SCORE.RESTR.norm>
0

>  <SCORE.SYSTEM>
0

>  <SCORE.SYSTEM.CONST>
0

>  <SCORE.SYSTEM.DIHEDRAL>
0

>  <SCORE.SYSTEM.SOLV>
0

>  <SCORE.SYSTEM.norm>
0

>  <SCORE.heavy>
8

>  <SCORE.norm>
-1.03938

>  <RMSD>
3.590

$$$$
ligand
 OpenBabel02271912143D
libRbt.so/2013.1/901 2013/11/27
  8  8  0  0  0  0  0  0  0  0999 V2000
   10.1972    9.4176   -1.4729 C   0  0  0  0  0  0  0  0  0  0  0  0
   10.2856    9.9395   -0.2497 N   0  0  0  0  0  0  0  0  0  0  0  0
   10.1315   11.2552   -0.0795 C   0  0  0  0  0  0  0  0  0  0  0  0
    9.8713   12.0537   -1.1409 N   0  0  0  0  0  0  0  0  0  0  0  0
    9.7905   11.5164   -2.3698 C   0  0  0  0  0  0  0  0  0  0  0  0
    9.9488   10.1947   -2.5402 N   0  0  0  0  0  0  0  0  0  0  0  0
   10.2390   11.8001    1.2903 N   0  0  0  0  0  0  0  0  0  0  0  0
   10.3579    8.0808   -1.6054 O   0  0  0  0  0  0  0  0  0  0  0  0
  1  2  1  0  0  0  0
  1  6  1  0  0  0  0
  1  8  2  0  0  0  0
  2  3  1  0  0  0  0
  3  4  2  0  0  0  0
  3  7  1  0  0  0  0
  4  5  1  0  0  0  0
  5  6  2  0  0  0  0
M  END
>  <CHROM.1>
10.11092393,10.47610766,-1.01590802,-1.41290527,-1.38191144,0.79867537

>  <Name>
ligand

>  <RI>
0

>  <Rbt.Current_Directory>
/home/itssahil/PROJECTS/Mol_Feturizer/Test_systems_manuscript/rnas/3la5

>  <Rbt.Executable>
rbdock ($Id: //depot/dev/client3/rdock/2013.1/src/exe/rbdock.cxx#4 $)

>  <Rbt.Library>
libRbt.so (2013.1, Build901 2013/11/27)

>  <Rbt.Parameter_File>
/export/apps/rDock/src/rDock_2013.1_src/data/scripts/dock_solv.prm

>  <Rbt.Receptor>
prm/blind_docking_20.prm

>  <SCORE>
-8.3353

>  <SCORE.INTER>
-8.3353

>  <SCORE.INTER.CONST>
1

>  <SCORE.INTER.POLAR>
0

>  <SCORE.INTER.ROT>
0

>  <SCORE.INTER.SOLV>
7.70716

>  <SCORE.INTER.VDW>
-11.7259

>  <SCORE.INTER.norm>
-1.04191

>  <SCORE.INTRA>
0

>  <SCORE.INTRA.DIHEDRAL>
0

>  <SCORE.INTRA.DIHEDRAL.0>
0

>  <SCORE.INTRA.POLAR>
0

>  <SCORE.INTRA.POLAR.0>
0

>  <SCORE.INTRA.REPUL>
0

>  <SCORE.INTRA.REPUL.0>
0

>  <SCORE.INTRA.SOLV>
0

>  <SCORE.INTRA.SOLV.lig_0>
-29.58

>  <SCORE.INTRA.VDW>
0

>  <SCORE.INTRA.VDW.0>
0

>  <SCORE.INTRA.norm>
0

>  <SCORE.RESTR>
0

>  <SCORE.RESTR.CAVITY>
0

>  <SCORE.RESTR.norm>
0

>  <SCORE.SYSTEM>
0

>  <SCORE.SYSTEM.CONST>
0

>  <SCORE.SYSTEM.DIHEDRAL>
0

>  <SCORE.SYSTEM.SOLV>
0

>  <SCORE.SYSTEM.norm>
0

>  <SCORE.heavy>
8

>  <SCORE.norm>
-1.04191

>  <RMSD>
3.591

$$$$
ligand
 OpenBabel02271912143D
libRbt.so/2013.1/901 2013/11/27
  8  8  0  0  0  0  0  0  0  0999 V2000
   10.1902    9.4119   -1.4791 C   0  0  0  0  0  0  0  0  0  0  0  0
   10.2650    9.9194   -0.2490 N   0  0  0  0  0  0  0  0  0  0  0  0
   10.1036   11.2324   -0.0645 C   0  0  0  0  0  0  0  0  0  0  0  0
    9.8496   12.0424   -1.1187 N   0  0  0  0  0  0  0  0  0  0  0  0
    9.7824   11.5195   -2.3547 C   0  0  0  0  0  0  0  0  0  0  0  0
    9.9481   10.2006   -2.5393 N   0  0  0  0  0  0  0  0  0  0  0  0
   10.1960   11.7613    1.3126 N   0  0  0  0  0  0  0  0  0  0  0  0
   10.3579    8.0774   -1.6260 O   0  0  0  0  0  0  0  0  0  0  0  0
  1  2  1  0  0  0  0
  1  6  1  0  0  0  0
  1  8  2  0  0  0  0
  2  3  1  0  0  0  0
  3  4  2  0  0  0  0
  3  7  1  0  0  0  0
  4  5  1  0  0  0  0
  5  6  2  0  0  0  0
M  END
>  <CHROM.1>
10.09499966,10.46443346,-1.01034696,-1.36057181,-1.38491466,0.86204087

>  <Name>
ligand

>  <RI>
0

>  <Rbt.Current_Directory>
/home/itssahil/PROJECTS/Mol_Feturizer/Test_systems_manuscript/rnas/3la5

>  <Rbt.Executable>
rbdock ($Id: //depot/dev/client3/rdock/2013.1/src/exe/rbdock.cxx#4 $)

>  <Rbt.Library>
libRbt.so (2013.1, Build901 2013/11/27)

>  <Rbt.Parameter_File>
/export/apps/rDock/src/rDock_2013.1_src/data/scripts/dock_solv.prm

>  <Rbt.Receptor>
prm/blind_docking_80.prm

>  <SCORE>
-8.31909

>  <SCORE.INTER>
-8.31909

>  <SCORE.INTER.CONST>
1

>  <SCORE.INTER.POLAR>
0

>  <SCORE.INTER.ROT>
0

>  <SCORE.INTER.SOLV>
7.89501

>  <SCORE.INTER.VDW>
-11.7777

>  <SCORE.INTER.norm>
-1.03989

>  <SCORE.INTRA>
0

>  <SCORE.INTRA.DIHEDRAL>
0

>  <SCORE.INTRA.DIHEDRAL.0>
0

>  <SCORE.INTRA.POLAR>
0

>  <SCORE.INTRA.POLAR.0>
0

>  <SCORE.INTRA.REPUL>
0

>  <SCORE.INTRA.REPUL.0>
0

>  <SCORE.INTRA.SOLV>
0

>  <SCORE.INTRA.SOLV.lig_0>
-29.58

>  <SCORE.INTRA.VDW>
0

>  <SCORE.INTRA.VDW.0>
0

>  <SCORE.INTRA.norm>
0

>  <SCORE.RESTR>
0

>  <SCORE.RESTR.CAVITY>
0

>  <SCORE.RESTR.norm>
0

>  <SCORE.SYSTEM>
0

>  <SCORE.SYSTEM.CONST>
0

>  <SCORE.SYSTEM.DIHEDRAL>
0

>  <SCORE.SYSTEM.SOLV>
0

>  <SCORE.SYSTEM.norm>
0

>  <SCORE.heavy>
8

>  <SCORE.norm>
-1.03989

>  <RMSD>
3.591

$$$$
ligand
 OpenBabel02271912143D
libRbt.so/2013.1/901 2013/11/27
  8  8  0  0  0  0  0  0  0  0999 V2000
   10.2193    9.3952   -1.4692 C   0  0  0  0  0  0  0  0  0  0  0  0
   10.2797    9.9065   -0.2398 N   0  0  0  0  0  0  0  0  0  0  0  0
   10.1018   11.2179   -0.0596 C   0  0  0  0  0  0  0  0  0  0  0  0
    9.8457   12.0224   -1.1175 N   0  0  0  0  0  0  0  0  0  0  0  0
    9.7932   11.4960   -2.3526 C   0  0  0  0  0  0  0  0  0  0  0  0
    9.9754   10.1787   -2.5329 N   0  0  0  0  0  0  0  0  0  0  0  0
   10.1786   11.7510    1.3168 N   0  0  0  0  0  0  0  0  0  0  0  0
   10.4035    8.0625   -1.6118 O   0  0  0  0  0  0  0  0  0  0  0  0
  1  2  1  0  0  0  0
  1  6  1  0  0  0  0
  1  8  2  0  0  0  0
  2  3  1  0  0  0  0
  3  4  2  0  0  0  0
  3  7  1  0  0  0  0
  4  5  1  0  0  0  0
  5  6  2  0  0  0  0
M  END
>  <CHROM.1>
10.10865800,10.44771597,-1.00364625,-1.29313227,-1.38017127,0.92594780

>  <Name>
ligand

>  <RI>
0

>  <Rbt.Current_Directory>
/home/itssahil/PROJECTS/Mol_Feturizer/Test_systems_manuscript/rnas/3la5

>  <Rbt.Executable>
rbdock ($Id: //depot/dev/client3/rdock/2013.1/src/exe/rbdock.cxx#4 $)

>  <Rbt.Library>
libRbt.so (2013.1, Build901 2013/11/27)

>  <Rbt.Parameter_File>
/export/apps/rDock/src/rDock_2013.1_src/data/scripts/dock_solv.prm

>  <Rbt.Receptor>
prm/pocket_docking_7.prm

>  <SCORE>
-8.31372

>  <SCORE.INTER>
-8.31372

>  <SCORE.INTER.CONST>
1

>  <SCORE.INTER.POLAR>
0

>  <SCORE.INTER.ROT>
0

>  <SCORE.INTER.SOLV>
7.96418

>  <SCORE.INTER.VDW>
-11.7972

>  <SCORE.INTER.norm>
-1.03922

>  <SCORE.INTRA>
0

>  <SCORE.INTRA.DIHEDRAL>
0

>  <SCORE.INTRA.DIHEDRAL.0>
0

>  <SCORE.INTRA.POLAR>
0

>  <SCORE.INTRA.POLAR.0>
0

>  <SCORE.INTRA.REPUL>
0

>  <SCORE.INTRA.REPUL.0>
0

>  <SCORE.INTRA.SOLV>
0

>  <SCORE.INTRA.SOLV.lig_0>
-29.58

>  <SCORE.INTRA.VDW>
0

>  <SCORE.INTRA.VDW.0>
0

>  <SCORE.INTRA.norm>
0

>  <SCORE.RESTR>
0

>  <SCORE.RESTR.CAVITY>
0

>  <SCORE.RESTR.norm>
0

>  <SCORE.SYSTEM>
0

>  <SCORE.SYSTEM.CONST>
0

>  <SCORE.SYSTEM.DIHEDRAL>
0

>  <SCORE.SYSTEM.SOLV>
0

>  <SCORE.SYSTEM.norm>
0

>  <SCORE.heavy>
8

>  <SCORE.norm>
-1.03922

>  <RMSD>
3.591

$$$$
ligand
 OpenBabel02271912143D
libRbt.so/2013.1/901 2013/11/27
  8  8  0  0  0  0  0  0  0  0999 V2000
   10.2170    9.3771   -1.4739 C   0  0  0  0  0  0  0  0  0  0  0  0
   10.2780    9.8754   -0.2392 N   0  0  0  0  0  0  0  0  0  0  0  0
   10.0956   11.1842   -0.0446 C   0  0  0  0  0  0  0  0  0  0  0  0
    9.8346   11.9990   -1.0934 N   0  0  0  0  0  0  0  0  0  0  0  0
    9.7815   11.4856   -2.3339 C   0  0  0  0  0  0  0  0  0  0  0  0
    9.9682   10.1710   -2.5287 N   0  0  0  0  0  0  0  0  0  0  0  0
   10.1732   11.7028    1.3373 N   0  0  0  0  0  0  0  0  0  0  0  0
   10.4059    8.0467   -1.6310 O   0  0  0  0  0  0  0  0  0  0  0  0
  1  2  1  0  0  0  0
  1  6  1  0  0  0  0
  1  8  2  0  0  0  0
  2  3  1  0  0  0  0
  3  4  2  0  0  0  0
  3  7  1  0  0  0  0
  4  5  1  0  0  0  0
  5  6  2  0  0  0  0
M  END
>  <CHROM.1>
10.10347678,10.42414799,-0.99685296,-1.28977539,-1.37606764,0.93991861

>  <Name>
ligand

>  <RI>
0

>  <Rbt.Current_Directory>
/home/itssahil/PROJECTS/Mol_Feturizer/Test_systems_manuscript/rnas/3la5

>  <Rbt.Executable>
rbdock ($Id: //depot/dev/client3/rdock/2013.1/src/exe/rbdock.cxx#4 $)

>  <Rbt.Library>
libRbt.so (2013.1, Build901 2013/11/27)

>  <Rbt.Parameter_File>
/export/apps/rDock/src/rDock_2013.1_src/data/scripts/dock_solv.prm

>  <Rbt.Receptor>
prm/blind_docking_80.prm

>  <SCORE>
-8.29316

>  <SCORE.INTER>
-8.29316

>  <SCORE.INTER.CONST>
1

>  <SCORE.INTER.POLAR>
0

>  <SCORE.INTER.ROT>
0

>  <SCORE.INTER.SOLV>
8.12747

>  <SCORE.INTER.VDW>
-11.8379

>  <SCORE.INTER.norm>
-1.03664

>  <SCORE.INTRA>
0

>  <SCORE.INTRA.DIHEDRAL>
0

>  <SCORE.INTRA.DIHEDRAL.0>
0

>  <SCORE.INTRA.POLAR>
0

>  <SCORE.INTRA.POLAR.0>
0

>  <SCORE.INTRA.REPUL>
0

>  <SCORE.INTRA.REPUL.0>
0

>  <SCORE.INTRA.SOLV>
0

>  <SCORE.INTRA.SOLV.lig_0>
-29.58

>  <SCORE.INTRA.VDW>
0

>  <SCORE.INTRA.VDW.0>
0

>  <SCORE.INTRA.norm>
0

>  <SCORE.RESTR>
0

>  <SCORE.RESTR.CAVITY>
0

>  <SCORE.RESTR.norm>
0

>  <SCORE.SYSTEM>
0

>  <SCORE.SYSTEM.CONST>
0

>  <SCORE.SYSTEM.DIHEDRAL>
0

>  <SCORE.SYSTEM.SOLV>
0

>  <SCORE.SYSTEM.norm>
0

>  <SCORE.heavy>
8

>  <SCORE.norm>
-1.03664

>  <RMSD>
3.594

$$$$
ligand
 OpenBabel02271912143D
libRbt.so/2013.1/901 2013/11/27
  8  8  0  0  0  0  0  0  0  0999 V2000
   10.1802    9.3996   -1.4730 C   0  0  0  0  0  0  0  0  0  0  0  0
   10.2612    9.9056   -0.2426 N   0  0  0  0  0  0  0  0  0  0  0  0
   10.1129   11.2200   -0.0571 C   0  0  0  0  0  0  0  0  0  0  0  0
    9.8659   12.0331   -1.1106 N   0  0  0  0  0  0  0  0  0  0  0  0
    9.7925   11.5118   -2.3468 C   0  0  0  0  0  0  0  0  0  0  0  0
    9.9450   10.1915   -2.5325 N   0  0  0  0  0  0  0  0  0  0  0  0
   10.2118   11.7470    1.3203 N   0  0  0  0  0  0  0  0  0  0  0  0
   10.3347    8.0637   -1.6210 O   0  0  0  0  0  0  0  0  0  0  0  0
  1  2  1  0  0  0  0
  1  6  1  0  0  0  0
  1  8  2  0  0  0  0
  2  3  1  0  0  0  0
  3  4  2  0  0  0  0
  3  7  1  0  0  0  0
  4  5  1  0  0  0  0
  5  6  2  0  0  0  0
M  END
>  <CHROM.1>
10.09587619,10.45278546,-1.00346368,-1.40049628,-1.39165289,0.82345903

>  <Name>
ligand

>  <RI>
0

>  <Rbt.Current_Directory>
/home/itssahil/PROJECTS/Mol_Feturizer/Test_systems_manuscript/rnas/3la5

>  <Rbt.Executable>
rbdock ($Id: //depot/dev/client3/rdock/2013.1/src/exe/rbdock.cxx#4 $)

>  <Rbt.Library>
libRbt.so (2013.1, Build901 2013/11/27)

>  <Rbt.Parameter_File>
/export/apps/rDock/src/rDock_2013.1_src/data/scripts/dock_solv.prm

>  <Rbt.Receptor>
prm/pocket_docking_5.prm

>  <SCORE>
-8.27066

>  <SCORE.INTER>
-8.27066

>  <SCORE.INTER.CONST>
1

>  <SCORE.INTER.POLAR>
0

>  <SCORE.INTER.ROT>
0

>  <SCORE.INTER.SOLV>
7.92676

>  <SCORE.INTER.VDW>
-11.756

>  <SCORE.INTER.norm>
-1.03383

>  <SCORE.INTRA>
0

>  <SCORE.INTRA.DIHEDRAL>
0

>  <SCORE.INTRA.DIHEDRAL.0>
0

>  <SCORE.INTRA.POLAR>
0

>  <SCORE.INTRA.POLAR.0>
0

>  <SCORE.INTRA.REPUL>
0

>  <SCORE.INTRA.REPUL.0>
0

>  <SCORE.INTRA.SOLV>
0

>  <SCORE.INTRA.SOLV.lig_0>
-29.58

>  <SCORE.INTRA.VDW>
0

>  <SCORE.INTRA.VDW.0>
0

>  <SCORE.INTRA.norm>
0

>  <SCORE.RESTR>
0

>  <SCORE.RESTR.CAVITY>
0

>  <SCORE.RESTR.norm>
0

>  <SCORE.SYSTEM>
0

>  <SCORE.SYSTEM.CONST>
0

>  <SCORE.SYSTEM.DIHEDRAL>
0

>  <SCORE.SYSTEM.SOLV>
0

>  <SCORE.SYSTEM.norm>
0

>  <SCORE.heavy>
8

>  <SCORE.norm>
-1.03383

>  <RMSD>
3.594

$$$$
ligand
 OpenBabel02271912143D
libRbt.so/2013.1/901 2013/11/27
  8  8  0  0  0  0  0  0  0  0999 V2000
   10.1950    9.4123   -1.4706 C   0  0  0  0  0  0  0  0  0  0  0  0
   10.3090    9.9414   -0.2526 N   0  0  0  0  0  0  0  0  0  0  0  0
   10.1669   11.2592   -0.0882 C   0  0  0  0  0  0  0  0  0  0  0  0
    9.8931   12.0527   -1.1501 N   0  0  0  0  0  0  0  0  0  0  0  0
    9.7865   11.5081   -2.3738 C   0  0  0  0  0  0  0  0  0  0  0  0
    9.9327   10.1842   -2.5383 N   0  0  0  0  0  0  0  0  0  0  0  0
   10.3027   11.8122    1.2758 N   0  0  0  0  0  0  0  0  0  0  0  0
   10.3441    8.0736   -1.5971 O   0  0  0  0  0  0  0  0  0  0  0  0
  1  2  1  0  0  0  0
  1  6  1  0  0  0  0
  1  8  2  0  0  0  0
  2  3  1  0  0  0  0
  3  4  2  0  0  0  0
  3  7  1  0  0  0  0
  4  5  1  0  0  0  0
  5  6  2  0  0  0  0
M  END
>  <CHROM.1>
10.12415740,10.47427803,-1.01905237,-1.50307221,-1.37346787,0.70369102

>  <Name>
ligand

>  <RI>
0

>  <Rbt.Current_Directory>
/home/itssahil/PROJECTS/Mol_Feturizer/Test_systems_manuscript/rnas/3la5

>  <Rbt.Executable>
rbdock ($Id: //depot/dev/client3/rdock/2013.1/src/exe/rbdock.cxx#4 $)

>  <Rbt.Library>
libRbt.so (2013.1, Build901 2013/11/27)

>  <Rbt.Parameter_File>
/export/apps/rDock/src/rDock_2013.1_src/data/scripts/dock_solv.prm

>  <Rbt.Receptor>
prm/blind_docking_20.prm

>  <SCORE>
-8.30947

>  <SCORE.INTER>
-8.30947

>  <SCORE.INTER.CONST>
1

>  <SCORE.INTER.POLAR>
0

>  <SCORE.INTER.ROT>
0

>  <SCORE.INTER.SOLV>
7.61106

>  <SCORE.INTER.VDW>
-11.6767

>  <SCORE.INTER.norm>
-1.03868

>  <SCORE.INTRA>
0

>  <SCORE.INTRA.DIHEDRAL>
0

>  <SCORE.INTRA.DIHEDRAL.0>
0

>  <SCORE.INTRA.POLAR>
0

>  <SCORE.INTRA.POLAR.0>
0

>  <SCORE.INTRA.REPUL>
0

>  <SCORE.INTRA.REPUL.0>
0

>  <SCORE.INTRA.SOLV>
0

>  <SCORE.INTRA.SOLV.lig_0>
-29.58

>  <SCORE.INTRA.VDW>
0

>  <SCORE.INTRA.VDW.0>
0

>  <SCORE.INTRA.norm>
0

>  <SCORE.RESTR>
0

>  <SCORE.RESTR.CAVITY>
0

>  <SCORE.RESTR.norm>
0

>  <SCORE.SYSTEM>
0

>  <SCORE.SYSTEM.CONST>
0

>  <SCORE.SYSTEM.DIHEDRAL>
0

>  <SCORE.SYSTEM.SOLV>
0

>  <SCORE.SYSTEM.norm>
0

>  <SCORE.heavy>
8

>  <SCORE.norm>
-1.03868

>  <RMSD>
3.596

$$$$
ligand
 OpenBabel02271912143D
libRbt.so/2013.1/901 2013/11/27
  8  8  0  0  0  0  0  0  0  0999 V2000
   10.1819    9.4106   -1.4777 C   0  0  0  0  0  0  0  0  0  0  0  0
   10.2903    9.9281   -0.2543 N   0  0  0  0  0  0  0  0  0  0  0  0
   10.1563   11.2454   -0.0793 C   0  0  0  0  0  0  0  0  0  0  0  0
    9.8961   12.0501   -1.1360 N   0  0  0  0  0  0  0  0  0  0  0  0
    9.7950   11.5171   -2.3653 C   0  0  0  0  0  0  0  0  0  0  0  0
    9.9331   10.1938   -2.5405 N   0  0  0  0  0  0  0  0  0  0  0  0
   10.2856   11.7853    1.2906 N   0  0  0  0  0  0  0  0  0  0  0  0
   10.3225    8.0720   -1.6151 O   0  0  0  0  0  0  0  0  0  0  0  0
  1  2  1  0  0  0  0
  1  6  1  0  0  0  0
  1  8  2  0  0  0  0
  2  3  1  0  0  0  0
  3  4  2  0  0  0  0
  3  7  1  0  0  0  0
  4  5  1  0  0  0  0
  5  6  2  0  0  0  0
M  END
>  <CHROM.1>
10.11504815,10.46900391,-1.01732735,-1.50543363,-1.38379485,0.71023688

>  <Name>
ligand

>  <RI>
0

>  <Rbt.Current_Directory>
/home/itssahil/PROJECTS/Mol_Feturizer/Test_systems_manuscript/rnas/3la5

>  <Rbt.Executable>
rbdock ($Id: //depot/dev/client3/rdock/2013.1/src/exe/rbdock.cxx#4 $)

>  <Rbt.Library>
libRbt.so (2013.1, Build901 2013/11/27)

>  <Rbt.Parameter_File>
/export/apps/rDock/src/rDock_2013.1_src/data/scripts/dock_solv.prm

>  <Rbt.Receptor>
prm/pocket_docking_5.prm

>  <SCORE>
-8.30488

>  <SCORE.INTER>
-8.30488

>  <SCORE.INTER.CONST>
1

>  <SCORE.INTER.POLAR>
0

>  <SCORE.INTER.ROT>
0

>  <SCORE.INTER.SOLV>
7.68442

>  <SCORE.INTER.VDW>
-11.6981

>  <SCORE.INTER.norm>
-1.03811

>  <SCORE.INTRA>
0

>  <SCORE.INTRA.DIHEDRAL>
0

>  <SCORE.INTRA.DIHEDRAL.0>
0

>  <SCORE.INTRA.POLAR>
0

>  <SCORE.INTRA.POLAR.0>
0

>  <SCORE.INTRA.REPUL>
0

>  <SCORE.INTRA.REPUL.0>
0

>  <SCORE.INTRA.SOLV>
0

>  <SCORE.INTRA.SOLV.lig_0>
-29.58

>  <SCORE.INTRA.VDW>
0

>  <SCORE.INTRA.VDW.0>
0

>  <SCORE.INTRA.norm>
0

>  <SCORE.RESTR>
0

>  <SCORE.RESTR.CAVITY>
0

>  <SCORE.RESTR.norm>
0

>  <SCORE.SYSTEM>
0

>  <SCORE.SYSTEM.CONST>
0

>  <SCORE.SYSTEM.DIHEDRAL>
0

>  <SCORE.SYSTEM.SOLV>
0

>  <SCORE.SYSTEM.norm>
0

>  <SCORE.heavy>
8

>  <SCORE.norm>
-1.03811

>  <RMSD>
3.597

$$$$
ligand
 OpenBabel02271912143D
libRbt.so/2013.1/901 2013/11/27
  8  8  0  0  0  0  0  0  0  0999 V2000
   10.1751    9.4179   -1.4856 C   0  0  0  0  0  0  0  0  0  0  0  0
   10.3028    9.9358   -0.2642 N   0  0  0  0  0  0  0  0  0  0  0  0
   10.1745   11.2535   -0.0880 C   0  0  0  0  0  0  0  0  0  0  0  0
    9.9007   12.0583   -1.1413 N   0  0  0  0  0  0  0  0  0  0  0  0
    9.7802   11.5249   -2.3686 C   0  0  0  0  0  0  0  0  0  0  0  0
    9.9126   10.2012   -2.5451 N   0  0  0  0  0  0  0  0  0  0  0  0
   10.3252   11.7938    1.2795 N   0  0  0  0  0  0  0  0  0  0  0  0
   10.3106    8.0790   -1.6243 O   0  0  0  0  0  0  0  0  0  0  0  0
  1  2  1  0  0  0  0
  1  6  1  0  0  0  0
  1  8  2  0  0  0  0
  2  3  1  0  0  0  0
  3  4  2  0  0  0  0
  3  7  1  0  0  0  0
  4  5  1  0  0  0  0
  5  6  2  0  0  0  0
M  END
>  <CHROM.1>
10.11760733,10.47675861,-1.02489736,-1.56368373,-1.37384874,0.65251245

>  <Name>
ligand

>  <RI>
0

>  <Rbt.Current_Directory>
/home/itssahil/PROJECTS/Mol_Feturizer/Test_systems_manuscript/rnas/3la5

>  <Rbt.Executable>
rbdock ($Id: //depot/dev/client3/rdock/2013.1/src/exe/rbdock.cxx#4 $)

>  <Rbt.Library>
libRbt.so (2013.1, Build901 2013/11/27)

>  <Rbt.Parameter_File>
/export/apps/rDock/src/rDock_2013.1_src/data/scripts/dock_solv.prm

>  <Rbt.Receptor>
prm/pocket_docking_7.prm

>  <SCORE>
-8.33268

>  <SCORE.INTER>
-8.33268

>  <SCORE.INTER.CONST>
1

>  <SCORE.INTER.POLAR>
0

>  <SCORE.INTER.ROT>
0

>  <SCORE.INTER.SOLV>
7.6256

>  <SCORE.INTER.VDW>
-11.697

>  <SCORE.INTER.norm>
-1.04159

>  <SCORE.INTRA>
0

>  <SCORE.INTRA.DIHEDRAL>
0

>  <SCORE.INTRA.DIHEDRAL.0>
0

>  <SCORE.INTRA.POLAR>
0

>  <SCORE.INTRA.POLAR.0>
0

>  <SCORE.INTRA.REPUL>
0

>  <SCORE.INTRA.REPUL.0>
0

>  <SCORE.INTRA.SOLV>
0

>  <SCORE.INTRA.SOLV.lig_0>
-29.58

>  <SCORE.INTRA.VDW>
0

>  <SCORE.INTRA.VDW.0>
0

>  <SCORE.INTRA.norm>
0

>  <SCORE.RESTR>
0

>  <SCORE.RESTR.CAVITY>
0

>  <SCORE.RESTR.norm>
0

>  <SCORE.SYSTEM>
0

>  <SCORE.SYSTEM.CONST>
0

>  <SCORE.SYSTEM.DIHEDRAL>
0

>  <SCORE.SYSTEM.SOLV>
0

>  <SCORE.SYSTEM.norm>
0

>  <SCORE.heavy>
8

>  <SCORE.norm>
-1.04159

>  <RMSD>
3.599

$$$$
ligand
 OpenBabel02271912143D
libRbt.so/2013.1/901 2013/11/27
  8  8  0  0  0  0  0  0  0  0999 V2000
   10.1913    9.4219   -1.4823 C   0  0  0  0  0  0  0  0  0  0  0  0
   10.3287    9.9564   -0.2691 N   0  0  0  0  0  0  0  0  0  0  0  0
   10.1792   11.2736   -0.1061 C   0  0  0  0  0  0  0  0  0  0  0  0
    9.8741   12.0608   -1.1640 N   0  0  0  0  0  0  0  0  0  0  0  0
    9.7440   11.5109   -2.3830 C   0  0  0  0  0  0  0  0  0  0  0  0
    9.8977   10.1878   -2.5463 N   0  0  0  0  0  0  0  0  0  0  0  0
   10.3416   11.8326    1.2526 N   0  0  0  0  0  0  0  0  0  0  0  0
   10.3489    8.0841   -1.6077 O   0  0  0  0  0  0  0  0  0  0  0  0
  1  2  1  0  0  0  0
  1  6  1  0  0  0  0
  1  8  2  0  0  0  0
  2  3  1  0  0  0  0
  3  4  2  0  0  0  0
  3  7  1  0  0  0  0
  4  5  1  0  0  0  0
  5  6  2  0  0  0  0
M  END
>  <CHROM.1>
10.12170961,10.48491257,-1.03293632,-1.54126544,-1.35014840,0.66280477

>  <Name>
ligand

>  <RI>
0

>  <Rbt.Current_Directory>
/home/itssahil/PROJECTS/Mol_Feturizer/Test_systems_manuscript/rnas/3la5

>  <Rbt.Executable>
rbdock ($Id: //depot/dev/client3/rdock/2013.1/src/exe/rbdock.cxx#4 $)

>  <Rbt.Library>
libRbt.so (2013.1, Build901 2013/11/27)

>  <Rbt.Parameter_File>
/export/apps/rDock/src/rDock_2013.1_src/data/scripts/dock_solv.prm

>  <Rbt.Receptor>
prm/blind_docking_20.prm

>  <SCORE>
-8.32274

>  <SCORE.INTER>
-8.32274

>  <SCORE.INTER.CONST>
1

>  <SCORE.INTER.POLAR>
0

>  <SCORE.INTER.ROT>
0

>  <SCORE.INTER.SOLV>
7.58138

>  <SCORE.INTER.VDW>
-11.6756

>  <SCORE.INTER.norm>
-1.04034

>  <SCORE.INTRA>
0

>  <SCORE.INTRA.DIHEDRAL>
0

>  <SCORE.INTRA.DIHEDRAL.0>
0

>  <SCORE.INTRA.POLAR>
0

>  <SCORE.INTRA.POLAR.0>
0

>  <SCORE.INTRA.REPUL>
0

>  <SCORE.INTRA.REPUL.0>
0

>  <SCORE.INTRA.SOLV>
0

>  <SCORE.INTRA.SOLV.lig_0>
-29.58

>  <SCORE.INTRA.VDW>
0

>  <SCORE.INTRA.VDW.0>
0

>  <SCORE.INTRA.norm>
0

>  <SCORE.RESTR>
0

>  <SCORE.RESTR.CAVITY>
0

>  <SCORE.RESTR.norm>
0

>  <SCORE.SYSTEM>
0

>  <SCORE.SYSTEM.CONST>
0

>  <SCORE.SYSTEM.DIHEDRAL>
0

>  <SCORE.SYSTEM.SOLV>
0

>  <SCORE.SYSTEM.norm>
0

>  <SCORE.heavy>
8

>  <SCORE.norm>
-1.04034

>  <RMSD>
3.600

$$$$
ligand
 OpenBabel02271912143D
libRbt.so/2013.1/901 2013/11/27
  8  8  0  0  0  0  0  0  0  0999 V2000
   10.1711    9.4139   -1.4855 C   0  0  0  0  0  0  0  0  0  0  0  0
   10.2886    9.9290   -0.2619 N   0  0  0  0  0  0  0  0  0  0  0  0
   10.1592   11.2463   -0.0837 C   0  0  0  0  0  0  0  0  0  0  0  0
    9.8946   12.0536   -1.1374 N   0  0  0  0  0  0  0  0  0  0  0  0
    9.7844   11.5231   -2.3670 C   0  0  0  0  0  0  0  0  0  0  0  0
    9.9178   10.1997   -2.5454 N   0  0  0  0  0  0  0  0  0  0  0  0
   10.2985   11.7834    1.2862 N   0  0  0  0  0  0  0  0  0  0  0  0
   10.3073    8.0753   -1.6261 O   0  0  0  0  0  0  0  0  0  0  0  0
  1  2  1  0  0  0  0
  1  6  1  0  0  0  0
  1  8  2  0  0  0  0
  2  3  1  0  0  0  0
  3  4  2  0  0  0  0
  3  7  1  0  0  0  0
  4  5  1  0  0  0  0
  5  6  2  0  0  0  0
M  END
>  <CHROM.1>
10.11002957,10.47172225,-1.02287658,-1.53774765,-1.38071760,0.68026446

>  <Name>
ligand

>  <RI>
0

>  <Rbt.Current_Directory>
/home/itssahil/PROJECTS/Mol_Feturizer/Test_systems_manuscript/rnas/3la5

>  <Rbt.Executable>
rbdock ($Id: //depot/dev/client3/rdock/2013.1/src/exe/rbdock.cxx#4 $)

>  <Rbt.Library>
libRbt.so (2013.1, Build901 2013/11/27)

>  <Rbt.Parameter_File>
/export/apps/rDock/src/rDock_2013.1_src/data/scripts/dock_solv.prm

>  <Rbt.Receptor>
prm/blind_docking_60.prm

>  <SCORE>
-8.32931

>  <SCORE.INTER>
-8.32931

>  <SCORE.INTER.CONST>
1

>  <SCORE.INTER.POLAR>
0

>  <SCORE.INTER.ROT>
0

>  <SCORE.INTER.SOLV>
7.67167

>  <SCORE.INTER.VDW>
-11.7101

>  <SCORE.INTER.norm>
-1.04116

>  <SCORE.INTRA>
0

>  <SCORE.INTRA.DIHEDRAL>
0

>  <SCORE.INTRA.DIHEDRAL.0>
0

>  <SCORE.INTRA.POLAR>
0

>  <SCORE.INTRA.POLAR.0>
0

>  <SCORE.INTRA.REPUL>
0

>  <SCORE.INTRA.REPUL.0>
0

>  <SCORE.INTRA.SOLV>
0

>  <SCORE.INTRA.SOLV.lig_0>
-29.58

>  <SCORE.INTRA.VDW>
0

>  <SCORE.INTRA.VDW.0>
0

>  <SCORE.INTRA.norm>
0

>  <SCORE.RESTR>
0

>  <SCORE.RESTR.CAVITY>
0

>  <SCORE.RESTR.norm>
0

>  <SCORE.SYSTEM>
0

>  <SCORE.SYSTEM.CONST>
0

>  <SCORE.SYSTEM.DIHEDRAL>
0

>  <SCORE.SYSTEM.SOLV>
0

>  <SCORE.SYSTEM.norm>
0

>  <SCORE.heavy>
8

>  <SCORE.norm>
-1.04116

>  <RMSD>
3.600

$$$$
ligand
 OpenBabel02271912143D
libRbt.so/2013.1/901 2013/11/27
  8  8  0  0  0  0  0  0  0  0999 V2000
    5.3458    4.8498   -0.1326 C   0  0  0  0  0  0  0  0  0  0  0  0
    4.6304    4.0534   -0.9265 N   0  0  0  0  0  0  0  0  0  0  0  0
    5.2423    3.3518   -1.8842 C   0  0  0  0  0  0  0  0  0  0  0  0
    6.5843    3.4361   -2.0387 N   0  0  0  0  0  0  0  0  0  0  0  0
    7.2938    4.2471   -1.2359 C   0  0  0  0  0  0  0  0  0  0  0  0
    6.6775    4.9541   -0.2761 N   0  0  0  0  0  0  0  0  0  0  0  0
    4.4175    2.4811   -2.7481 N   0  0  0  0  0  0  0  0  0  0  0  0
    4.6909    5.5436    0.8266 O   0  0  0  0  0  0  0  0  0  0  0  0
  1  2  1  0  0  0  0
  1  6  1  0  0  0  0
  1  8  2  0  0  0  0
  2  3  1  0  0  0  0
  3  4  2  0  0  0  0
  3  7  1  0  0  0  0
  4  5  1  0  0  0  0
  5  6  2  0  0  0  0
M  END
>  <CHROM.1>
5.57395421,4.13904320,-1.01549636,1.53088232,0.12847832,0.86902547

>  <Name>
ligand

>  <RI>
0

>  <Rbt.Current_Directory>
/home/itssahil/PROJECTS/Mol_Feturizer/Test_systems_manuscript/rnas/3la5

>  <Rbt.Executable>
rbdock ($Id: //depot/dev/client3/rdock/2013.1/src/exe/rbdock.cxx#4 $)

>  <Rbt.Library>
libRbt.so (2013.1, Build901 2013/11/27)

>  <Rbt.Parameter_File>
/export/apps/rDock/src/rDock_2013.1_src/data/scripts/dock_solv.prm

>  <Rbt.Receptor>
prm/blind_docking_100.prm

>  <SCORE>
-5.58879

>  <SCORE.INTER>
-5.58879

>  <SCORE.INTER.CONST>
1

>  <SCORE.INTER.POLAR>
0

>  <SCORE.INTER.ROT>
0

>  <SCORE.INTER.SOLV>
4.5574

>  <SCORE.INTER.VDW>
-8.84499

>  <SCORE.INTER.norm>
-0.698598

>  <SCORE.INTRA>
0

>  <SCORE.INTRA.DIHEDRAL>
0

>  <SCORE.INTRA.DIHEDRAL.0>
0

>  <SCORE.INTRA.POLAR>
0

>  <SCORE.INTRA.POLAR.0>
0

>  <SCORE.INTRA.REPUL>
0

>  <SCORE.INTRA.REPUL.0>
0

>  <SCORE.INTRA.SOLV>
0

>  <SCORE.INTRA.SOLV.lig_0>
-29.58

>  <SCORE.INTRA.VDW>
0

>  <SCORE.INTRA.VDW.0>
0

>  <SCORE.INTRA.norm>
0

>  <SCORE.RESTR>
0

>  <SCORE.RESTR.CAVITY>
0

>  <SCORE.RESTR.norm>
0

>  <SCORE.SYSTEM>
0

>  <SCORE.SYSTEM.CONST>
0

>  <SCORE.SYSTEM.DIHEDRAL>
0

>  <SCORE.SYSTEM.SOLV>
0

>  <SCORE.SYSTEM.norm>
0

>  <SCORE.heavy>
8

>  <SCORE.norm>
-0.698598

>  <RMSD>
9.913

$$$$
ligand
 OpenBabel02271912143D
libRbt.so/2013.1/901 2013/11/27
  8  8  0  0  0  0  0  0  0  0999 V2000
   15.6220    5.2211   -5.6460 C   0  0  0  0  0  0  0  0  0  0  0  0
   15.7051    4.0082   -5.0998 N   0  0  0  0  0  0  0  0  0  0  0  0
   14.9706    3.0085   -5.5948 C   0  0  0  0  0  0  0  0  0  0  0  0
   14.1574    3.2210   -6.6557 N   0  0  0  0  0  0  0  0  0  0  0  0
   14.0779    4.4496   -7.1937 C   0  0  0  0  0  0  0  0  0  0  0  0
   14.8138    5.4542   -6.6935 N   0  0  0  0  0  0  0  0  0  0  0  0
   15.0855    1.6773   -4.9627 N   0  0  0  0  0  0  0  0  0  0  0  0
   16.3820    6.2080   -5.1179 O   0  0  0  0  0  0  0  0  0  0  0  0
  1  2  1  0  0  0  0
  1  6  1  0  0  0  0
  1  8  2  0  0  0  0
  2  3  1  0  0  0  0
  3  4  2  0  0  0  0
  3  7  1  0  0  0  0
  4  5  1  0  0  0  0
  5  6  2  0  0  0  0
M  END
>  <CHROM.1>
15.13712776,4.18994480,-5.84142912,-1.12914763,0.83932218,2.78453155

>  <Name>
ligand

>  <RI>
0

>  <Rbt.Current_Directory>
/home/itssahil/PROJECTS/Mol_Feturizer/Test_systems_manuscript/rnas/3la5

>  <Rbt.Executable>
rbdock ($Id: //depot/dev/client3/rdock/2013.1/src/exe/rbdock.cxx#4 $)

>  <Rbt.Library>
libRbt.so (2013.1, Build901 2013/11/27)

>  <Rbt.Parameter_File>
/export/apps/rDock/src/rDock_2013.1_src/data/scripts/dock_solv.prm

>  <Rbt.Receptor>
prm/blind_docking_80.prm

>  <SCORE>
-6.10946

>  <SCORE.INTER>
-6.10946

>  <SCORE.INTER.CONST>
1

>  <SCORE.INTER.POLAR>
0

>  <SCORE.INTER.ROT>
0

>  <SCORE.INTER.SOLV>
4.61646

>  <SCORE.INTER.VDW>
-9.21179

>  <SCORE.INTER.norm>
-0.763682

>  <SCORE.INTRA>
0

>  <SCORE.INTRA.DIHEDRAL>
0

>  <SCORE.INTRA.DIHEDRAL.0>
0

>  <SCORE.INTRA.POLAR>
0

>  <SCORE.INTRA.POLAR.0>
0

>  <SCORE.INTRA.REPUL>
0

>  <SCORE.INTRA.REPUL.0>
0

>  <SCORE.INTRA.SOLV>
0

>  <SCORE.INTRA.SOLV.lig_0>
-29.58

>  <SCORE.INTRA.VDW>
0

>  <SCORE.INTRA.VDW.0>
0

>  <SCORE.INTRA.norm>
0

>  <SCORE.RESTR>
0

>  <SCORE.RESTR.CAVITY>
0

>  <SCORE.RESTR.norm>
0

>  <SCORE.SYSTEM>
0

>  <SCORE.SYSTEM.CONST>
0

>  <SCORE.SYSTEM.DIHEDRAL>
0

>  <SCORE.SYSTEM.SOLV>
0

>  <SCORE.SYSTEM.norm>
0

>  <SCORE.heavy>
8

>  <SCORE.norm>
-0.763682

>  <RMSD>
11.367

$$$$
ligand
 OpenBabel02271912143D
libRbt.so/2013.1/901 2013/11/27
  8  8  0  0  0  0  0  0  0  0999 V2000
   15.6326    5.2698   -5.6935 C   0  0  0  0  0  0  0  0  0  0  0  0
   15.7397    4.0598   -5.1451 N   0  0  0  0  0  0  0  0  0  0  0  0
   15.0176    3.0470   -5.6318 C   0  0  0  0  0  0  0  0  0  0  0  0
   14.1925    3.2436   -6.6866 N   0  0  0  0  0  0  0  0  0  0  0  0
   14.0888    4.4695   -7.2269 C   0  0  0  0  0  0  0  0  0  0  0  0
   14.8123    5.4871   -6.7350 N   0  0  0  0  0  0  0  0  0  0  0  0
   15.1591    1.7196   -4.9974 N   0  0  0  0  0  0  0  0  0  0  0  0
   16.3807    6.2703   -5.1740 O   0  0  0  0  0  0  0  0  0  0  0  0
  1  2  1  0  0  0  0
  1  6  1  0  0  0  0
  1  8  2  0  0  0  0
  2  3  1  0  0  0  0
  3  4  2  0  0  0  0
  3  7  1  0  0  0  0
  4  5  1  0  0  0  0
  5  6  2  0  0  0  0
M  END
>  <CHROM.1>
15.16291719,4.23042907,-5.88258267,-1.15606603,0.83727444,2.80206184

>  <Name>
ligand

>  <RI>
0

>  <Rbt.Current_Directory>
/home/itssahil/PROJECTS/Mol_Feturizer/Test_systems_manuscript/rnas/3la5

>  <Rbt.Executable>
rbdock ($Id: //depot/dev/client3/rdock/2013.1/src/exe/rbdock.cxx#4 $)

>  <Rbt.Library>
libRbt.so (2013.1, Build901 2013/11/27)

>  <Rbt.Parameter_File>
/export/apps/rDock/src/rDock_2013.1_src/data/scripts/dock_solv.prm

>  <Rbt.Receptor>
prm/blind_docking_80.prm

>  <SCORE>
-6.0672

>  <SCORE.INTER>
-6.0672

>  <SCORE.INTER.CONST>
1

>  <SCORE.INTER.POLAR>
0

>  <SCORE.INTER.ROT>
0

>  <SCORE.INTER.SOLV>
4.50049

>  <SCORE.INTER.VDW>
-9.14496

>  <SCORE.INTER.norm>
-0.7584

>  <SCORE.INTRA>
0

>  <SCORE.INTRA.DIHEDRAL>
0

>  <SCORE.INTRA.DIHEDRAL.0>
0

>  <SCORE.INTRA.POLAR>
0

>  <SCORE.INTRA.POLAR.0>
0

>  <SCORE.INTRA.REPUL>
0

>  <SCORE.INTRA.REPUL.0>
0

>  <SCORE.INTRA.SOLV>
0

>  <SCORE.INTRA.SOLV.lig_0>
-29.58

>  <SCORE.INTRA.VDW>
0

>  <SCORE.INTRA.VDW.0>
0

>  <SCORE.INTRA.norm>
0

>  <SCORE.RESTR>
0

>  <SCORE.RESTR.CAVITY>
0

>  <SCORE.RESTR.norm>
0

>  <SCORE.SYSTEM>
0

>  <SCORE.SYSTEM.CONST>
0

>  <SCORE.SYSTEM.DIHEDRAL>
0

>  <SCORE.SYSTEM.SOLV>
0

>  <SCORE.SYSTEM.norm>
0

>  <SCORE.heavy>
8

>  <SCORE.norm>
-0.7584

>  <RMSD>
11.373

$$$$
ligand
 OpenBabel02271912143D
libRbt.so/2013.1/901 2013/11/27
  8  8  0  0  0  0  0  0  0  0999 V2000
    5.3071    4.7985   -7.0663 C   0  0  0  0  0  0  0  0  0  0  0  0
    4.7024    4.1154   -6.0946 N   0  0  0  0  0  0  0  0  0  0  0  0
    5.4168    3.6645   -5.0600 C   0  0  0  0  0  0  0  0  0  0  0  0
    6.7455    3.9128   -4.9898 N   0  0  0  0  0  0  0  0  0  0  0  0
    7.3446    4.5974   -5.9786 C   0  0  0  0  0  0  0  0  0  0  0  0
    6.6264    5.0472   -7.0192 N   0  0  0  0  0  0  0  0  0  0  0  0
    4.7143    2.9082   -4.0022 N   0  0  0  0  0  0  0  0  0  0  0  0
    4.5501    5.2400   -8.0971 O   0  0  0  0  0  0  0  0  0  0  0  0
  1  2  1  0  0  0  0
  1  6  1  0  0  0  0
  1  8  2  0  0  0  0
  2  3  1  0  0  0  0
  3  4  2  0  0  0  0
  3  7  1  0  0  0  0
  4  5  1  0  0  0  0
  5  6  2  0  0  0  0
M  END
>  <CHROM.1>
5.63591042,4.29935563,-6.07661818,1.62447893,-0.17936576,-1.04775316

>  <Name>
ligand

>  <RI>
0

>  <Rbt.Current_Directory>
/home/itssahil/PROJECTS/Mol_Feturizer/Test_systems_manuscript/rnas/3la5

>  <Rbt.Executable>
rbdock ($Id: //depot/dev/client3/rdock/2013.1/src/exe/rbdock.cxx#4 $)

>  <Rbt.Library>
libRbt.so (2013.1, Build901 2013/11/27)

>  <Rbt.Parameter_File>
/export/apps/rDock/src/rDock_2013.1_src/data/scripts/dock_solv.prm

>  <Rbt.Receptor>
prm/blind_docking_100.prm

>  <SCORE>
-7.43832

>  <SCORE.INTER>
-7.43832

>  <SCORE.INTER.CONST>
1

>  <SCORE.INTER.POLAR>
0

>  <SCORE.INTER.ROT>
0

>  <SCORE.INTER.SOLV>
4.29057

>  <SCORE.INTER.VDW>
-9.98907

>  <SCORE.INTER.norm>
-0.92979

>  <SCORE.INTRA>
0

>  <SCORE.INTRA.DIHEDRAL>
0

>  <SCORE.INTRA.DIHEDRAL.0>
0

>  <SCORE.INTRA.POLAR>
0

>  <SCORE.INTRA.POLAR.0>
0

>  <SCORE.INTRA.REPUL>
0

>  <SCORE.INTRA.REPUL.0>
0

>  <SCORE.INTRA.SOLV>
0

>  <SCORE.INTRA.SOLV.lig_0>
-29.58

>  <SCORE.INTRA.VDW>
0

>  <SCORE.INTRA.VDW.0>
0

>  <SCORE.INTRA.norm>
0

>  <SCORE.RESTR>
0

>  <SCORE.RESTR.CAVITY>
0

>  <SCORE.RESTR.norm>
0

>  <SCORE.SYSTEM>
0

>  <SCORE.SYSTEM.CONST>
0

>  <SCORE.SYSTEM.DIHEDRAL>
0

>  <SCORE.SYSTEM.SOLV>
0

>  <SCORE.SYSTEM.norm>
0

>  <SCORE.heavy>
8

>  <SCORE.norm>
-0.92979

>  <RMSD>
11.708

$$$$
ligand
 OpenBabel02271912143D
libRbt.so/2013.1/901 2013/11/27
  8  8  0  0  0  0  0  0  0  0999 V2000
    5.3064    4.7967   -7.0764 C   0  0  0  0  0  0  0  0  0  0  0  0
    4.7006    4.1169   -6.1031 N   0  0  0  0  0  0  0  0  0  0  0  0
    5.4148    3.6644   -5.0692 C   0  0  0  0  0  0  0  0  0  0  0  0
    6.7445    3.9076   -5.0011 N   0  0  0  0  0  0  0  0  0  0  0  0
    7.3448    4.5889   -5.9915 C   0  0  0  0  0  0  0  0  0  0  0  0
    6.6268    5.0403   -7.0316 N   0  0  0  0  0  0  0  0  0  0  0  0
    4.7109    2.9119   -4.0094 N   0  0  0  0  0  0  0  0  0  0  0  0
    4.5497    5.2399   -8.1066 O   0  0  0  0  0  0  0  0  0  0  0  0
  1  2  1  0  0  0  0
  1  6  1  0  0  0  0
  1  8  2  0  0  0  0
  2  3  1  0  0  0  0
  3  4  2  0  0  0  0
  3  7  1  0  0  0  0
  4  5  1  0  0  0  0
  5  6  2  0  0  0  0
M  END
>  <CHROM.1>
5.63481123,4.29725799,-6.08671792,1.62382231,-0.17529586,-1.04891479

>  <Name>
ligand

>  <RI>
0

>  <Rbt.Current_Directory>
/home/itssahil/PROJECTS/Mol_Feturizer/Test_systems_manuscript/rnas/3la5

>  <Rbt.Executable>
rbdock ($Id: //depot/dev/client3/rdock/2013.1/src/exe/rbdock.cxx#4 $)

>  <Rbt.Library>
libRbt.so (2013.1, Build901 2013/11/27)

>  <Rbt.Parameter_File>
/export/apps/rDock/src/rDock_2013.1_src/data/scripts/dock_solv.prm

>  <Rbt.Receptor>
prm/blind_docking_100.prm

>  <SCORE>
-7.4391

>  <SCORE.INTER>
-7.4391

>  <SCORE.INTER.CONST>
1

>  <SCORE.INTER.POLAR>
0

>  <SCORE.INTER.ROT>
0

>  <SCORE.INTER.SOLV>
4.28251

>  <SCORE.INTER.VDW>
-9.9869

>  <SCORE.INTER.norm>
-0.929888

>  <SCORE.INTRA>
0

>  <SCORE.INTRA.DIHEDRAL>
0

>  <SCORE.INTRA.DIHEDRAL.0>
0

>  <SCORE.INTRA.POLAR>
0

>  <SCORE.INTRA.POLAR.0>
0

>  <SCORE.INTRA.REPUL>
0

>  <SCORE.INTRA.REPUL.0>
0

>  <SCORE.INTRA.SOLV>
0

>  <SCORE.INTRA.SOLV.lig_0>
-29.58

>  <SCORE.INTRA.VDW>
0

>  <SCORE.INTRA.VDW.0>
0

>  <SCORE.INTRA.norm>
0

>  <SCORE.RESTR>
0

>  <SCORE.RESTR.CAVITY>
0

>  <SCORE.RESTR.norm>
0

>  <SCORE.SYSTEM>
0

>  <SCORE.SYSTEM.CONST>
0

>  <SCORE.SYSTEM.DIHEDRAL>
0

>  <SCORE.SYSTEM.SOLV>
0

>  <SCORE.SYSTEM.norm>
0

>  <SCORE.heavy>
8

>  <SCORE.norm>
-0.929888

>  <RMSD>
11.716

$$$$
ligand
 OpenBabel02271912143D
libRbt.so/2013.1/901 2013/11/27
  8  8  0  0  0  0  0  0  0  0999 V2000
    6.1667    5.1363   -7.3402 C   0  0  0  0  0  0  0  0  0  0  0  0
    4.9550    4.6752   -7.0311 N   0  0  0  0  0  0  0  0  0  0  0  0
    4.7817    3.9708   -5.9096 C   0  0  0  0  0  0  0  0  0  0  0  0
    5.8276    3.7390   -5.0823 N   0  0  0  0  0  0  0  0  0  0  0  0
    7.0454    4.2039   -5.4079 C   0  0  0  0  0  0  0  0  0  0  0  0
    7.2190    4.9088   -6.5366 N   0  0  0  0  0  0  0  0  0  0  0  0
    3.4252    3.4725   -5.5998 N   0  0  0  0  0  0  0  0  0  0  0  0
    6.3026    5.8465   -8.4836 O   0  0  0  0  0  0  0  0  0  0  0  0
  1  2  1  0  0  0  0
  1  6  1  0  0  0  0
  1  8  2  0  0  0  0
  2  3  1  0  0  0  0
  3  4  2  0  0  0  0
  3  7  1  0  0  0  0
  4  5  1  0  0  0  0
  5  6  2  0  0  0  0
M  END
>  <CHROM.1>
5.71058928,4.52222227,-6.47322103,0.91709438,-0.19858865,-1.03888379

>  <Name>
ligand

>  <RI>
0

>  <Rbt.Current_Directory>
/home/itssahil/PROJECTS/Mol_Feturizer/Test_systems_manuscript/rnas/3la5

>  <Rbt.Executable>
rbdock ($Id: //depot/dev/client3/rdock/2013.1/src/exe/rbdock.cxx#4 $)

>  <Rbt.Library>
libRbt.so (2013.1, Build901 2013/11/27)

>  <Rbt.Parameter_File>
/export/apps/rDock/src/rDock_2013.1_src/data/scripts/dock_solv.prm

>  <Rbt.Receptor>
prm/blind_docking_100.prm

>  <SCORE>
-7.24056

>  <SCORE.INTER>
-7.24056

>  <SCORE.INTER.CONST>
1

>  <SCORE.INTER.POLAR>
0

>  <SCORE.INTER.ROT>
0

>  <SCORE.INTER.SOLV>
3.85479

>  <SCORE.INTER.VDW>
-9.71197

>  <SCORE.INTER.norm>
-0.90507

>  <SCORE.INTRA>
0

>  <SCORE.INTRA.DIHEDRAL>
0

>  <SCORE.INTRA.DIHEDRAL.0>
0

>  <SCORE.INTRA.POLAR>
0

>  <SCORE.INTRA.POLAR.0>
0

>  <SCORE.INTRA.REPUL>
0

>  <SCORE.INTRA.REPUL.0>
0

>  <SCORE.INTRA.SOLV>
0

>  <SCORE.INTRA.SOLV.lig_0>
-29.58

>  <SCORE.INTRA.VDW>
0

>  <SCORE.INTRA.VDW.0>
0

>  <SCORE.INTRA.norm>
0

>  <SCORE.RESTR>
0

>  <SCORE.RESTR.CAVITY>
0

>  <SCORE.RESTR.norm>
0

>  <SCORE.SYSTEM>
0

>  <SCORE.SYSTEM.CONST>
0

>  <SCORE.SYSTEM.DIHEDRAL>
0

>  <SCORE.SYSTEM.SOLV>
0

>  <SCORE.SYSTEM.norm>
0

>  <SCORE.heavy>
8

>  <SCORE.norm>
-0.90507

>  <RMSD>
11.807

$$$$
ligand
 OpenBabel02271912143D
libRbt.so/2013.1/901 2013/11/27
  8  8  0  0  0  0  0  0  0  0999 V2000
    6.0153    5.0009   -7.1736 C   0  0  0  0  0  0  0  0  0  0  0  0
    4.8663    4.4145   -6.8385 N   0  0  0  0  0  0  0  0  0  0  0  0
    4.7904    3.7059   -5.7088 C   0  0  0  0  0  0  0  0  0  0  0  0
    5.8698    3.5961   -4.8997 N   0  0  0  0  0  0  0  0  0  0  0  0
    7.0242    4.1869   -5.2514 C   0  0  0  0  0  0  0  0  0  0  0  0
    7.1003    4.8959   -6.3884 N   0  0  0  0  0  0  0  0  0  0  0  0
    3.5015    3.0667   -5.3699 N   0  0  0  0  0  0  0  0  0  0  0  0
    6.0531    5.7109   -8.3246 O   0  0  0  0  0  0  0  0  0  0  0  0
  1  2  1  0  0  0  0
  1  6  1  0  0  0  0
  1  8  2  0  0  0  0
  2  3  1  0  0  0  0
  3  4  2  0  0  0  0
  3  7  1  0  0  0  0
  4  5  1  0  0  0  0
  5  6  2  0  0  0  0
M  END
>  <CHROM.1>
5.64389963,4.34918213,-6.29379784,0.99036432,-0.28236874,-1.02971601

>  <Name>
ligand

>  <RI>
0

>  <Rbt.Current_Directory>
/home/itssahil/PROJECTS/Mol_Feturizer/Test_systems_manuscript/rnas/3la5

>  <Rbt.Executable>
rbdock ($Id: //depot/dev/client3/rdock/2013.1/src/exe/rbdock.cxx#4 $)

>  <Rbt.Library>
libRbt.so (2013.1, Build901 2013/11/27)

>  <Rbt.Parameter_File>
/export/apps/rDock/src/rDock_2013.1_src/data/scripts/dock_solv.prm

>  <Rbt.Receptor>
prm/blind_docking_60.prm

>  <SCORE>
-7.39472

>  <SCORE.INTER>
-7.39501

>  <SCORE.INTER.CONST>
1

>  <SCORE.INTER.POLAR>
0

>  <SCORE.INTER.ROT>
0

>  <SCORE.INTER.SOLV>
2.43196

>  <SCORE.INTER.VDW>
-9.34066

>  <SCORE.INTER.norm>
-0.924377

>  <SCORE.INTRA>
0

>  <SCORE.INTRA.DIHEDRAL>
0

>  <SCORE.INTRA.DIHEDRAL.0>
0

>  <SCORE.INTRA.POLAR>
0

>  <SCORE.INTRA.POLAR.0>
0

>  <SCORE.INTRA.REPUL>
0

>  <SCORE.INTRA.REPUL.0>
0

>  <SCORE.INTRA.SOLV>
0

>  <SCORE.INTRA.SOLV.lig_0>
-29.58

>  <SCORE.INTRA.VDW>
0

>  <SCORE.INTRA.VDW.0>
0

>  <SCORE.INTRA.norm>
0

>  <SCORE.RESTR>
0.000293862

>  <SCORE.RESTR.CAVITY>
0.000293862

>  <SCORE.RESTR.norm>
3.67327e-05

>  <SCORE.SYSTEM>
0

>  <SCORE.SYSTEM.CONST>
0

>  <SCORE.SYSTEM.DIHEDRAL>
0

>  <SCORE.SYSTEM.SOLV>
0

>  <SCORE.SYSTEM.norm>
0

>  <SCORE.heavy>
8

>  <SCORE.norm>
-0.92434

>  <RMSD>
11.831

$$$$
ligand
 OpenBabel02271912143D
libRbt.so/2013.1/901 2013/11/27
  8  8  0  0  0  0  0  0  0  0999 V2000
    6.0272    4.9992   -7.2035 C   0  0  0  0  0  0  0  0  0  0  0  0
    4.8743    4.4152   -6.8775 N   0  0  0  0  0  0  0  0  0  0  0  0
    4.7827    3.7225   -5.7392 C   0  0  0  0  0  0  0  0  0  0  0  0
    5.8500    3.6263   -4.9124 N   0  0  0  0  0  0  0  0  0  0  0  0
    7.0084    4.2145   -5.2551 C   0  0  0  0  0  0  0  0  0  0  0  0
    7.1004    4.9075   -6.4006 N   0  0  0  0  0  0  0  0  0  0  0  0
    3.4900    3.0855   -5.4108 N   0  0  0  0  0  0  0  0  0  0  0  0
    6.0810    5.6930   -8.3637 O   0  0  0  0  0  0  0  0  0  0  0  0
  1  2  1  0  0  0  0
  1  6  1  0  0  0  0
  1  8  2  0  0  0  0
  2  3  1  0  0  0  0
  3  4  2  0  0  0  0
  3  7  1  0  0  0  0
  4  5  1  0  0  0  0
  5  6  2  0  0  0  0
M  END
>  <CHROM.1>
5.64372914,4.35920340,-6.32029752,0.97785018,-0.29169653,-1.04738815

>  <Name>
ligand

>  <RI>
0

>  <Rbt.Current_Directory>
/home/itssahil/PROJECTS/Mol_Feturizer/Test_systems_manuscript/rnas/3la5

>  <Rbt.Executable>
rbdock ($Id: //depot/dev/client3/rdock/2013.1/src/exe/rbdock.cxx#4 $)

>  <Rbt.Library>
libRbt.so (2013.1, Build901 2013/11/27)

>  <Rbt.Parameter_File>
/export/apps/rDock/src/rDock_2013.1_src/data/scripts/dock_solv.prm

>  <Rbt.Receptor>
prm/blind_docking_60.prm

>  <SCORE>
-7.4194

>  <SCORE.INTER>
-7.41977

>  <SCORE.INTER.CONST>
1

>  <SCORE.INTER.POLAR>
0

>  <SCORE.INTER.ROT>
0

>  <SCORE.INTER.SOLV>
2.46231

>  <SCORE.INTER.VDW>
-9.36729

>  <SCORE.INTER.norm>
-0.927472

>  <SCORE.INTRA>
0

>  <SCORE.INTRA.DIHEDRAL>
0

>  <SCORE.INTRA.DIHEDRAL.0>
0

>  <SCORE.INTRA.POLAR>
0

>  <SCORE.INTRA.POLAR.0>
0

>  <SCORE.INTRA.REPUL>
0

>  <SCORE.INTRA.REPUL.0>
0

>  <SCORE.INTRA.SOLV>
0

>  <SCORE.INTRA.SOLV.lig_0>
-29.58

>  <SCORE.INTRA.VDW>
0

>  <SCORE.INTRA.VDW.0>
0

>  <SCORE.INTRA.norm>
0

>  <SCORE.RESTR>
0.000375999

>  <SCORE.RESTR.CAVITY>
0.000375999

>  <SCORE.RESTR.norm>
4.69998e-05

>  <SCORE.SYSTEM>
0

>  <SCORE.SYSTEM.CONST>
0

>  <SCORE.SYSTEM.DIHEDRAL>
0

>  <SCORE.SYSTEM.SOLV>
0

>  <SCORE.SYSTEM.norm>
0

>  <SCORE.heavy>
8

>  <SCORE.norm>
-0.927425

>  <RMSD>
11.842

$$$$
ligand
 OpenBabel02271912143D
libRbt.so/2013.1/901 2013/11/27
  8  8  0  0  0  0  0  0  0  0999 V2000
   -0.6625   11.9006    3.5449 C   0  0  0  0  0  0  0  0  0  0  0  0
   -0.8809   11.4869    4.7929 N   0  0  0  0  0  0  0  0  0  0  0  0
   -0.9666   10.1792    5.0506 C   0  0  0  0  0  0  0  0  0  0  0  0
   -0.8170    9.2769    4.0528 N   0  0  0  0  0  0  0  0  0  0  0  0
   -0.6031    9.7066    2.7978 C   0  0  0  0  0  0  0  0  0  0  0  0
   -0.5204   11.0209    2.5395 N   0  0  0  0  0  0  0  0  0  0  0  0
   -1.2126    9.7562    6.4453 N   0  0  0  0  0  0  0  0  0  0  0  0
   -0.5807   13.2327    3.3232 O   0  0  0  0  0  0  0  0  0  0  0  0
  1  2  1  0  0  0  0
  1  6  1  0  0  0  0
  1  8  2  0  0  0  0
  2  3  1  0  0  0  0
  3  4  2  0  0  0  0
  3  7  1  0  0  0  0
  4  5  1  0  0  0  0
  5  6  2  0  0  0  0
M  END
>  <CHROM.1>
-0.77881609,10.87693789,4.06962414,0.67419849,1.40202968,0.17629822

>  <Name>
ligand

>  <RI>
0

>  <Rbt.Current_Directory>
/home/itssahil/PROJECTS/Mol_Feturizer/Test_systems_manuscript/rnas/3la5

>  <Rbt.Executable>
rbdock ($Id: //depot/dev/client3/rdock/2013.1/src/exe/rbdock.cxx#4 $)

>  <Rbt.Library>
libRbt.so (2013.1, Build901 2013/11/27)

>  <Rbt.Parameter_File>
/export/apps/rDock/src/rDock_2013.1_src/data/scripts/dock_solv.prm

>  <Rbt.Receptor>
prm/blind_docking_60.prm

>  <SCORE>
-4.53892

>  <SCORE.INTER>
-4.53892

>  <SCORE.INTER.CONST>
1

>  <SCORE.INTER.POLAR>
0

>  <SCORE.INTER.ROT>
0

>  <SCORE.INTER.SOLV>
4.52604

>  <SCORE.INTER.VDW>
-8.13463

>  <SCORE.INTER.norm>
-0.567365

>  <SCORE.INTRA>
0

>  <SCORE.INTRA.DIHEDRAL>
0

>  <SCORE.INTRA.DIHEDRAL.0>
0

>  <SCORE.INTRA.POLAR>
0

>  <SCORE.INTRA.POLAR.0>
0

>  <SCORE.INTRA.REPUL>
0

>  <SCORE.INTRA.REPUL.0>
0

>  <SCORE.INTRA.SOLV>
0

>  <SCORE.INTRA.SOLV.lig_0>
-29.58

>  <SCORE.INTRA.VDW>
0

>  <SCORE.INTRA.VDW.0>
0

>  <SCORE.INTRA.norm>
0

>  <SCORE.RESTR>
0

>  <SCORE.RESTR.CAVITY>
0

>  <SCORE.RESTR.norm>
0

>  <SCORE.SYSTEM>
0

>  <SCORE.SYSTEM.CONST>
0

>  <SCORE.SYSTEM.DIHEDRAL>
0

>  <SCORE.SYSTEM.SOLV>
0

>  <SCORE.SYSTEM.norm>
0

>  <SCORE.heavy>
8

>  <SCORE.norm>
-0.567365

>  <RMSD>
11.924

$$$$
ligand
 OpenBabel02271912143D
libRbt.so/2013.1/901 2013/11/27
  8  8  0  0  0  0  0  0  0  0999 V2000
    5.6560    3.7899   -4.8942 C   0  0  0  0  0  0  0  0  0  0  0  0
    4.8853    3.9423   -5.9709 N   0  0  0  0  0  0  0  0  0  0  0  0
    5.4017    4.4685   -7.0845 C   0  0  0  0  0  0  0  0  0  0  0  0
    6.7050    4.8313   -7.1259 N   0  0  0  0  0  0  0  0  0  0  0  0
    7.4702    4.6783   -6.0320 C   0  0  0  0  0  0  0  0  0  0  0  0
    6.9495    4.1524   -4.9125 N   0  0  0  0  0  0  0  0  0  0  0  0
    4.5175    4.6257   -8.2585 N   0  0  0  0  0  0  0  0  0  0  0  0
    5.0977    3.2523   -3.7853 O   0  0  0  0  0  0  0  0  0  0  0  0
  1  2  1  0  0  0  0
  1  6  1  0  0  0  0
  1  8  2  0  0  0  0
  2  3  1  0  0  0  0
  3  4  2  0  0  0  0
  3  7  1  0  0  0  0
  4  5  1  0  0  0  0
  5  6  2  0  0  0  0
M  END
>  <CHROM.1>
5.80288710,4.19453439,-5.96721680,1.46199225,0.25471895,1.90006729

>  <Name>
ligand

>  <RI>
0

>  <Rbt.Current_Directory>
/home/itssahil/PROJECTS/Mol_Feturizer/Test_systems_manuscript/rnas/3la5

>  <Rbt.Executable>
rbdock ($Id: //depot/dev/client3/rdock/2013.1/src/exe/rbdock.cxx#4 $)

>  <Rbt.Library>
libRbt.so (2013.1, Build901 2013/11/27)

>  <Rbt.Parameter_File>
/export/apps/rDock/src/rDock_2013.1_src/data/scripts/dock_solv.prm

>  <Rbt.Receptor>
prm/blind_docking_40.prm

>  <SCORE>
-7.55782

>  <SCORE.INTER>
-7.55782

>  <SCORE.INTER.CONST>
1

>  <SCORE.INTER.POLAR>
0

>  <SCORE.INTER.ROT>
0

>  <SCORE.INTER.SOLV>
3.59058

>  <SCORE.INTER.VDW>
-9.83541

>  <SCORE.INTER.norm>
-0.944727

>  <SCORE.INTRA>
0

>  <SCORE.INTRA.DIHEDRAL>
0

>  <SCORE.INTRA.DIHEDRAL.0>
0

>  <SCORE.INTRA.POLAR>
0

>  <SCORE.INTRA.POLAR.0>
0

>  <SCORE.INTRA.REPUL>
0

>  <SCORE.INTRA.REPUL.0>
0

>  <SCORE.INTRA.SOLV>
0

>  <SCORE.INTRA.SOLV.lig_0>
-29.58

>  <SCORE.INTRA.VDW>
0

>  <SCORE.INTRA.VDW.0>
0

>  <SCORE.INTRA.norm>
0

>  <SCORE.RESTR>
0

>  <SCORE.RESTR.CAVITY>
0

>  <SCORE.RESTR.norm>
0

>  <SCORE.SYSTEM>
0

>  <SCORE.SYSTEM.CONST>
0

>  <SCORE.SYSTEM.DIHEDRAL>
0

>  <SCORE.SYSTEM.SOLV>
0

>  <SCORE.SYSTEM.norm>
0

>  <SCORE.heavy>
8

>  <SCORE.norm>
-0.944727

>  <RMSD>
11.929

$$$$
ligand
 OpenBabel02271912143D
libRbt.so/2013.1/901 2013/11/27
  8  8  0  0  0  0  0  0  0  0999 V2000
    5.6807    3.7462   -4.8351 C   0  0  0  0  0  0  0  0  0  0  0  0
    4.8826    3.8085   -5.9008 N   0  0  0  0  0  0  0  0  0  0  0  0
    5.3513    4.3025   -7.0498 C   0  0  0  0  0  0  0  0  0  0  0  0
    6.6346    4.7236   -7.1373 N   0  0  0  0  0  0  0  0  0  0  0  0
    7.4275    4.6612   -6.0543 C   0  0  0  0  0  0  0  0  0  0  0  0
    6.9546    4.1678   -4.8994 N   0  0  0  0  0  0  0  0  0  0  0  0
    4.4377    4.3594   -8.2104 N   0  0  0  0  0  0  0  0  0  0  0  0
    5.1706    3.2387   -3.6894 O   0  0  0  0  0  0  0  0  0  0  0  0
  1  2  1  0  0  0  0
  1  6  1  0  0  0  0
  1  8  2  0  0  0  0
  2  3  1  0  0  0  0
  3  4  2  0  0  0  0
  3  7  1  0  0  0  0
  4  5  1  0  0  0  0
  5  6  2  0  0  0  0
M  END
>  <CHROM.1>
5.78692881,4.10347984,-5.92955141,1.42642251,0.29370006,1.86044805

>  <Name>
ligand

>  <RI>
0

>  <Rbt.Current_Directory>
/home/itssahil/PROJECTS/Mol_Feturizer/Test_systems_manuscript/rnas/3la5

>  <Rbt.Executable>
rbdock ($Id: //depot/dev/client3/rdock/2013.1/src/exe/rbdock.cxx#4 $)

>  <Rbt.Library>
libRbt.so (2013.1, Build901 2013/11/27)

>  <Rbt.Parameter_File>
/export/apps/rDock/src/rDock_2013.1_src/data/scripts/dock_solv.prm

>  <Rbt.Receptor>
prm/blind_docking_40.prm

>  <SCORE>
-7.5646

>  <SCORE.INTER>
-7.5646

>  <SCORE.INTER.CONST>
1

>  <SCORE.INTER.POLAR>
0

>  <SCORE.INTER.ROT>
0

>  <SCORE.INTER.SOLV>
2.91759

>  <SCORE.INTER.VDW>
-9.61559

>  <SCORE.INTER.norm>
-0.945575

>  <SCORE.INTRA>
0

>  <SCORE.INTRA.DIHEDRAL>
0

>  <SCORE.INTRA.DIHEDRAL.0>
0

>  <SCORE.INTRA.POLAR>
0

>  <SCORE.INTRA.POLAR.0>
0

>  <SCORE.INTRA.REPUL>
0

>  <SCORE.INTRA.REPUL.0>
0

>  <SCORE.INTRA.SOLV>
0

>  <SCORE.INTRA.SOLV.lig_0>
-29.58

>  <SCORE.INTRA.VDW>
0

>  <SCORE.INTRA.VDW.0>
0

>  <SCORE.INTRA.norm>
0

>  <SCORE.RESTR>
0

>  <SCORE.RESTR.CAVITY>
0

>  <SCORE.RESTR.norm>
0

>  <SCORE.SYSTEM>
0

>  <SCORE.SYSTEM.CONST>
0

>  <SCORE.SYSTEM.DIHEDRAL>
0

>  <SCORE.SYSTEM.SOLV>
0

>  <SCORE.SYSTEM.norm>
0

>  <SCORE.heavy>
8

>  <SCORE.norm>
-0.945575

>  <RMSD>
11.966

$$$$
ligand
 OpenBabel02271912143D
libRbt.so/2013.1/901 2013/11/27
  8  8  0  0  0  0  0  0  0  0999 V2000
    5.6873    3.7469   -4.8423 C   0  0  0  0  0  0  0  0  0  0  0  0
    4.8884    3.8075   -5.9074 N   0  0  0  0  0  0  0  0  0  0  0  0
    5.3546    4.3042   -7.0562 C   0  0  0  0  0  0  0  0  0  0  0  0
    6.6365    4.7298   -7.1441 N   0  0  0  0  0  0  0  0  0  0  0  0
    7.4302    4.6691   -6.0617 C   0  0  0  0  0  0  0  0  0  0  0  0
    6.9598    4.1728   -4.9069 N   0  0  0  0  0  0  0  0  0  0  0  0
    4.4402    4.3591   -8.2162 N   0  0  0  0  0  0  0  0  0  0  0  0
    5.1797    3.2365   -3.6968 O   0  0  0  0  0  0  0  0  0  0  0  0
  1  2  1  0  0  0  0
  1  6  1  0  0  0  0
  1  8  2  0  0  0  0
  2  3  1  0  0  0  0
  3  4  2  0  0  0  0
  3  7  1  0  0  0  0
  4  5  1  0  0  0  0
  5  6  2  0  0  0  0
M  END
>  <CHROM.1>
5.79166908,4.10558573,-5.93642733,1.42476876,0.29678884,1.86192036

>  <Name>
ligand

>  <RI>
0

>  <Rbt.Current_Directory>
/home/itssahil/PROJECTS/Mol_Feturizer/Test_systems_manuscript/rnas/3la5

>  <Rbt.Executable>
rbdock ($Id: //depot/dev/client3/rdock/2013.1/src/exe/rbdock.cxx#4 $)

>  <Rbt.Library>
libRbt.so (2013.1, Build901 2013/11/27)

>  <Rbt.Parameter_File>
/export/apps/rDock/src/rDock_2013.1_src/data/scripts/dock_solv.prm

>  <Rbt.Receptor>
prm/blind_docking_40.prm

>  <SCORE>
-7.5597

>  <SCORE.INTER>
-7.5597

>  <SCORE.INTER.CONST>
1

>  <SCORE.INTER.POLAR>
0

>  <SCORE.INTER.ROT>
0

>  <SCORE.INTER.SOLV>
2.91446

>  <SCORE.INTER.VDW>
-9.61129

>  <SCORE.INTER.norm>
-0.944963

>  <SCORE.INTRA>
0

>  <SCORE.INTRA.DIHEDRAL>
0

>  <SCORE.INTRA.DIHEDRAL.0>
0

>  <SCORE.INTRA.POLAR>
0

>  <SCORE.INTRA.POLAR.0>
0

>  <SCORE.INTRA.REPUL>
0

>  <SCORE.INTRA.REPUL.0>
0

>  <SCORE.INTRA.SOLV>
0

>  <SCORE.INTRA.SOLV.lig_0>
-29.58

>  <SCORE.INTRA.VDW>
0

>  <SCORE.INTRA.VDW.0>
0

>  <SCORE.INTRA.norm>
0

>  <SCORE.RESTR>
0

>  <SCORE.RESTR.CAVITY>
0

>  <SCORE.RESTR.norm>
0

>  <SCORE.SYSTEM>
0

>  <SCORE.SYSTEM.CONST>
0

>  <SCORE.SYSTEM.DIHEDRAL>
0

>  <SCORE.SYSTEM.SOLV>
0

>  <SCORE.SYSTEM.norm>
0

>  <SCORE.heavy>
8

>  <SCORE.norm>
-0.944963

>  <RMSD>
11.967

$$$$
ligand
 OpenBabel02271912143D
libRbt.so/2013.1/901 2013/11/27
  8  8  0  0  0  0  0  0  0  0999 V2000
    5.7457    3.6929   -4.7011 C   0  0  0  0  0  0  0  0  0  0  0  0
    4.9475    3.5693   -5.7613 N   0  0  0  0  0  0  0  0  0  0  0  0
    5.3709    3.9808   -6.9593 C   0  0  0  0  0  0  0  0  0  0  0  0
    6.6101    4.5066   -7.1003 N   0  0  0  0  0  0  0  0  0  0  0  0
    7.4032    4.6315   -6.0229 C   0  0  0  0  0  0  0  0  0  0  0  0
    6.9755    4.2207   -4.8190 N   0  0  0  0  0  0  0  0  0  0  0  0
    4.4584    3.8313   -8.1124 N   0  0  0  0  0  0  0  0  0  0  0  0
    5.2823    3.2638   -3.5047 O   0  0  0  0  0  0  0  0  0  0  0  0
  1  2  1  0  0  0  0
  1  6  1  0  0  0  0
  1  8  2  0  0  0  0
  2  3  1  0  0  0  0
  3  4  2  0  0  0  0
  3  7  1  0  0  0  0
  4  5  1  0  0  0  0
  5  6  2  0  0  0  0
M  END
>  <CHROM.1>
5.82076947,3.94150349,-5.82775342,1.40013115,0.38266714,1.76384869

>  <Name>
ligand

>  <RI>
0

>  <Rbt.Current_Directory>
/home/itssahil/PROJECTS/Mol_Feturizer/Test_systems_manuscript/rnas/3la5

>  <Rbt.Executable>
rbdock ($Id: //depot/dev/client3/rdock/2013.1/src/exe/rbdock.cxx#4 $)

>  <Rbt.Library>
libRbt.so (2013.1, Build901 2013/11/27)

>  <Rbt.Parameter_File>
/export/apps/rDock/src/rDock_2013.1_src/data/scripts/dock_solv.prm

>  <Rbt.Receptor>
prm/blind_docking_40.prm

>  <SCORE>
-7.52212

>  <SCORE.INTER>
-7.52212

>  <SCORE.INTER.CONST>
1

>  <SCORE.INTER.POLAR>
0

>  <SCORE.INTER.ROT>
0

>  <SCORE.INTER.SOLV>
2.19339

>  <SCORE.INTER.VDW>
-9.34587

>  <SCORE.INTER.norm>
-0.940265

>  <SCORE.INTRA>
0

>  <SCORE.INTRA.DIHEDRAL>
0

>  <SCORE.INTRA.DIHEDRAL.0>
0

>  <SCORE.INTRA.POLAR>
0

>  <SCORE.INTRA.POLAR.0>
0

>  <SCORE.INTRA.REPUL>
0

>  <SCORE.INTRA.REPUL.0>
0

>  <SCORE.INTRA.SOLV>
0

>  <SCORE.INTRA.SOLV.lig_0>
-29.58

>  <SCORE.INTRA.VDW>
0

>  <SCORE.INTRA.VDW.0>
0

>  <SCORE.INTRA.norm>
0

>  <SCORE.RESTR>
0

>  <SCORE.RESTR.CAVITY>
0

>  <SCORE.RESTR.norm>
0

>  <SCORE.SYSTEM>
0

>  <SCORE.SYSTEM.CONST>
0

>  <SCORE.SYSTEM.DIHEDRAL>
0

>  <SCORE.SYSTEM.SOLV>
0

>  <SCORE.SYSTEM.norm>
0

>  <SCORE.heavy>
8

>  <SCORE.norm>
-0.940265

>  <RMSD>
11.989

$$$$
ligand
 OpenBabel02271912143D
libRbt.so/2013.1/901 2013/11/27
  8  8  0  0  0  0  0  0  0  0999 V2000
   -0.6244    9.6812    2.7154 C   0  0  0  0  0  0  0  0  0  0  0  0
   -0.8706    9.2633    3.9569 N   0  0  0  0  0  0  0  0  0  0  0  0
   -0.8796   10.1437    4.9613 C   0  0  0  0  0  0  0  0  0  0  0  0
   -0.6555   11.4563    4.7188 N   0  0  0  0  0  0  0  0  0  0  0  0
   -0.4026   11.8643    3.4638 C   0  0  0  0  0  0  0  0  0  0  0  0
   -0.3905   10.9784    2.4558 N   0  0  0  0  0  0  0  0  0  0  0  0
   -1.1532    9.6449    6.3255 N   0  0  0  0  0  0  0  0  0  0  0  0
   -0.6248    8.7603    1.7243 O   0  0  0  0  0  0  0  0  0  0  0  0
  1  2  1  0  0  0  0
  1  6  1  0  0  0  0
  1  8  2  0  0  0  0
  2  3  1  0  0  0  0
  3  4  2  0  0  0  0
  3  7  1  0  0  0  0
  4  5  1  0  0  0  0
  5  6  2  0  0  0  0
M  END
>  <CHROM.1>
-0.70232699,10.17826962,3.75638958,1.00532112,-1.36448333,-2.33499304

>  <Name>
ligand

>  <RI>
0

>  <Rbt.Current_Directory>
/home/itssahil/PROJECTS/Mol_Feturizer/Test_systems_manuscript/rnas/3la5

>  <Rbt.Executable>
rbdock ($Id: //depot/dev/client3/rdock/2013.1/src/exe/rbdock.cxx#4 $)

>  <Rbt.Library>
libRbt.so (2013.1, Build901 2013/11/27)

>  <Rbt.Parameter_File>
/export/apps/rDock/src/rDock_2013.1_src/data/scripts/dock_solv.prm

>  <Rbt.Receptor>
prm/blind_docking_20.prm

>  <SCORE>
-4.85345

>  <SCORE.INTER>
-4.85345

>  <SCORE.INTER.CONST>
1

>  <SCORE.INTER.POLAR>
0

>  <SCORE.INTER.ROT>
0

>  <SCORE.INTER.SOLV>
4.34141

>  <SCORE.INTER.VDW>
-8.28277

>  <SCORE.INTER.norm>
-0.606682

>  <SCORE.INTRA>
0

>  <SCORE.INTRA.DIHEDRAL>
0

>  <SCORE.INTRA.DIHEDRAL.0>
0

>  <SCORE.INTRA.POLAR>
0

>  <SCORE.INTRA.POLAR.0>
0

>  <SCORE.INTRA.REPUL>
0

>  <SCORE.INTRA.REPUL.0>
0

>  <SCORE.INTRA.SOLV>
0

>  <SCORE.INTRA.SOLV.lig_0>
-29.58

>  <SCORE.INTRA.VDW>
0

>  <SCORE.INTRA.VDW.0>
0

>  <SCORE.INTRA.norm>
0

>  <SCORE.RESTR>
0

>  <SCORE.RESTR.CAVITY>
0

>  <SCORE.RESTR.norm>
0

>  <SCORE.SYSTEM>
0

>  <SCORE.SYSTEM.CONST>
0

>  <SCORE.SYSTEM.DIHEDRAL>
0

>  <SCORE.SYSTEM.SOLV>
0

>  <SCORE.SYSTEM.norm>
0

>  <SCORE.heavy>
8

>  <SCORE.norm>
-0.606682

>  <RMSD>
12.056

$$$$
ligand
 OpenBabel02271912143D
libRbt.so/2013.1/901 2013/11/27
  8  8  0  0  0  0  0  0  0  0999 V2000
   -0.5758    9.5938    2.6897 C   0  0  0  0  0  0  0  0  0  0  0  0
   -0.9812    9.2151    3.9016 N   0  0  0  0  0  0  0  0  0  0  0  0
   -1.0002   10.1024    4.8997 C   0  0  0  0  0  0  0  0  0  0  0  0
   -0.6248   11.3840    4.6792 N   0  0  0  0  0  0  0  0  0  0  0  0
   -0.2124   11.7520    3.4545 C   0  0  0  0  0  0  0  0  0  0  0  0
   -0.1905   10.8588    2.4531 N   0  0  0  0  0  0  0  0  0  0  0  0
   -1.4526    9.6472    6.2311 N   0  0  0  0  0  0  0  0  0  0  0  0
   -0.5714    8.6671    1.7039 O   0  0  0  0  0  0  0  0  0  0  0  0
  1  2  1  0  0  0  0
  1  6  1  0  0  0  0
  1  8  2  0  0  0  0
  2  3  1  0  0  0  0
  3  4  2  0  0  0  0
  3  7  1  0  0  0  0
  4  5  1  0  0  0  0
  5  6  2  0  0  0  0
M  END
>  <CHROM.1>
-0.70454968,10.10686077,3.71773475,1.00121419,-1.22554315,-2.34455351

>  <Name>
ligand

>  <RI>
0

>  <Rbt.Current_Directory>
/home/itssahil/PROJECTS/Mol_Feturizer/Test_systems_manuscript/rnas/3la5

>  <Rbt.Executable>
rbdock ($Id: //depot/dev/client3/rdock/2013.1/src/exe/rbdock.cxx#4 $)

>  <Rbt.Library>
libRbt.so (2013.1, Build901 2013/11/27)

>  <Rbt.Parameter_File>
/export/apps/rDock/src/rDock_2013.1_src/data/scripts/dock_solv.prm

>  <Rbt.Receptor>
prm/blind_docking_80.prm

>  <SCORE>
-4.98824

>  <SCORE.INTER>
-4.98824

>  <SCORE.INTER.CONST>
1

>  <SCORE.INTER.POLAR>
0

>  <SCORE.INTER.ROT>
0

>  <SCORE.INTER.SOLV>
3.69512

>  <SCORE.INTER.VDW>
-8.1572

>  <SCORE.INTER.norm>
-0.623529

>  <SCORE.INTRA>
0

>  <SCORE.INTRA.DIHEDRAL>
0

>  <SCORE.INTRA.DIHEDRAL.0>
0

>  <SCORE.INTRA.POLAR>
0

>  <SCORE.INTRA.POLAR.0>
0

>  <SCORE.INTRA.REPUL>
0

>  <SCORE.INTRA.REPUL.0>
0

>  <SCORE.INTRA.SOLV>
0

>  <SCORE.INTRA.SOLV.lig_0>
-29.58

>  <SCORE.INTRA.VDW>
0

>  <SCORE.INTRA.VDW.0>
0

>  <SCORE.INTRA.norm>
0

>  <SCORE.RESTR>
0

>  <SCORE.RESTR.CAVITY>
0

>  <SCORE.RESTR.norm>
0

>  <SCORE.SYSTEM>
0

>  <SCORE.SYSTEM.CONST>
0

>  <SCORE.SYSTEM.DIHEDRAL>
0

>  <SCORE.SYSTEM.SOLV>
0

>  <SCORE.SYSTEM.norm>
0

>  <SCORE.heavy>
8

>  <SCORE.norm>
-0.623529

>  <RMSD>
12.064

$$$$
ligand
 OpenBabel02271912143D
libRbt.so/2013.1/901 2013/11/27
  8  8  0  0  0  0  0  0  0  0999 V2000
   -1.1414   12.6856    4.3215 C   0  0  0  0  0  0  0  0  0  0  0  0
   -1.6350   11.7192    5.0954 N   0  0  0  0  0  0  0  0  0  0  0  0
   -1.4054   10.4408    4.7842 C   0  0  0  0  0  0  0  0  0  0  0  0
   -0.6623   10.1271    3.6973 N   0  0  0  0  0  0  0  0  0  0  0  0
   -0.1752   11.1102    2.9217 C   0  0  0  0  0  0  0  0  0  0  0  0
   -0.4093   12.3944    3.2335 N   0  0  0  0  0  0  0  0  0  0  0  0
   -1.9705    9.3952    5.6628 N   0  0  0  0  0  0  0  0  0  0  0  0
   -1.3941   13.9684    4.6696 O   0  0  0  0  0  0  0  0  0  0  0  0
  1  2  1  0  0  0  0
  1  6  1  0  0  0  0
  1  8  2  0  0  0  0
  2  3  1  0  0  0  0
  3  4  2  0  0  0  0
  3  7  1  0  0  0  0
  4  5  1  0  0  0  0
  5  6  2  0  0  0  0
M  END
>  <CHROM.1>
-1.11522596,11.52977366,4.32110786,1.36878664,0.98173471,-0.03012599

>  <Name>
ligand

>  <RI>
0

>  <Rbt.Current_Directory>
/home/itssahil/PROJECTS/Mol_Feturizer/Test_systems_manuscript/rnas/3la5

>  <Rbt.Executable>
rbdock ($Id: //depot/dev/client3/rdock/2013.1/src/exe/rbdock.cxx#4 $)

>  <Rbt.Library>
libRbt.so (2013.1, Build901 2013/11/27)

>  <Rbt.Parameter_File>
/export/apps/rDock/src/rDock_2013.1_src/data/scripts/dock_solv.prm

>  <Rbt.Receptor>
prm/blind_docking_60.prm

>  <SCORE>
-4.69479

>  <SCORE.INTER>
-4.69479

>  <SCORE.INTER.CONST>
1

>  <SCORE.INTER.POLAR>
0

>  <SCORE.INTER.ROT>
0

>  <SCORE.INTER.SOLV>
2.89666

>  <SCORE.INTER.VDW>
-7.69541

>  <SCORE.INTER.norm>
-0.586848

>  <SCORE.INTRA>
0

>  <SCORE.INTRA.DIHEDRAL>
0

>  <SCORE.INTRA.DIHEDRAL.0>
0

>  <SCORE.INTRA.POLAR>
0

>  <SCORE.INTRA.POLAR.0>
0

>  <SCORE.INTRA.REPUL>
0

>  <SCORE.INTRA.REPUL.0>
0

>  <SCORE.INTRA.SOLV>
0

>  <SCORE.INTRA.SOLV.lig_0>
-29.58

>  <SCORE.INTRA.VDW>
0

>  <SCORE.INTRA.VDW.0>
0

>  <SCORE.INTRA.norm>
0

>  <SCORE.RESTR>
0

>  <SCORE.RESTR.CAVITY>
0

>  <SCORE.RESTR.norm>
0

>  <SCORE.SYSTEM>
0

>  <SCORE.SYSTEM.CONST>
0

>  <SCORE.SYSTEM.DIHEDRAL>
0

>  <SCORE.SYSTEM.SOLV>
0

>  <SCORE.SYSTEM.norm>
0

>  <SCORE.heavy>
8

>  <SCORE.norm>
-0.586848

>  <RMSD>
12.270

$$$$
ligand
 OpenBabel02271912143D
libRbt.so/2013.1/901 2013/11/27
  8  8  0  0  0  0  0  0  0  0999 V2000
   -1.1431   12.6914    4.3201 C   0  0  0  0  0  0  0  0  0  0  0  0
   -1.6404   11.7275    5.0947 N   0  0  0  0  0  0  0  0  0  0  0  0
   -1.4087   10.4481    4.7892 C   0  0  0  0  0  0  0  0  0  0  0  0
   -0.6598   10.1308    3.7073 N   0  0  0  0  0  0  0  0  0  0  0  0
   -0.1690   11.1114    2.9308 C   0  0  0  0  0  0  0  0  0  0  0  0
   -0.4051   12.3965    3.2369 N   0  0  0  0  0  0  0  0  0  0  0  0
   -1.9781    9.4054    5.6685 N   0  0  0  0  0  0  0  0  0  0  0  0
   -1.3980   13.9752    4.6623 O   0  0  0  0  0  0  0  0  0  0  0  0
  1  2  1  0  0  0  0
  1  6  1  0  0  0  0
  1  8  2  0  0  0  0
  2  3  1  0  0  0  0
  3  4  2  0  0  0  0
  3  7  1  0  0  0  0
  4  5  1  0  0  0  0
  5  6  2  0  0  0  0
M  END
>  <CHROM.1>
-1.11647308,11.53551508,4.32384717,1.36908750,0.97648163,-0.03387135

>  <Name>
ligand

>  <RI>
0

>  <Rbt.Current_Directory>
/home/itssahil/PROJECTS/Mol_Feturizer/Test_systems_manuscript/rnas/3la5

>  <Rbt.Executable>
rbdock ($Id: //depot/dev/client3/rdock/2013.1/src/exe/rbdock.cxx#4 $)

>  <Rbt.Library>
libRbt.so (2013.1, Build901 2013/11/27)

>  <Rbt.Parameter_File>
/export/apps/rDock/src/rDock_2013.1_src/data/scripts/dock_solv.prm

>  <Rbt.Receptor>
prm/blind_docking_60.prm

>  <SCORE>
-4.69343

>  <SCORE.INTER>
-4.69343

>  <SCORE.INTER.CONST>
1

>  <SCORE.INTER.POLAR>
0

>  <SCORE.INTER.ROT>
0

>  <SCORE.INTER.SOLV>
2.89001

>  <SCORE.INTER.VDW>
-7.69229

>  <SCORE.INTER.norm>
-0.586679

>  <SCORE.INTRA>
0

>  <SCORE.INTRA.DIHEDRAL>
0

>  <SCORE.INTRA.DIHEDRAL.0>
0

>  <SCORE.INTRA.POLAR>
0

>  <SCORE.INTRA.POLAR.0>
0

>  <SCORE.INTRA.REPUL>
0

>  <SCORE.INTRA.REPUL.0>
0

>  <SCORE.INTRA.SOLV>
0

>  <SCORE.INTRA.SOLV.lig_0>
-29.58

>  <SCORE.INTRA.VDW>
0

>  <SCORE.INTRA.VDW.0>
0

>  <SCORE.INTRA.norm>
0

>  <SCORE.RESTR>
0

>  <SCORE.RESTR.CAVITY>
0

>  <SCORE.RESTR.norm>
0

>  <SCORE.SYSTEM>
0

>  <SCORE.SYSTEM.CONST>
0

>  <SCORE.SYSTEM.DIHEDRAL>
0

>  <SCORE.SYSTEM.SOLV>
0

>  <SCORE.SYSTEM.norm>
0

>  <SCORE.heavy>
8

>  <SCORE.norm>
-0.586679

>  <RMSD>
12.272

$$$$
ligand
 OpenBabel02271912143D
libRbt.so/2013.1/901 2013/11/27
  8  8  0  0  0  0  0  0  0  0999 V2000
    6.9274   23.0123    4.0952 C   0  0  0  0  0  0  0  0  0  0  0  0
    5.8344   23.7353    3.8520 N   0  0  0  0  0  0  0  0  0  0  0  0
    4.6571   23.1231    3.7001 C   0  0  0  0  0  0  0  0  0  0  0  0
    4.5703   21.7767    3.8078 N   0  0  0  0  0  0  0  0  0  0  0  0
    5.6803   21.0585    4.0473 C   0  0  0  0  0  0  0  0  0  0  0  0
    6.8633   21.6743    4.1966 N   0  0  0  0  0  0  0  0  0  0  0  0
    3.4664   23.9557    3.4284 N   0  0  0  0  0  0  0  0  0  0  0  0
    8.1014   23.6679    4.2443 O   0  0  0  0  0  0  0  0  0  0  0  0
  1  2  1  0  0  0  0
  1  6  1  0  0  0  0
  1  8  2  0  0  0  0
  2  3  1  0  0  0  0
  3  4  2  0  0  0  0
  3  7  1  0  0  0  0
  4  5  1  0  0  0  0
  5  6  2  0  0  0  0
M  END
>  <CHROM.1>
5.80611845,22.78693470,3.92598719,-0.05692557,-0.16770113,-0.08389882

>  <Name>
ligand

>  <RI>
0

>  <Rbt.Current_Directory>
/home/itssahil/PROJECTS/Mol_Feturizer/Test_systems_manuscript/rnas/3la5

>  <Rbt.Executable>
rbdock ($Id: //depot/dev/client3/rdock/2013.1/src/exe/rbdock.cxx#4 $)

>  <Rbt.Library>
libRbt.so (2013.1, Build901 2013/11/27)

>  <Rbt.Parameter_File>
/export/apps/rDock/src/rDock_2013.1_src/data/scripts/dock_solv.prm

>  <Rbt.Receptor>
prm/blind_docking_100.prm

>  <SCORE>
-5.60481

>  <SCORE.INTER>
-5.60481

>  <SCORE.INTER.CONST>
1

>  <SCORE.INTER.POLAR>
0

>  <SCORE.INTER.ROT>
0

>  <SCORE.INTER.SOLV>
3.24857

>  <SCORE.INTER.VDW>
-8.4194

>  <SCORE.INTER.norm>
-0.700602

>  <SCORE.INTRA>
0

>  <SCORE.INTRA.DIHEDRAL>
0

>  <SCORE.INTRA.DIHEDRAL.0>
0

>  <SCORE.INTRA.POLAR>
0

>  <SCORE.INTRA.POLAR.0>
0

>  <SCORE.INTRA.REPUL>
0

>  <SCORE.INTRA.REPUL.0>
0

>  <SCORE.INTRA.SOLV>
0

>  <SCORE.INTRA.SOLV.lig_0>
-29.58

>  <SCORE.INTRA.VDW>
0

>  <SCORE.INTRA.VDW.0>
0

>  <SCORE.INTRA.norm>
0

>  <SCORE.RESTR>
0

>  <SCORE.RESTR.CAVITY>
0

>  <SCORE.RESTR.norm>
0

>  <SCORE.SYSTEM>
0

>  <SCORE.SYSTEM.CONST>
0

>  <SCORE.SYSTEM.DIHEDRAL>
0

>  <SCORE.SYSTEM.SOLV>
0

>  <SCORE.SYSTEM.norm>
0

>  <SCORE.heavy>
8

>  <SCORE.norm>
-0.700602

>  <RMSD>
12.339

$$$$
ligand
 OpenBabel02271912143D
libRbt.so/2013.1/901 2013/11/27
  8  8  0  0  0  0  0  0  0  0999 V2000
    6.8748   23.0469    4.1832 C   0  0  0  0  0  0  0  0  0  0  0  0
    5.7372   23.7247    4.0321 N   0  0  0  0  0  0  0  0  0  0  0  0
    4.5863   23.0619    3.8907 C   0  0  0  0  0  0  0  0  0  0  0  0
    4.5718   21.7087    3.9162 N   0  0  0  0  0  0  0  0  0  0  0  0
    5.7260   21.0366    4.0632 C   0  0  0  0  0  0  0  0  0  0  0  0
    6.8823   21.7036    4.2019 N   0  0  0  0  0  0  0  0  0  0  0  0
    3.3445   23.8456    3.7223 N   0  0  0  0  0  0  0  0  0  0  0  0
    8.0200   23.7531    4.3246 O   0  0  0  0  0  0  0  0  0  0  0  0
  1  2  1  0  0  0  0
  1  6  1  0  0  0  0
  1  8  2  0  0  0  0
  2  3  1  0  0  0  0
  3  4  2  0  0  0  0
  3  7  1  0  0  0  0
  4  5  1  0  0  0  0
  5  6  2  0  0  0  0
M  END
>  <CHROM.1>
5.75970138,22.77349678,4.04676617,-0.00288243,-0.12696192,-0.01341283

>  <Name>
ligand

>  <RI>
0

>  <Rbt.Current_Directory>
/home/itssahil/PROJECTS/Mol_Feturizer/Test_systems_manuscript/rnas/3la5

>  <Rbt.Executable>
rbdock ($Id: //depot/dev/client3/rdock/2013.1/src/exe/rbdock.cxx#4 $)

>  <Rbt.Library>
libRbt.so (2013.1, Build901 2013/11/27)

>  <Rbt.Parameter_File>
/export/apps/rDock/src/rDock_2013.1_src/data/scripts/dock_solv.prm

>  <Rbt.Receptor>
prm/blind_docking_40.prm

>  <SCORE>
-5.55376

>  <SCORE.INTER>
-5.55376

>  <SCORE.INTER.CONST>
1

>  <SCORE.INTER.POLAR>
0

>  <SCORE.INTER.ROT>
0

>  <SCORE.INTER.SOLV>
3.80043

>  <SCORE.INTER.VDW>
-8.56932

>  <SCORE.INTER.norm>
-0.69422

>  <SCORE.INTRA>
0

>  <SCORE.INTRA.DIHEDRAL>
0

>  <SCORE.INTRA.DIHEDRAL.0>
0

>  <SCORE.INTRA.POLAR>
0

>  <SCORE.INTRA.POLAR.0>
0

>  <SCORE.INTRA.REPUL>
0

>  <SCORE.INTRA.REPUL.0>
0

>  <SCORE.INTRA.SOLV>
0

>  <SCORE.INTRA.SOLV.lig_0>
-29.58

>  <SCORE.INTRA.VDW>
0

>  <SCORE.INTRA.VDW.0>
0

>  <SCORE.INTRA.norm>
0

>  <SCORE.RESTR>
0

>  <SCORE.RESTR.CAVITY>
0

>  <SCORE.RESTR.norm>
0

>  <SCORE.SYSTEM>
0

>  <SCORE.SYSTEM.CONST>
0

>  <SCORE.SYSTEM.DIHEDRAL>
0

>  <SCORE.SYSTEM.SOLV>
0

>  <SCORE.SYSTEM.norm>
0

>  <SCORE.heavy>
8

>  <SCORE.norm>
-0.69422

>  <RMSD>
12.361

$$$$
ligand
 OpenBabel02271912143D
libRbt.so/2013.1/901 2013/11/27
  8  8  0  0  0  0  0  0  0  0999 V2000
    6.8913   23.1679    4.2383 C   0  0  0  0  0  0  0  0  0  0  0  0
    5.7085   23.7754    4.1473 N   0  0  0  0  0  0  0  0  0  0  0  0
    4.5991   23.0451    4.0066 C   0  0  0  0  0  0  0  0  0  0  0  0
    4.6727   21.6940    3.9721 N   0  0  0  0  0  0  0  0  0  0  0  0
    5.8716   21.0935    4.0587 C   0  0  0  0  0  0  0  0  0  0  0  0
    6.9860   21.8285    4.1968 N   0  0  0  0  0  0  0  0  0  0  0  0
    3.3050   23.7520    3.9057 N   0  0  0  0  0  0  0  0  0  0  0  0
    7.9923   23.9411    4.3811 O   0  0  0  0  0  0  0  0  0  0  0  0
  1  2  1  0  0  0  0
  1  6  1  0  0  0  0
  1  8  2  0  0  0  0
  2  3  1  0  0  0  0
  3  4  2  0  0  0  0
  3  7  1  0  0  0  0
  4  5  1  0  0  0  0
  5  6  2  0  0  0  0
M  END
>  <CHROM.1>
5.79270727,22.82797071,4.11893249,0.06235480,-0.09860707,0.03769894

>  <Name>
ligand

>  <RI>
0

>  <Rbt.Current_Directory>
/home/itssahil/PROJECTS/Mol_Feturizer/Test_systems_manuscript/rnas/3la5

>  <Rbt.Executable>
rbdock ($Id: //depot/dev/client3/rdock/2013.1/src/exe/rbdock.cxx#4 $)

>  <Rbt.Library>
libRbt.so (2013.1, Build901 2013/11/27)

>  <Rbt.Parameter_File>
/export/apps/rDock/src/rDock_2013.1_src/data/scripts/dock_solv.prm

>  <Rbt.Receptor>
prm/blind_docking_60.prm

>  <SCORE>
-5.55986

>  <SCORE.INTER>
-5.55986

>  <SCORE.INTER.CONST>
1

>  <SCORE.INTER.POLAR>
0

>  <SCORE.INTER.ROT>
0

>  <SCORE.INTER.SOLV>
4.1289

>  <SCORE.INTER.VDW>
-8.68287

>  <SCORE.INTER.norm>
-0.694982

>  <SCORE.INTRA>
0

>  <SCORE.INTRA.DIHEDRAL>
0

>  <SCORE.INTRA.DIHEDRAL.0>
0

>  <SCORE.INTRA.POLAR>
0

>  <SCORE.INTRA.POLAR.0>
0

>  <SCORE.INTRA.REPUL>
0

>  <SCORE.INTRA.REPUL.0>
0

>  <SCORE.INTRA.SOLV>
0

>  <SCORE.INTRA.SOLV.lig_0>
-29.58

>  <SCORE.INTRA.VDW>
0

>  <SCORE.INTRA.VDW.0>
0

>  <SCORE.INTRA.norm>
0

>  <SCORE.RESTR>
0

>  <SCORE.RESTR.CAVITY>
0

>  <SCORE.RESTR.norm>
0

>  <SCORE.SYSTEM>
0

>  <SCORE.SYSTEM.CONST>
0

>  <SCORE.SYSTEM.DIHEDRAL>
0

>  <SCORE.SYSTEM.SOLV>
0

>  <SCORE.SYSTEM.norm>
0

>  <SCORE.heavy>
8

>  <SCORE.norm>
-0.694982

>  <RMSD>
12.399

$$$$
ligand
 OpenBabel02271912143D
libRbt.so/2013.1/901 2013/11/27
  8  8  0  0  0  0  0  0  0  0999 V2000
    6.8282   23.1319    4.2639 C   0  0  0  0  0  0  0  0  0  0  0  0
    5.6436   23.7399    4.2050 N   0  0  0  0  0  0  0  0  0  0  0  0
    4.5329   23.0117    4.0640 C   0  0  0  0  0  0  0  0  0  0  0  0
    4.6071   21.6619    3.9969 N   0  0  0  0  0  0  0  0  0  0  0  0
    5.8077   21.0610    4.0515 C   0  0  0  0  0  0  0  0  0  0  0  0
    6.9234   21.7939    4.1898 N   0  0  0  0  0  0  0  0  0  0  0  0
    3.2367   23.7192    3.9992 N   0  0  0  0  0  0  0  0  0  0  0  0
    7.9305   23.9029    4.4082 O   0  0  0  0  0  0  0  0  0  0  0  0
  1  2  1  0  0  0  0
  1  6  1  0  0  0  0
  1  8  2  0  0  0  0
  2  3  1  0  0  0  0
  3  4  2  0  0  0  0
  3  7  1  0  0  0  0
  4  5  1  0  0  0  0
  5  6  2  0  0  0  0
M  END
>  <CHROM.1>
5.72819941,22.79347441,4.15328946,0.06266501,-0.08348627,0.06104587

>  <Name>
ligand

>  <RI>
0

>  <Rbt.Current_Directory>
/home/itssahil/PROJECTS/Mol_Feturizer/Test_systems_manuscript/rnas/3la5

>  <Rbt.Executable>
rbdock ($Id: //depot/dev/client3/rdock/2013.1/src/exe/rbdock.cxx#4 $)

>  <Rbt.Library>
libRbt.so (2013.1, Build901 2013/11/27)

>  <Rbt.Parameter_File>
/export/apps/rDock/src/rDock_2013.1_src/data/scripts/dock_solv.prm

>  <Rbt.Receptor>
prm/blind_docking_60.prm

>  <SCORE>
-5.56376

>  <SCORE.INTER>
-5.56376

>  <SCORE.INTER.CONST>
1

>  <SCORE.INTER.POLAR>
0

>  <SCORE.INTER.ROT>
0

>  <SCORE.INTER.SOLV>
4.32299

>  <SCORE.INTER.VDW>
-8.75017

>  <SCORE.INTER.norm>
-0.69547

>  <SCORE.INTRA>
0

>  <SCORE.INTRA.DIHEDRAL>
0

>  <SCORE.INTRA.DIHEDRAL.0>
0

>  <SCORE.INTRA.POLAR>
0

>  <SCORE.INTRA.POLAR.0>
0

>  <SCORE.INTRA.REPUL>
0

>  <SCORE.INTRA.REPUL.0>
0

>  <SCORE.INTRA.SOLV>
0

>  <SCORE.INTRA.SOLV.lig_0>
-29.58

>  <SCORE.INTRA.VDW>
0

>  <SCORE.INTRA.VDW.0>
0

>  <SCORE.INTRA.norm>
0

>  <SCORE.RESTR>
0

>  <SCORE.RESTR.CAVITY>
0

>  <SCORE.RESTR.norm>
0

>  <SCORE.SYSTEM>
0

>  <SCORE.SYSTEM.CONST>
0

>  <SCORE.SYSTEM.DIHEDRAL>
0

>  <SCORE.SYSTEM.SOLV>
0

>  <SCORE.SYSTEM.norm>
0

>  <SCORE.heavy>
8

>  <SCORE.norm>
-0.69547

>  <RMSD>
12.401

$$$$
ligand
 OpenBabel02271912143D
libRbt.so/2013.1/901 2013/11/27
  8  8  0  0  0  0  0  0  0  0999 V2000
    6.8277   23.0906    4.1590 C   0  0  0  0  0  0  0  0  0  0  0  0
    5.7161   23.8025    3.9752 N   0  0  0  0  0  0  0  0  0  0  0  0
    4.5477   23.1751    3.8169 C   0  0  0  0  0  0  0  0  0  0  0  0
    4.4891   21.8235    3.8582 N   0  0  0  0  0  0  0  0  0  0  0  0
    5.6176   21.1168    4.0382 C   0  0  0  0  0  0  0  0  0  0  0  0
    6.7916   21.7482    4.1939 N   0  0  0  0  0  0  0  0  0  0  0  0
    3.3356   23.9959    3.6122 N   0  0  0  0  0  0  0  0  0  0  0  0
    7.9919   23.7616    4.3168 O   0  0  0  0  0  0  0  0  0  0  0  0
  1  2  1  0  0  0  0
  1  6  1  0  0  0  0
  1  8  2  0  0  0  0
  2  3  1  0  0  0  0
  3  4  2  0  0  0  0
  3  7  1  0  0  0  0
  4  5  1  0  0  0  0
  5  6  2  0  0  0  0
M  END
>  <CHROM.1>
5.70761636,22.85132188,4.00174393,-0.03574303,-0.14773074,-0.03021599

>  <Name>
ligand

>  <RI>
0

>  <Rbt.Current_Directory>
/home/itssahil/PROJECTS/Mol_Feturizer/Test_systems_manuscript/rnas/3la5

>  <Rbt.Executable>
rbdock ($Id: //depot/dev/client3/rdock/2013.1/src/exe/rbdock.cxx#4 $)

>  <Rbt.Library>
libRbt.so (2013.1, Build901 2013/11/27)

>  <Rbt.Parameter_File>
/export/apps/rDock/src/rDock_2013.1_src/data/scripts/dock_solv.prm

>  <Rbt.Receptor>
prm/blind_docking_80.prm

>  <SCORE>
-5.54236

>  <SCORE.INTER>
-5.54236

>  <SCORE.INTER.CONST>
1

>  <SCORE.INTER.POLAR>
0

>  <SCORE.INTER.ROT>
0

>  <SCORE.INTER.SOLV>
3.5051

>  <SCORE.INTER.VDW>
-8.46327

>  <SCORE.INTER.norm>
-0.692795

>  <SCORE.INTRA>
0

>  <SCORE.INTRA.DIHEDRAL>
0

>  <SCORE.INTRA.DIHEDRAL.0>
0

>  <SCORE.INTRA.POLAR>
0

>  <SCORE.INTRA.POLAR.0>
0

>  <SCORE.INTRA.REPUL>
0

>  <SCORE.INTRA.REPUL.0>
0

>  <SCORE.INTRA.SOLV>
0

>  <SCORE.INTRA.SOLV.lig_0>
-29.58

>  <SCORE.INTRA.VDW>
0

>  <SCORE.INTRA.VDW.0>
0

>  <SCORE.INTRA.norm>
0

>  <SCORE.RESTR>
0

>  <SCORE.RESTR.CAVITY>
0

>  <SCORE.RESTR.norm>
0

>  <SCORE.SYSTEM>
0

>  <SCORE.SYSTEM.CONST>
0

>  <SCORE.SYSTEM.DIHEDRAL>
0

>  <SCORE.SYSTEM.SOLV>
0

>  <SCORE.SYSTEM.norm>
0

>  <SCORE.heavy>
8

>  <SCORE.norm>
-0.692795

>  <RMSD>
12.445

$$$$
ligand
 OpenBabel02271912143D
libRbt.so/2013.1/901 2013/11/27
  8  8  0  0  0  0  0  0  0  0999 V2000
    6.2037    4.6501   -7.6707 C   0  0  0  0  0  0  0  0  0  0  0  0
    5.9330    3.3576   -7.8505 N   0  0  0  0  0  0  0  0  0  0  0  0
    6.2573    2.4758   -6.9012 C   0  0  0  0  0  0  0  0  0  0  0  0
    6.8440    2.8934   -5.7552 N   0  0  0  0  0  0  0  0  0  0  0  0
    7.1172    4.1983   -5.5883 C   0  0  0  0  0  0  0  0  0  0  0  0
    6.7939    5.0830   -6.5441 N   0  0  0  0  0  0  0  0  0  0  0  0
    5.9452    1.0501   -7.1354 N   0  0  0  0  0  0  0  0  0  0  0  0
    5.8593    5.5132   -8.6539 O   0  0  0  0  0  0  0  0  0  0  0  0
  1  2  1  0  0  0  0
  1  6  1  0  0  0  0
  1  8  2  0  0  0  0
  2  3  1  0  0  0  0
  3  4  2  0  0  0  0
  3  7  1  0  0  0  0
  4  5  1  0  0  0  0
  5  6  2  0  0  0  0
M  END
>  <CHROM.1>
6.35108733,3.68024665,-7.05888294,1.62885100,-1.11515124,-0.29279043

>  <Name>
ligand

>  <RI>
0

>  <Rbt.Current_Directory>
/home/itssahil/PROJECTS/Mol_Feturizer/Test_systems_manuscript/rnas/3la5

>  <Rbt.Executable>
rbdock ($Id: //depot/dev/client3/rdock/2013.1/src/exe/rbdock.cxx#4 $)

>  <Rbt.Library>
libRbt.so (2013.1, Build901 2013/11/27)

>  <Rbt.Parameter_File>
/export/apps/rDock/src/rDock_2013.1_src/data/scripts/dock_solv.prm

>  <Rbt.Receptor>
prm/blind_docking_40.prm

>  <SCORE>
-7.49626

>  <SCORE.INTER>
-7.49626

>  <SCORE.INTER.CONST>
1

>  <SCORE.INTER.POLAR>
0

>  <SCORE.INTER.ROT>
0

>  <SCORE.INTER.SOLV>
4.51052

>  <SCORE.INTER.VDW>
-10.101

>  <SCORE.INTER.norm>
-0.937033

>  <SCORE.INTRA>
0

>  <SCORE.INTRA.DIHEDRAL>
0

>  <SCORE.INTRA.DIHEDRAL.0>
0

>  <SCORE.INTRA.POLAR>
0

>  <SCORE.INTRA.POLAR.0>
0

>  <SCORE.INTRA.REPUL>
0

>  <SCORE.INTRA.REPUL.0>
0

>  <SCORE.INTRA.SOLV>
0

>  <SCORE.INTRA.SOLV.lig_0>
-29.58

>  <SCORE.INTRA.VDW>
0

>  <SCORE.INTRA.VDW.0>
0

>  <SCORE.INTRA.norm>
0

>  <SCORE.RESTR>
0

>  <SCORE.RESTR.CAVITY>
0

>  <SCORE.RESTR.norm>
0

>  <SCORE.SYSTEM>
0

>  <SCORE.SYSTEM.CONST>
0

>  <SCORE.SYSTEM.DIHEDRAL>
0

>  <SCORE.SYSTEM.SOLV>
0

>  <SCORE.SYSTEM.norm>
0

>  <SCORE.heavy>
8

>  <SCORE.norm>
-0.937033

>  <RMSD>
12.491

$$$$
ligand
 OpenBabel02271912143D
libRbt.so/2013.1/901 2013/11/27
  8  8  0  0  0  0  0  0  0  0999 V2000
   -2.9727   16.0616    2.9521 C   0  0  0  0  0  0  0  0  0  0  0  0
   -3.1573   14.7871    3.2958 N   0  0  0  0  0  0  0  0  0  0  0  0
   -2.1099   14.0414    3.6573 C   0  0  0  0  0  0  0  0  0  0  0  0
   -0.8687   14.5802    3.6899 N   0  0  0  0  0  0  0  0  0  0  0  0
   -0.6947   15.8645    3.3354 C   0  0  0  0  0  0  0  0  0  0  0  0
   -1.7473   16.6121    2.9692 N   0  0  0  0  0  0  0  0  0  0  0  0
   -2.3509   12.6313    4.0292 N   0  0  0  0  0  0  0  0  0  0  0  0
   -4.0578   16.7854    2.5929 O   0  0  0  0  0  0  0  0  0  0  0  0
  1  2  1  0  0  0  0
  1  6  1  0  0  0  0
  1  8  2  0  0  0  0
  2  3  1  0  0  0  0
  3  4  2  0  0  0  0
  3  7  1  0  0  0  0
  4  5  1  0  0  0  0
  5  6  2  0  0  0  0
M  END
>  <CHROM.1>
-2.29603974,15.19180473,3.30191529,1.96321861,-0.13705289,-0.28026451

>  <Name>
ligand

>  <RI>
0

>  <Rbt.Current_Directory>
/home/itssahil/PROJECTS/Mol_Feturizer/Test_systems_manuscript/rnas/3la5

>  <Rbt.Executable>
rbdock ($Id: //depot/dev/client3/rdock/2013.1/src/exe/rbdock.cxx#4 $)

>  <Rbt.Library>
libRbt.so (2013.1, Build901 2013/11/27)

>  <Rbt.Parameter_File>
/export/apps/rDock/src/rDock_2013.1_src/data/scripts/dock_solv.prm

>  <Rbt.Receptor>
prm/blind_docking_100.prm

>  <SCORE>
-4.33352

>  <SCORE.INTER>
-4.33352

>  <SCORE.INTER.CONST>
1

>  <SCORE.INTER.POLAR>
0

>  <SCORE.INTER.ROT>
0

>  <SCORE.INTER.SOLV>
3.42987

>  <SCORE.INTER.VDW>
-7.63231

>  <SCORE.INTER.norm>
-0.54169

>  <SCORE.INTRA>
0

>  <SCORE.INTRA.DIHEDRAL>
0

>  <SCORE.INTRA.DIHEDRAL.0>
0

>  <SCORE.INTRA.POLAR>
0

>  <SCORE.INTRA.POLAR.0>
0

>  <SCORE.INTRA.REPUL>
0

>  <SCORE.INTRA.REPUL.0>
0

>  <SCORE.INTRA.SOLV>
0

>  <SCORE.INTRA.SOLV.lig_0>
-29.58

>  <SCORE.INTRA.VDW>
0

>  <SCORE.INTRA.VDW.0>
0

>  <SCORE.INTRA.norm>
0

>  <SCORE.RESTR>
0

>  <SCORE.RESTR.CAVITY>
0

>  <SCORE.RESTR.norm>
0

>  <SCORE.SYSTEM>
0

>  <SCORE.SYSTEM.CONST>
0

>  <SCORE.SYSTEM.DIHEDRAL>
0

>  <SCORE.SYSTEM.SOLV>
0

>  <SCORE.SYSTEM.norm>
0

>  <SCORE.heavy>
8

>  <SCORE.norm>
-0.54169

>  <RMSD>
13.611

$$$$
ligand
 OpenBabel02271912143D
libRbt.so/2013.1/901 2013/11/27
  8  8  0  0  0  0  0  0  0  0999 V2000
   -1.4511   14.1451    3.7734 C   0  0  0  0  0  0  0  0  0  0  0  0
   -2.7426   14.4523    3.8923 N   0  0  0  0  0  0  0  0  0  0  0  0
   -3.1633   15.6778    3.5680 C   0  0  0  0  0  0  0  0  0  0  0  0
   -2.2862   16.5992    3.1061 N   0  0  0  0  0  0  0  0  0  0  0  0
   -0.9858   16.2793    2.9964 C   0  0  0  0  0  0  0  0  0  0  0  0
   -0.5636   15.0487    3.3256 N   0  0  0  0  0  0  0  0  0  0  0  0
   -4.6017   15.9846    3.7151 N   0  0  0  0  0  0  0  0  0  0  0  0
   -1.0631   12.8936    4.1104 O   0  0  0  0  0  0  0  0  0  0  0  0
  1  2  1  0  0  0  0
  1  6  1  0  0  0  0
  1  8  2  0  0  0  0
  2  3  1  0  0  0  0
  3  4  2  0  0  0  0
  3  7  1  0  0  0  0
  4  5  1  0  0  0  0
  5  6  2  0  0  0  0
M  END
>  <CHROM.1>
-2.10123984,15.08085744,3.57741253,0.72497247,-0.16239901,2.82585617

>  <Name>
ligand

>  <RI>
0

>  <Rbt.Current_Directory>
/home/itssahil/PROJECTS/Mol_Feturizer/Test_systems_manuscript/rnas/3la5

>  <Rbt.Executable>
rbdock ($Id: //depot/dev/client3/rdock/2013.1/src/exe/rbdock.cxx#4 $)

>  <Rbt.Library>
libRbt.so (2013.1, Build901 2013/11/27)

>  <Rbt.Parameter_File>
/export/apps/rDock/src/rDock_2013.1_src/data/scripts/dock_solv.prm

>  <Rbt.Receptor>
prm/blind_docking_40.prm

>  <SCORE>
-5.2013

>  <SCORE.INTER>
-5.2013

>  <SCORE.INTER.CONST>
1

>  <SCORE.INTER.POLAR>
0

>  <SCORE.INTER.ROT>
0

>  <SCORE.INTER.SOLV>
2.32528

>  <SCORE.INTER.VDW>
-7.84262

>  <SCORE.INTER.norm>
-0.650162

>  <SCORE.INTRA>
0

>  <SCORE.INTRA.DIHEDRAL>
0

>  <SCORE.INTRA.DIHEDRAL.0>
0

>  <SCORE.INTRA.POLAR>
0

>  <SCORE.INTRA.POLAR.0>
0

>  <SCORE.INTRA.REPUL>
0

>  <SCORE.INTRA.REPUL.0>
0

>  <SCORE.INTRA.SOLV>
0

>  <SCORE.INTRA.SOLV.lig_0>
-29.58

>  <SCORE.INTRA.VDW>
0

>  <SCORE.INTRA.VDW.0>
0

>  <SCORE.INTRA.norm>
0

>  <SCORE.RESTR>
0

>  <SCORE.RESTR.CAVITY>
0

>  <SCORE.RESTR.norm>
0

>  <SCORE.SYSTEM>
0

>  <SCORE.SYSTEM.CONST>
0

>  <SCORE.SYSTEM.DIHEDRAL>
0

>  <SCORE.SYSTEM.SOLV>
0

>  <SCORE.SYSTEM.norm>
0

>  <SCORE.heavy>
8

>  <SCORE.norm>
-0.650162

>  <RMSD>
13.678

$$$$
ligand
 OpenBabel02271912143D
libRbt.so/2013.1/901 2013/11/27
  8  8  0  0  0  0  0  0  0  0999 V2000
   -1.4403   14.1987    3.8272 C   0  0  0  0  0  0  0  0  0  0  0  0
   -2.7350   14.5004    3.9231 N   0  0  0  0  0  0  0  0  0  0  0  0
   -3.1581   15.7174    3.5712 C   0  0  0  0  0  0  0  0  0  0  0  0
   -2.2798   16.6355    3.1046 N   0  0  0  0  0  0  0  0  0  0  0  0
   -0.9763   16.3212    3.0182 C   0  0  0  0  0  0  0  0  0  0  0  0
   -0.5518   15.0992    3.3752 N   0  0  0  0  0  0  0  0  0  0  0  0
   -4.6000   16.0186    3.6933 N   0  0  0  0  0  0  0  0  0  0  0  0
   -1.0500   12.9557    4.1919 O   0  0  0  0  0  0  0  0  0  0  0  0
  1  2  1  0  0  0  0
  1  6  1  0  0  0  0
  1  8  2  0  0  0  0
  2  3  1  0  0  0  0
  3  4  2  0  0  0  0
  3  7  1  0  0  0  0
  4  5  1  0  0  0  0
  5  6  2  0  0  0  0
M  END
>  <CHROM.1>
-2.09289969,15.12697143,3.60566017,0.72390162,-0.14779418,2.80770071

>  <Name>
ligand

>  <RI>
0

>  <Rbt.Current_Directory>
/home/itssahil/PROJECTS/Mol_Feturizer/Test_systems_manuscript/rnas/3la5

>  <Rbt.Executable>
rbdock ($Id: //depot/dev/client3/rdock/2013.1/src/exe/rbdock.cxx#4 $)

>  <Rbt.Library>
libRbt.so (2013.1, Build901 2013/11/27)

>  <Rbt.Parameter_File>
/export/apps/rDock/src/rDock_2013.1_src/data/scripts/dock_solv.prm

>  <Rbt.Receptor>
prm/blind_docking_80.prm

>  <SCORE>
-5.21586

>  <SCORE.INTER>
-5.21586

>  <SCORE.INTER.CONST>
1

>  <SCORE.INTER.POLAR>
0

>  <SCORE.INTER.ROT>
0

>  <SCORE.INTER.SOLV>
2.42804

>  <SCORE.INTER.VDW>
-7.88658

>  <SCORE.INTER.norm>
-0.651982

>  <SCORE.INTRA>
0

>  <SCORE.INTRA.DIHEDRAL>
0

>  <SCORE.INTRA.DIHEDRAL.0>
0

>  <SCORE.INTRA.POLAR>
0

>  <SCORE.INTRA.POLAR.0>
0

>  <SCORE.INTRA.REPUL>
0

>  <SCORE.INTRA.REPUL.0>
0

>  <SCORE.INTRA.SOLV>
0

>  <SCORE.INTRA.SOLV.lig_0>
-29.58

>  <SCORE.INTRA.VDW>
0

>  <SCORE.INTRA.VDW.0>
0

>  <SCORE.INTRA.norm>
0

>  <SCORE.RESTR>
0

>  <SCORE.RESTR.CAVITY>
0

>  <SCORE.RESTR.norm>
0

>  <SCORE.SYSTEM>
0

>  <SCORE.SYSTEM.CONST>
0

>  <SCORE.SYSTEM.DIHEDRAL>
0

>  <SCORE.SYSTEM.SOLV>
0

>  <SCORE.SYSTEM.norm>
0

>  <SCORE.heavy>
8

>  <SCORE.norm>
-0.651982

>  <RMSD>
13.687

$$$$
ligand
 OpenBabel02271912143D
libRbt.so/2013.1/901 2013/11/27
  8  8  0  0  0  0  0  0  0  0999 V2000
    0.5812   24.5766    3.5416 C   0  0  0  0  0  0  0  0  0  0  0  0
    0.7189   24.1513    2.2859 N   0  0  0  0  0  0  0  0  0  0  0  0
    1.1543   24.9946    1.3462 C   0  0  0  0  0  0  0  0  0  0  0  0
    1.4695   26.2707    1.6690 N   0  0  0  0  0  0  0  0  0  0  0  0
    1.3208   26.6891    2.9372 C   0  0  0  0  0  0  0  0  0  0  0  0
    0.8800   25.8419    3.8800 N   0  0  0  0  0  0  0  0  0  0  0  0
    1.2921   24.4900   -0.0362 N   0  0  0  0  0  0  0  0  0  0  0  0
    0.1387   23.6931    4.4657 O   0  0  0  0  0  0  0  0  0  0  0  0
  1  2  1  0  0  0  0
  1  6  1  0  0  0  0
  1  8  2  0  0  0  0
  2  3  1  0  0  0  0
  3  4  2  0  0  0  0
  3  7  1  0  0  0  0
  4  5  1  0  0  0  0
  5  6  2  0  0  0  0
M  END
>  <CHROM.1>
0.92546041,25.04430521,2.54184678,2.40858908,1.22819548,0.95634579

>  <Name>
ligand

>  <RI>
0

>  <Rbt.Current_Directory>
/home/itssahil/PROJECTS/Mol_Feturizer/Test_systems_manuscript/rnas/3la5

>  <Rbt.Executable>
rbdock ($Id: //depot/dev/client3/rdock/2013.1/src/exe/rbdock.cxx#4 $)

>  <Rbt.Library>
libRbt.so (2013.1, Build901 2013/11/27)

>  <Rbt.Parameter_File>
/export/apps/rDock/src/rDock_2013.1_src/data/scripts/dock_solv.prm

>  <Rbt.Receptor>
prm/blind_docking_40.prm

>  <SCORE>
-4.40919

>  <SCORE.INTER>
-4.40919

>  <SCORE.INTER.CONST>
1

>  <SCORE.INTER.POLAR>
0

>  <SCORE.INTER.ROT>
0

>  <SCORE.INTER.SOLV>
1.59572

>  <SCORE.INTER.VDW>
-7.07136

>  <SCORE.INTER.norm>
-0.551148

>  <SCORE.INTRA>
0

>  <SCORE.INTRA.DIHEDRAL>
0

>  <SCORE.INTRA.DIHEDRAL.0>
0

>  <SCORE.INTRA.POLAR>
0

>  <SCORE.INTRA.POLAR.0>
0

>  <SCORE.INTRA.REPUL>
0

>  <SCORE.INTRA.REPUL.0>
0

>  <SCORE.INTRA.SOLV>
0

>  <SCORE.INTRA.SOLV.lig_0>
-29.58

>  <SCORE.INTRA.VDW>
0

>  <SCORE.INTRA.VDW.0>
0

>  <SCORE.INTRA.norm>
0

>  <SCORE.RESTR>
0

>  <SCORE.RESTR.CAVITY>
0

>  <SCORE.RESTR.norm>
0

>  <SCORE.SYSTEM>
0

>  <SCORE.SYSTEM.CONST>
0

>  <SCORE.SYSTEM.DIHEDRAL>
0

>  <SCORE.SYSTEM.SOLV>
0

>  <SCORE.SYSTEM.norm>
0

>  <SCORE.heavy>
8

>  <SCORE.norm>
-0.551148

>  <RMSD>
16.629

$$$$
ligand
 OpenBabel02271912143D
libRbt.so/2013.1/901 2013/11/27
  8  8  0  0  0  0  0  0  0  0999 V2000
    0.8537   25.3342    1.5482 C   0  0  0  0  0  0  0  0  0  0  0  0
    0.5264   24.4048    2.4457 N   0  0  0  0  0  0  0  0  0  0  0  0
    0.6742   24.6621    3.7480 C   0  0  0  0  0  0  0  0  0  0  0  0
    1.1391   25.8660    4.1561 N   0  0  0  0  0  0  0  0  0  0  0  0
    1.4712   26.7925    3.2414 C   0  0  0  0  0  0  0  0  0  0  0  0
    1.3254   26.5317    1.9331 N   0  0  0  0  0  0  0  0  0  0  0  0
    0.3043   23.6075    4.7152 N   0  0  0  0  0  0  0  0  0  0  0  0
    0.6890   25.0371    0.2386 O   0  0  0  0  0  0  0  0  0  0  0  0
  1  2  1  0  0  0  0
  1  6  1  0  0  0  0
  1  8  2  0  0  0  0
  2  3  1  0  0  0  0
  3  4  2  0  0  0  0
  3  7  1  0  0  0  0
  4  5  1  0  0  0  0
  5  6  2  0  0  0  0
M  END
>  <CHROM.1>
0.86250593,25.25746235,2.70177167,1.35725716,-1.20416896,-1.47906575

>  <Name>
ligand

>  <RI>
0

>  <Rbt.Current_Directory>
/home/itssahil/PROJECTS/Mol_Feturizer/Test_systems_manuscript/rnas/3la5

>  <Rbt.Executable>
rbdock ($Id: //depot/dev/client3/rdock/2013.1/src/exe/rbdock.cxx#4 $)

>  <Rbt.Library>
libRbt.so (2013.1, Build901 2013/11/27)

>  <Rbt.Parameter_File>
/export/apps/rDock/src/rDock_2013.1_src/data/scripts/dock_solv.prm

>  <Rbt.Receptor>
prm/blind_docking_80.prm

>  <SCORE>
-5.19685

>  <SCORE.INTER>
-5.19685

>  <SCORE.INTER.CONST>
1

>  <SCORE.INTER.POLAR>
0

>  <SCORE.INTER.ROT>
0

>  <SCORE.INTER.SOLV>
2.38192

>  <SCORE.INTER.VDW>
-7.85854

>  <SCORE.INTER.norm>
-0.649607

>  <SCORE.INTRA>
0

>  <SCORE.INTRA.DIHEDRAL>
0

>  <SCORE.INTRA.DIHEDRAL.0>
0

>  <SCORE.INTRA.POLAR>
0

>  <SCORE.INTRA.POLAR.0>
0

>  <SCORE.INTRA.REPUL>
0

>  <SCORE.INTRA.REPUL.0>
0

>  <SCORE.INTRA.SOLV>
0

>  <SCORE.INTRA.SOLV.lig_0>
-29.58

>  <SCORE.INTRA.VDW>
0

>  <SCORE.INTRA.VDW.0>
0

>  <SCORE.INTRA.norm>
0

>  <SCORE.RESTR>
0

>  <SCORE.RESTR.CAVITY>
0

>  <SCORE.RESTR.norm>
0

>  <SCORE.SYSTEM>
0

>  <SCORE.SYSTEM.CONST>
0

>  <SCORE.SYSTEM.DIHEDRAL>
0

>  <SCORE.SYSTEM.SOLV>
0

>  <SCORE.SYSTEM.norm>
0

>  <SCORE.heavy>
8

>  <SCORE.norm>
-0.649607

>  <RMSD>
16.677

$$$$
ligand
 OpenBabel02271912143D
libRbt.so/2013.1/901 2013/11/27
  8  8  0  0  0  0  0  0  0  0999 V2000
   -5.4526   11.5793   12.0127 C   0  0  0  0  0  0  0  0  0  0  0  0
   -4.3426   12.2966   12.1853 N   0  0  0  0  0  0  0  0  0  0  0  0
   -4.3694   13.3782   12.9684 C   0  0  0  0  0  0  0  0  0  0  0  0
   -5.5136   13.7363   13.5966 N   0  0  0  0  0  0  0  0  0  0  0  0
   -6.6275   13.0085   13.4099 C   0  0  0  0  0  0  0  0  0  0  0  0
   -6.6002   11.9237   12.6202 N   0  0  0  0  0  0  0  0  0  0  0  0
   -3.1210   14.1518   13.1348 N   0  0  0  0  0  0  0  0  0  0  0  0
   -5.3860   10.4898   11.2133 O   0  0  0  0  0  0  0  0  0  0  0  0
  1  2  1  0  0  0  0
  1  6  1  0  0  0  0
  1  8  2  0  0  0  0
  2  3  1  0  0  0  0
  3  4  2  0  0  0  0
  3  7  1  0  0  0  0
  4  5  1  0  0  0  0
  5  6  2  0  0  0  0
M  END
>  <CHROM.1>
-5.16348746,12.52744533,12.60771380,-2.07120557,0.24915336,0.62409804

>  <Name>
ligand

>  <RI>
0

>  <Rbt.Current_Directory>
/home/itssahil/PROJECTS/Mol_Feturizer/Test_systems_manuscript/rnas/3la5

>  <Rbt.Executable>
rbdock ($Id: //depot/dev/client3/rdock/2013.1/src/exe/rbdock.cxx#4 $)

>  <Rbt.Library>
libRbt.so (2013.1, Build901 2013/11/27)

>  <Rbt.Parameter_File>
/export/apps/rDock/src/rDock_2013.1_src/data/scripts/dock_solv.prm

>  <Rbt.Receptor>
prm/blind_docking_60.prm

>  <SCORE>
-5.44686

>  <SCORE.INTER>
-5.44686

>  <SCORE.INTER.CONST>
1

>  <SCORE.INTER.POLAR>
0

>  <SCORE.INTER.ROT>
0

>  <SCORE.INTER.SOLV>
1.17697

>  <SCORE.INTER.VDW>
-7.62357

>  <SCORE.INTER.norm>
-0.680858

>  <SCORE.INTRA>
0

>  <SCORE.INTRA.DIHEDRAL>
0

>  <SCORE.INTRA.DIHEDRAL.0>
0

>  <SCORE.INTRA.POLAR>
0

>  <SCORE.INTRA.POLAR.0>
0

>  <SCORE.INTRA.REPUL>
0

>  <SCORE.INTRA.REPUL.0>
0

>  <SCORE.INTRA.SOLV>
0

>  <SCORE.INTRA.SOLV.lig_0>
-29.58

>  <SCORE.INTRA.VDW>
0

>  <SCORE.INTRA.VDW.0>
0

>  <SCORE.INTRA.norm>
0

>  <SCORE.RESTR>
0

>  <SCORE.RESTR.CAVITY>
0

>  <SCORE.RESTR.norm>
0

>  <SCORE.SYSTEM>
0

>  <SCORE.SYSTEM.CONST>
0

>  <SCORE.SYSTEM.DIHEDRAL>
0

>  <SCORE.SYSTEM.SOLV>
0

>  <SCORE.SYSTEM.norm>
0

>  <SCORE.heavy>
8

>  <SCORE.norm>
-0.680858

>  <RMSD>
19.915

$$$$
ligand
 OpenBabel02271912143D
libRbt.so/2013.1/901 2013/11/27
  8  8  0  0  0  0  0  0  0  0999 V2000
   -5.4585   11.6083   12.0491 C   0  0  0  0  0  0  0  0  0  0  0  0
   -4.3214   12.2683   12.2680 N   0  0  0  0  0  0  0  0  0  0  0  0
   -4.3235   13.3452   13.0581 C   0  0  0  0  0  0  0  0  0  0  0  0
   -5.4709   13.7561   13.6467 N   0  0  0  0  0  0  0  0  0  0  0  0
   -6.6119   13.0859   13.4135 C   0  0  0  0  0  0  0  0  0  0  0  0
   -6.6093   12.0060   12.6168 N   0  0  0  0  0  0  0  0  0  0  0  0
   -3.0452   14.0544   13.2764 N   0  0  0  0  0  0  0  0  0  0  0  0
   -5.4165   10.5218   11.2441 O   0  0  0  0  0  0  0  0  0  0  0  0
  1  2  1  0  0  0  0
  1  6  1  0  0  0  0
  1  8  2  0  0  0  0
  2  3  1  0  0  0  0
  3  4  2  0  0  0  0
  3  7  1  0  0  0  0
  4  5  1  0  0  0  0
  5  6  2  0  0  0  0
M  END
>  <CHROM.1>
-5.14490472,12.53728699,12.66183435,-2.09018801,0.18996806,0.63522359

>  <Name>
ligand

>  <RI>
0

>  <Rbt.Current_Directory>
/home/itssahil/PROJECTS/Mol_Feturizer/Test_systems_manuscript/rnas/3la5

>  <Rbt.Executable>
rbdock ($Id: //depot/dev/client3/rdock/2013.1/src/exe/rbdock.cxx#4 $)

>  <Rbt.Library>
libRbt.so (2013.1, Build901 2013/11/27)

>  <Rbt.Parameter_File>
/export/apps/rDock/src/rDock_2013.1_src/data/scripts/dock_solv.prm

>  <Rbt.Receptor>
prm/blind_docking_80.prm

>  <SCORE>
-5.37632

>  <SCORE.INTER>
-5.37632

>  <SCORE.INTER.CONST>
1

>  <SCORE.INTER.POLAR>
0

>  <SCORE.INTER.ROT>
0

>  <SCORE.INTER.SOLV>
1.25503

>  <SCORE.INTER.VDW>
-7.60255

>  <SCORE.INTER.norm>
-0.672039

>  <SCORE.INTRA>
0

>  <SCORE.INTRA.DIHEDRAL>
0

>  <SCORE.INTRA.DIHEDRAL.0>
0

>  <SCORE.INTRA.POLAR>
0

>  <SCORE.INTRA.POLAR.0>
0

>  <SCORE.INTRA.REPUL>
0

>  <SCORE.INTRA.REPUL.0>
0

>  <SCORE.INTRA.SOLV>
0

>  <SCORE.INTRA.SOLV.lig_0>
-29.58

>  <SCORE.INTRA.VDW>
0

>  <SCORE.INTRA.VDW.0>
0

>  <SCORE.INTRA.norm>
0

>  <SCORE.RESTR>
0

>  <SCORE.RESTR.CAVITY>
0

>  <SCORE.RESTR.norm>
0

>  <SCORE.SYSTEM>
0

>  <SCORE.SYSTEM.CONST>
0

>  <SCORE.SYSTEM.DIHEDRAL>
0

>  <SCORE.SYSTEM.SOLV>
0

>  <SCORE.SYSTEM.norm>
0

>  <SCORE.heavy>
8

>  <SCORE.norm>
-0.672039

>  <RMSD>
19.928

$$$$
ligand
 OpenBabel02271912143D
libRbt.so/2013.1/901 2013/11/27
  8  8  0  0  0  0  0  0  0  0999 V2000
  -12.0517   22.4512    7.9867 C   0  0  0  0  0  0  0  0  0  0  0  0
  -11.0272   21.6583    8.3001 N   0  0  0  0  0  0  0  0  0  0  0  0
  -11.2158   20.3392    8.3914 C   0  0  0  0  0  0  0  0  0  0  0  0
  -12.4372   19.8074    8.1519 N   0  0  0  0  0  0  0  0  0  0  0  0
  -13.4634   20.6178    7.8427 C   0  0  0  0  0  0  0  0  0  0  0  0
  -13.2736   21.9434    7.7544 N   0  0  0  0  0  0  0  0  0  0  0  0
  -10.0582   19.4904    8.7439 N   0  0  0  0  0  0  0  0  0  0  0  0
  -11.8215   23.7817    7.9025 O   0  0  0  0  0  0  0  0  0  0  0  0
  1  2  1  0  0  0  0
  1  6  1  0  0  0  0
  1  8  2  0  0  0  0
  2  3  1  0  0  0  0
  3  4  2  0  0  0  0
  3  7  1  0  0  0  0
  4  5  1  0  0  0  0
  5  6  2  0  0  0  0
M  END
>  <CHROM.1>
-11.89877795,21.31460740,8.13331147,-1.94645155,0.22673479,3.04212638

>  <Name>
ligand

>  <RI>
0

>  <Rbt.Current_Directory>
/home/itssahil/PROJECTS/Mol_Feturizer/Test_systems_manuscript/rnas/3la5

>  <Rbt.Executable>
rbdock ($Id: //depot/dev/client3/rdock/2013.1/src/exe/rbdock.cxx#4 $)

>  <Rbt.Library>
libRbt.so (2013.1, Build901 2013/11/27)

>  <Rbt.Parameter_File>
/export/apps/rDock/src/rDock_2013.1_src/data/scripts/dock_solv.prm

>  <Rbt.Receptor>
prm/blind_docking_60.prm

>  <SCORE>
-5.37782

>  <SCORE.INTER>
-5.37782

>  <SCORE.INTER.CONST>
1

>  <SCORE.INTER.POLAR>
0

>  <SCORE.INTER.ROT>
0

>  <SCORE.INTER.SOLV>
3.86391

>  <SCORE.INTER.VDW>
-8.47318

>  <SCORE.INTER.norm>
-0.672227

>  <SCORE.INTRA>
0

>  <SCORE.INTRA.DIHEDRAL>
0

>  <SCORE.INTRA.DIHEDRAL.0>
0

>  <SCORE.INTRA.POLAR>
0

>  <SCORE.INTRA.POLAR.0>
0

>  <SCORE.INTRA.REPUL>
0

>  <SCORE.INTRA.REPUL.0>
0

>  <SCORE.INTRA.SOLV>
0

>  <SCORE.INTRA.SOLV.lig_0>
-29.58

>  <SCORE.INTRA.VDW>
0

>  <SCORE.INTRA.VDW.0>
0

>  <SCORE.INTRA.norm>
0

>  <SCORE.RESTR>
0

>  <SCORE.RESTR.CAVITY>
0

>  <SCORE.RESTR.norm>
0

>  <SCORE.SYSTEM>
0

>  <SCORE.SYSTEM.CONST>
0

>  <SCORE.SYSTEM.DIHEDRAL>
0

>  <SCORE.SYSTEM.SOLV>
0

>  <SCORE.SYSTEM.norm>
0

>  <SCORE.heavy>
8

>  <SCORE.norm>
-0.672227

>  <RMSD>
25.438

$$$$
ligand
 OpenBabel02271912143D
libRbt.so/2013.1/901 2013/11/27
  8  8  0  0  0  0  0  0  0  0999 V2000
  -13.0031   21.4255    7.7081 C   0  0  0  0  0  0  0  0  0  0  0  0
  -12.1466   20.4580    8.0347 N   0  0  0  0  0  0  0  0  0  0  0  0
  -10.8953   20.7716    8.3806 C   0  0  0  0  0  0  0  0  0  0  0  0
  -10.5020   22.0663    8.4149 N   0  0  0  0  0  0  0  0  0  0  0  0
  -11.3730   23.0322    8.0778 C   0  0  0  0  0  0  0  0  0  0  0  0
  -12.6292   22.7157    7.7271 N   0  0  0  0  0  0  0  0  0  0  0  0
   -9.9715   19.6731    8.7337 N   0  0  0  0  0  0  0  0  0  0  0  0
  -14.2621   21.0689    7.3644 O   0  0  0  0  0  0  0  0  0  0  0  0
  1  2  1  0  0  0  0
  1  6  1  0  0  0  0
  1  8  2  0  0  0  0
  2  3  1  0  0  0  0
  3  4  2  0  0  0  0
  3  7  1  0  0  0  0
  4  5  1  0  0  0  0
  5  6  2  0  0  0  0
M  END
>  <CHROM.1>
-11.89741127,21.37634345,8.04240931,2.83866582,-0.28806438,-0.07097440

>  <Name>
ligand

>  <RI>
0

>  <Rbt.Current_Directory>
/home/itssahil/PROJECTS/Mol_Feturizer/Test_systems_manuscript/rnas/3la5

>  <Rbt.Executable>
rbdock ($Id: //depot/dev/client3/rdock/2013.1/src/exe/rbdock.cxx#4 $)

>  <Rbt.Library>
libRbt.so (2013.1, Build901 2013/11/27)

>  <Rbt.Parameter_File>
/export/apps/rDock/src/rDock_2013.1_src/data/scripts/dock_solv.prm

>  <Rbt.Receptor>
prm/blind_docking_60.prm

>  <SCORE>
-6.59491

>  <SCORE.INTER>
-6.59491

>  <SCORE.INTER.CONST>
1

>  <SCORE.INTER.POLAR>
0

>  <SCORE.INTER.ROT>
0

>  <SCORE.INTER.SOLV>
2.98513

>  <SCORE.INTER.VDW>
-8.99165

>  <SCORE.INTER.norm>
-0.824364

>  <SCORE.INTRA>
0

>  <SCORE.INTRA.DIHEDRAL>
0

>  <SCORE.INTRA.DIHEDRAL.0>
0

>  <SCORE.INTRA.POLAR>
0

>  <SCORE.INTRA.POLAR.0>
0

>  <SCORE.INTRA.REPUL>
0

>  <SCORE.INTRA.REPUL.0>
0

>  <SCORE.INTRA.SOLV>
0

>  <SCORE.INTRA.SOLV.lig_0>
-29.58

>  <SCORE.INTRA.VDW>
0

>  <SCORE.INTRA.VDW.0>
0

>  <SCORE.INTRA.norm>
0

>  <SCORE.RESTR>
0

>  <SCORE.RESTR.CAVITY>
0

>  <SCORE.RESTR.norm>
0

>  <SCORE.SYSTEM>
0

>  <SCORE.SYSTEM.CONST>
0

>  <SCORE.SYSTEM.DIHEDRAL>
0

>  <SCORE.SYSTEM.SOLV>
0

>  <SCORE.SYSTEM.norm>
0

>  <SCORE.heavy>
8

>  <SCORE.norm>
-0.824364

>  <RMSD>
25.498

$$$$
ligand
 OpenBabel02271912143D
libRbt.so/2013.1/901 2013/11/27
  8  8  0  0  0  0  0  0  0  0999 V2000
  -10.7020   21.4468    8.8438 C   0  0  0  0  0  0  0  0  0  0  0  0
  -11.6237   20.5044    8.6464 N   0  0  0  0  0  0  0  0  0  0  0  0
  -12.7636   20.8147    8.0234 C   0  0  0  0  0  0  0  0  0  0  0  0
  -12.9765   22.0757    7.5803 N   0  0  0  0  0  0  0  0  0  0  0  0
  -12.0423   23.0183    7.7906 C   0  0  0  0  0  0  0  0  0  0  0  0
  -10.8986   22.7062    8.4197 N   0  0  0  0  0  0  0  0  0  0  0  0
  -13.7646   19.7456    7.8242 N   0  0  0  0  0  0  0  0  0  0  0  0
   -9.5599   21.0942    9.4775 O   0  0  0  0  0  0  0  0  0  0  0  0
  1  2  1  0  0  0  0
  1  6  1  0  0  0  0
  1  8  2  0  0  0  0
  2  3  1  0  0  0  0
  3  4  2  0  0  0  0
  3  7  1  0  0  0  0
  4  5  1  0  0  0  0
  5  6  2  0  0  0  0
M  END
>  <CHROM.1>
-11.74777173,21.40109058,8.35288421,-0.17033766,0.43345989,2.88501999

>  <Name>
ligand

>  <RI>
0

>  <Rbt.Current_Directory>
/home/itssahil/PROJECTS/Mol_Feturizer/Test_systems_manuscript/rnas/3la5

>  <Rbt.Executable>
rbdock ($Id: //depot/dev/client3/rdock/2013.1/src/exe/rbdock.cxx#4 $)

>  <Rbt.Library>
libRbt.so (2013.1, Build901 2013/11/27)

>  <Rbt.Parameter_File>
/export/apps/rDock/src/rDock_2013.1_src/data/scripts/dock_solv.prm

>  <Rbt.Receptor>
prm/blind_docking_100.prm

>  <SCORE>
-5.41497

>  <SCORE.INTER>
-5.41497

>  <SCORE.INTER.CONST>
1

>  <SCORE.INTER.POLAR>
0

>  <SCORE.INTER.ROT>
0

>  <SCORE.INTER.SOLV>
4.78454

>  <SCORE.INTER.VDW>
-8.80483

>  <SCORE.INTER.norm>
-0.676872

>  <SCORE.INTRA>
0

>  <SCORE.INTRA.DIHEDRAL>
0

>  <SCORE.INTRA.DIHEDRAL.0>
0

>  <SCORE.INTRA.POLAR>
0

>  <SCORE.INTRA.POLAR.0>
0

>  <SCORE.INTRA.REPUL>
0

>  <SCORE.INTRA.REPUL.0>
0

>  <SCORE.INTRA.SOLV>
0

>  <SCORE.INTRA.SOLV.lig_0>
-29.58

>  <SCORE.INTRA.VDW>
0

>  <SCORE.INTRA.VDW.0>
0

>  <SCORE.INTRA.norm>
0

>  <SCORE.RESTR>
0

>  <SCORE.RESTR.CAVITY>
0

>  <SCORE.RESTR.norm>
0

>  <SCORE.SYSTEM>
0

>  <SCORE.SYSTEM.CONST>
0

>  <SCORE.SYSTEM.DIHEDRAL>
0

>  <SCORE.SYSTEM.SOLV>
0

>  <SCORE.SYSTEM.norm>
0

>  <SCORE.heavy>
8

>  <SCORE.norm>
-0.676872

>  <RMSD>
25.505

$$$$
ligand
 OpenBabel02271912143D
libRbt.so/2013.1/901 2013/11/27
  8  8  0  0  0  0  0  0  0  0999 V2000
  -13.0145   21.4519    7.6988 C   0  0  0  0  0  0  0  0  0  0  0  0
  -12.1554   20.4844    8.0186 N   0  0  0  0  0  0  0  0  0  0  0  0
  -10.9046   20.7990    8.3655 C   0  0  0  0  0  0  0  0  0  0  0  0
  -10.5145   22.0944    8.4075 N   0  0  0  0  0  0  0  0  0  0  0  0
  -11.3881   23.0603    8.0771 C   0  0  0  0  0  0  0  0  0  0  0  0
  -12.6438   22.7429    7.7255 N   0  0  0  0  0  0  0  0  0  0  0  0
   -9.9779   19.7006    8.7111 N   0  0  0  0  0  0  0  0  0  0  0  0
  -14.2729   21.0943    7.3538 O   0  0  0  0  0  0  0  0  0  0  0  0
  1  2  1  0  0  0  0
  1  6  1  0  0  0  0
  1  8  2  0  0  0  0
  2  3  1  0  0  0  0
  3  4  2  0  0  0  0
  3  7  1  0  0  0  0
  4  5  1  0  0  0  0
  5  6  2  0  0  0  0
M  END
>  <CHROM.1>
-11.90846236,21.40335378,8.03185827,2.84127885,-0.28743548,-0.06403701

>  <Name>
ligand

>  <RI>
0

>  <Rbt.Current_Directory>
/home/itssahil/PROJECTS/Mol_Feturizer/Test_systems_manuscript/rnas/3la5

>  <Rbt.Executable>
rbdock ($Id: //depot/dev/client3/rdock/2013.1/src/exe/rbdock.cxx#4 $)

>  <Rbt.Library>
libRbt.so (2013.1, Build901 2013/11/27)

>  <Rbt.Parameter_File>
/export/apps/rDock/src/rDock_2013.1_src/data/scripts/dock_solv.prm

>  <Rbt.Receptor>
prm/blind_docking_60.prm

>  <SCORE>
-6.65017

>  <SCORE.INTER>
-6.65017

>  <SCORE.INTER.CONST>
1

>  <SCORE.INTER.POLAR>
0

>  <SCORE.INTER.ROT>
0

>  <SCORE.INTER.SOLV>
3.08574

>  <SCORE.INTER.VDW>
-9.06203

>  <SCORE.INTER.norm>
-0.831272

>  <SCORE.INTRA>
0

>  <SCORE.INTRA.DIHEDRAL>
0

>  <SCORE.INTRA.DIHEDRAL.0>
0

>  <SCORE.INTRA.POLAR>
0

>  <SCORE.INTRA.POLAR.0>
0

>  <SCORE.INTRA.REPUL>
0

>  <SCORE.INTRA.REPUL.0>
0

>  <SCORE.INTRA.SOLV>
0

>  <SCORE.INTRA.SOLV.lig_0>
-29.58

>  <SCORE.INTRA.VDW>
0

>  <SCORE.INTRA.VDW.0>
0

>  <SCORE.INTRA.norm>
0

>  <SCORE.RESTR>
0

>  <SCORE.RESTR.CAVITY>
0

>  <SCORE.RESTR.norm>
0

>  <SCORE.SYSTEM>
0

>  <SCORE.SYSTEM.CONST>
0

>  <SCORE.SYSTEM.DIHEDRAL>
0

>  <SCORE.SYSTEM.SOLV>
0

>  <SCORE.SYSTEM.norm>
0

>  <SCORE.heavy>
8

>  <SCORE.norm>
-0.831272

>  <RMSD>
25.515

$$$$
ligand
 OpenBabel02271912143D
libRbt.so/2013.1/901 2013/11/27
  8  8  0  0  0  0  0  0  0  0999 V2000
  -13.0060   21.4487    7.7145 C   0  0  0  0  0  0  0  0  0  0  0  0
  -12.1496   20.4834    8.0481 N   0  0  0  0  0  0  0  0  0  0  0  0
  -10.9018   20.8005    8.4038 C   0  0  0  0  0  0  0  0  0  0  0  0
  -10.5123   22.0962    8.4408 N   0  0  0  0  0  0  0  0  0  0  0  0
  -11.3831   23.0597    8.0964 C   0  0  0  0  0  0  0  0  0  0  0  0
  -12.6356   22.7398    7.7360 N   0  0  0  0  0  0  0  0  0  0  0  0
   -9.9780   19.7045    8.7647 N   0  0  0  0  0  0  0  0  0  0  0  0
  -14.2613   21.0886    7.3609 O   0  0  0  0  0  0  0  0  0  0  0  0
  1  2  1  0  0  0  0
  1  6  1  0  0  0  0
  1  8  2  0  0  0  0
  2  3  1  0  0  0  0
  3  4  2  0  0  0  0
  3  7  1  0  0  0  0
  4  5  1  0  0  0  0
  5  6  2  0  0  0  0
M  END
>  <CHROM.1>
-11.90283493,21.40249058,8.05749422,2.84081295,-0.29613620,-0.07072224

>  <Name>
ligand

>  <RI>
0

>  <Rbt.Current_Directory>
/home/itssahil/PROJECTS/Mol_Feturizer/Test_systems_manuscript/rnas/3la5

>  <Rbt.Executable>
rbdock ($Id: //depot/dev/client3/rdock/2013.1/src/exe/rbdock.cxx#4 $)

>  <Rbt.Library>
libRbt.so (2013.1, Build901 2013/11/27)

>  <Rbt.Parameter_File>
/export/apps/rDock/src/rDock_2013.1_src/data/scripts/dock_solv.prm

>  <Rbt.Receptor>
prm/blind_docking_60.prm

>  <SCORE>
-6.60369

>  <SCORE.INTER>
-6.60369

>  <SCORE.INTER.CONST>
1

>  <SCORE.INTER.POLAR>
0

>  <SCORE.INTER.ROT>
0

>  <SCORE.INTER.SOLV>
3.05245

>  <SCORE.INTER.VDW>
-9.01994

>  <SCORE.INTER.norm>
-0.825461

>  <SCORE.INTRA>
0

>  <SCORE.INTRA.DIHEDRAL>
0

>  <SCORE.INTRA.DIHEDRAL.0>
0

>  <SCORE.INTRA.POLAR>
0

>  <SCORE.INTRA.POLAR.0>
0

>  <SCORE.INTRA.REPUL>
0

>  <SCORE.INTRA.REPUL.0>
0

>  <SCORE.INTRA.SOLV>
0

>  <SCORE.INTRA.SOLV.lig_0>
-29.58

>  <SCORE.INTRA.VDW>
0

>  <SCORE.INTRA.VDW.0>
0

>  <SCORE.INTRA.norm>
0

>  <SCORE.RESTR>
0

>  <SCORE.RESTR.CAVITY>
0

>  <SCORE.RESTR.norm>
0

>  <SCORE.SYSTEM>
0

>  <SCORE.SYSTEM.CONST>
0

>  <SCORE.SYSTEM.DIHEDRAL>
0

>  <SCORE.SYSTEM.SOLV>
0

>  <SCORE.SYSTEM.norm>
0

>  <SCORE.heavy>
8

>  <SCORE.norm>
-0.825461

>  <RMSD>
25.517

$$$$
ligand
 OpenBabel02271912143D
libRbt.so/2013.1/901 2013/11/27
  8  8  0  0  0  0  0  0  0  0999 V2000
  -13.0600   21.4221    7.7134 C   0  0  0  0  0  0  0  0  0  0  0  0
  -12.2176   20.4485    8.0585 N   0  0  0  0  0  0  0  0  0  0  0  0
  -10.9655   20.7516    8.4107 C   0  0  0  0  0  0  0  0  0  0  0  0
  -10.5572   22.0419    8.4327 N   0  0  0  0  0  0  0  0  0  0  0  0
  -11.4141   23.0139    8.0770 C   0  0  0  0  0  0  0  0  0  0  0  0
  -12.6710   22.7080    7.7200 N   0  0  0  0  0  0  0  0  0  0  0  0
  -10.0576   19.6467    8.7845 N   0  0  0  0  0  0  0  0  0  0  0  0
  -14.3203   21.0761    7.3637 O   0  0  0  0  0  0  0  0  0  0  0  0
  1  2  1  0  0  0  0
  1  6  1  0  0  0  0
  1  8  2  0  0  0  0
  2  3  1  0  0  0  0
  3  4  2  0  0  0  0
  3  7  1  0  0  0  0
  4  5  1  0  0  0  0
  5  6  2  0  0  0  0
M  END
>  <CHROM.1>
-11.95767013,21.36396930,8.05719733,2.82574101,-0.29514882,-0.08672308

>  <Name>
ligand

>  <RI>
0

>  <Rbt.Current_Directory>
/home/itssahil/PROJECTS/Mol_Feturizer/Test_systems_manuscript/rnas/3la5

>  <Rbt.Executable>
rbdock ($Id: //depot/dev/client3/rdock/2013.1/src/exe/rbdock.cxx#4 $)

>  <Rbt.Library>
libRbt.so (2013.1, Build901 2013/11/27)

>  <Rbt.Parameter_File>
/export/apps/rDock/src/rDock_2013.1_src/data/scripts/dock_solv.prm

>  <Rbt.Receptor>
prm/blind_docking_60.prm

>  <SCORE>
-6.6067

>  <SCORE.INTER>
-6.6067

>  <SCORE.INTER.CONST>
1

>  <SCORE.INTER.POLAR>
0

>  <SCORE.INTER.ROT>
0

>  <SCORE.INTER.SOLV>
2.97541

>  <SCORE.INTER.VDW>
-8.99627

>  <SCORE.INTER.norm>
-0.825838

>  <SCORE.INTRA>
0

>  <SCORE.INTRA.DIHEDRAL>
0

>  <SCORE.INTRA.DIHEDRAL.0>
0

>  <SCORE.INTRA.POLAR>
0

>  <SCORE.INTRA.POLAR.0>
0

>  <SCORE.INTRA.REPUL>
0

>  <SCORE.INTRA.REPUL.0>
0

>  <SCORE.INTRA.SOLV>
0

>  <SCORE.INTRA.SOLV.lig_0>
-29.58

>  <SCORE.INTRA.VDW>
0

>  <SCORE.INTRA.VDW.0>
0

>  <SCORE.INTRA.norm>
0

>  <SCORE.RESTR>
0

>  <SCORE.RESTR.CAVITY>
0

>  <SCORE.RESTR.norm>
0

>  <SCORE.SYSTEM>
0

>  <SCORE.SYSTEM.CONST>
0

>  <SCORE.SYSTEM.DIHEDRAL>
0

>  <SCORE.SYSTEM.SOLV>
0

>  <SCORE.SYSTEM.norm>
0

>  <SCORE.heavy>
8

>  <SCORE.norm>
-0.825838

>  <RMSD>
25.549

$$$$
ligand
 OpenBabel02271912143D
libRbt.so/2013.1/901 2013/11/27
  8  8  0  0  0  0  0  0  0  0999 V2000
  -13.0424   21.4689    7.7452 C   0  0  0  0  0  0  0  0  0  0  0  0
  -12.1983   20.4997    8.0983 N   0  0  0  0  0  0  0  0  0  0  0  0
  -10.9409   20.8058    8.4286 C   0  0  0  0  0  0  0  0  0  0  0  0
  -10.5289   22.0950    8.4203 N   0  0  0  0  0  0  0  0  0  0  0  0
  -11.3875   23.0625    8.0567 C   0  0  0  0  0  0  0  0  0  0  0  0
  -12.6498   22.7535    7.7219 N   0  0  0  0  0  0  0  0  0  0  0  0
  -10.0314   19.7056    8.8121 N   0  0  0  0  0  0  0  0  0  0  0  0
  -14.3080   21.1200    7.4185 O   0  0  0  0  0  0  0  0  0  0  0  0
  1  2  1  0  0  0  0
  1  6  1  0  0  0  0
  1  8  2  0  0  0  0
  2  3  1  0  0  0  0
  3  4  2  0  0  0  0
  3  7  1  0  0  0  0
  4  5  1  0  0  0  0
  5  6  2  0  0  0  0
M  END
>  <CHROM.1>
-11.93588809,21.41412887,8.07596264,2.82404146,-0.28212892,-0.10660529

>  <Name>
ligand

>  <RI>
0

>  <Rbt.Current_Directory>
/home/itssahil/PROJECTS/Mol_Feturizer/Test_systems_manuscript/rnas/3la5

>  <Rbt.Executable>
rbdock ($Id: //depot/dev/client3/rdock/2013.1/src/exe/rbdock.cxx#4 $)

>  <Rbt.Library>
libRbt.so (2013.1, Build901 2013/11/27)

>  <Rbt.Parameter_File>
/export/apps/rDock/src/rDock_2013.1_src/data/scripts/dock_solv.prm

>  <Rbt.Receptor>
prm/blind_docking_60.prm

>  <SCORE>
-6.6025

>  <SCORE.INTER>
-6.6025

>  <SCORE.INTER.CONST>
1

>  <SCORE.INTER.POLAR>
0

>  <SCORE.INTER.ROT>
0

>  <SCORE.INTER.SOLV>
3.03161

>  <SCORE.INTER.VDW>
-9.0122

>  <SCORE.INTER.norm>
-0.825312

>  <SCORE.INTRA>
0

>  <SCORE.INTRA.DIHEDRAL>
0

>  <SCORE.INTRA.DIHEDRAL.0>
0

>  <SCORE.INTRA.POLAR>
0

>  <SCORE.INTRA.POLAR.0>
0

>  <SCORE.INTRA.REPUL>
0

>  <SCORE.INTRA.REPUL.0>
0

>  <SCORE.INTRA.SOLV>
0

>  <SCORE.INTRA.SOLV.lig_0>
-29.58

>  <SCORE.INTRA.VDW>
0

>  <SCORE.INTRA.VDW.0>
0

>  <SCORE.INTRA.norm>
0

>  <SCORE.RESTR>
0

>  <SCORE.RESTR.CAVITY>
0

>  <SCORE.RESTR.norm>
0

>  <SCORE.SYSTEM>
0

>  <SCORE.SYSTEM.CONST>
0

>  <SCORE.SYSTEM.DIHEDRAL>
0

>  <SCORE.SYSTEM.SOLV>
0

>  <SCORE.SYSTEM.norm>
0

>  <SCORE.heavy>
8

>  <SCORE.norm>
-0.825312

>  <RMSD>
25.553

$$$$
ligand
 OpenBabel02271912143D
libRbt.so/2013.1/901 2013/11/27
  8  8  0  0  0  0  0  0  0  0999 V2000
  -13.0447   21.3912    7.7014 C   0  0  0  0  0  0  0  0  0  0  0  0
  -12.1777   20.4626    8.1045 N   0  0  0  0  0  0  0  0  0  0  0  0
  -10.9506   20.8252    8.4871 C   0  0  0  0  0  0  0  0  0  0  0  0
  -10.5929   22.1306    8.4810 N   0  0  0  0  0  0  0  0  0  0  0  0
  -11.4739   23.0568    8.0669 C   0  0  0  0  0  0  0  0  0  0  0  0
  -12.7056   22.6910    7.6795 N   0  0  0  0  0  0  0  0  0  0  0  0
  -10.0142   19.7688    8.9251 N   0  0  0  0  0  0  0  0  0  0  0  0
  -14.2784   20.9855    7.3225 O   0  0  0  0  0  0  0  0  0  0  0  0
  1  2  1  0  0  0  0
  1  6  1  0  0  0  0
  1  8  2  0  0  0  0
  2  3  1  0  0  0  0
  3  4  2  0  0  0  0
  3  7  1  0  0  0  0
  4  5  1  0  0  0  0
  5  6  2  0  0  0  0
M  END
>  <CHROM.1>
-11.95304789,21.38701895,8.08233315,2.86295728,-0.33164300,-0.10660169

>  <Name>
ligand

>  <RI>
0

>  <Rbt.Current_Directory>
/home/itssahil/PROJECTS/Mol_Feturizer/Test_systems_manuscript/rnas/3la5

>  <Rbt.Executable>
rbdock ($Id: //depot/dev/client3/rdock/2013.1/src/exe/rbdock.cxx#4 $)

>  <Rbt.Library>
libRbt.so (2013.1, Build901 2013/11/27)

>  <Rbt.Parameter_File>
/export/apps/rDock/src/rDock_2013.1_src/data/scripts/dock_solv.prm

>  <Rbt.Receptor>
prm/blind_docking_40.prm

>  <SCORE>
-6.48519

>  <SCORE.INTER>
-6.48519

>  <SCORE.INTER.CONST>
1

>  <SCORE.INTER.POLAR>
0

>  <SCORE.INTER.ROT>
0

>  <SCORE.INTER.SOLV>
3.17148

>  <SCORE.INTER.VDW>
-8.98062

>  <SCORE.INTER.norm>
-0.810648

>  <SCORE.INTRA>
0

>  <SCORE.INTRA.DIHEDRAL>
0

>  <SCORE.INTRA.DIHEDRAL.0>
0

>  <SCORE.INTRA.POLAR>
0

>  <SCORE.INTRA.POLAR.0>
0

>  <SCORE.INTRA.REPUL>
0

>  <SCORE.INTRA.REPUL.0>
0

>  <SCORE.INTRA.SOLV>
0

>  <SCORE.INTRA.SOLV.lig_0>
-29.58

>  <SCORE.INTRA.VDW>
0

>  <SCORE.INTRA.VDW.0>
0

>  <SCORE.INTRA.norm>
0

>  <SCORE.RESTR>
0

>  <SCORE.RESTR.CAVITY>
0

>  <SCORE.RESTR.norm>
0

>  <SCORE.SYSTEM>
0

>  <SCORE.SYSTEM.CONST>
0

>  <SCORE.SYSTEM.DIHEDRAL>
0

>  <SCORE.SYSTEM.SOLV>
0

>  <SCORE.SYSTEM.norm>
0

>  <SCORE.heavy>
8

>  <SCORE.norm>
-0.810648

>  <RMSD>
25.563

$$$$
ligand
 OpenBabel02271912143D
libRbt.so/2013.1/901 2013/11/27
  8  8  0  0  0  0  0  0  0  0999 V2000
  -13.0488   21.4158    7.6989 C   0  0  0  0  0  0  0  0  0  0  0  0
  -12.1897   20.4804    8.1028 N   0  0  0  0  0  0  0  0  0  0  0  0
  -10.9565   20.8322    8.4763 C   0  0  0  0  0  0  0  0  0  0  0  0
  -10.5850   22.1336    8.4601 N   0  0  0  0  0  0  0  0  0  0  0  0
  -11.4583   23.0666    8.0452 C   0  0  0  0  0  0  0  0  0  0  0  0
  -12.6960   22.7117    7.6670 N   0  0  0  0  0  0  0  0  0  0  0  0
  -10.0291   19.7684    8.9156 N   0  0  0  0  0  0  0  0  0  0  0  0
  -14.2890   21.0211    7.3294 O   0  0  0  0  0  0  0  0  0  0  0  0
  1  2  1  0  0  0  0
  1  6  1  0  0  0  0
  1  8  2  0  0  0  0
  2  3  1  0  0  0  0
  3  4  2  0  0  0  0
  3  7  1  0  0  0  0
  4  5  1  0  0  0  0
  5  6  2  0  0  0  0
M  END
>  <CHROM.1>
-11.95520911,21.40220366,8.07369481,2.85234981,-0.32486635,-0.11616880

>  <Name>
ligand

>  <RI>
0

>  <Rbt.Current_Directory>
/home/itssahil/PROJECTS/Mol_Feturizer/Test_systems_manuscript/rnas/3la5

>  <Rbt.Executable>
rbdock ($Id: //depot/dev/client3/rdock/2013.1/src/exe/rbdock.cxx#4 $)

>  <Rbt.Library>
libRbt.so (2013.1, Build901 2013/11/27)

>  <Rbt.Parameter_File>
/export/apps/rDock/src/rDock_2013.1_src/data/scripts/dock_solv.prm

>  <Rbt.Receptor>
prm/blind_docking_40.prm

>  <SCORE>
-6.48712

>  <SCORE.INTER>
-6.48712

>  <SCORE.INTER.CONST>
1

>  <SCORE.INTER.POLAR>
0

>  <SCORE.INTER.ROT>
0

>  <SCORE.INTER.SOLV>
3.2014

>  <SCORE.INTER.VDW>
-8.99188

>  <SCORE.INTER.norm>
-0.81089

>  <SCORE.INTRA>
0

>  <SCORE.INTRA.DIHEDRAL>
0

>  <SCORE.INTRA.DIHEDRAL.0>
0

>  <SCORE.INTRA.POLAR>
0

>  <SCORE.INTRA.POLAR.0>
0

>  <SCORE.INTRA.REPUL>
0

>  <SCORE.INTRA.REPUL.0>
0

>  <SCORE.INTRA.SOLV>
0

>  <SCORE.INTRA.SOLV.lig_0>
-29.58

>  <SCORE.INTRA.VDW>
0

>  <SCORE.INTRA.VDW.0>
0

>  <SCORE.INTRA.norm>
0

>  <SCORE.RESTR>
0

>  <SCORE.RESTR.CAVITY>
0

>  <SCORE.RESTR.norm>
0

>  <SCORE.SYSTEM>
0

>  <SCORE.SYSTEM.CONST>
0

>  <SCORE.SYSTEM.DIHEDRAL>
0

>  <SCORE.SYSTEM.SOLV>
0

>  <SCORE.SYSTEM.norm>
0

>  <SCORE.heavy>
8

>  <SCORE.norm>
-0.81089

>  <RMSD>
25.567

$$$$
ligand
 OpenBabel02271912143D
libRbt.so/2013.1/901 2013/11/27
  8  8  0  0  0  0  0  0  0  0999 V2000
  -13.0359   21.4707    7.7312 C   0  0  0  0  0  0  0  0  0  0  0  0
  -12.1974   20.5076    8.1131 N   0  0  0  0  0  0  0  0  0  0  0  0
  -10.9551   20.8231    8.4888 C   0  0  0  0  0  0  0  0  0  0  0  0
  -10.5533   22.1155    8.4969 N   0  0  0  0  0  0  0  0  0  0  0  0
  -11.4059   23.0768    8.1040 C   0  0  0  0  0  0  0  0  0  0  0  0
  -12.6529   22.7584    7.7236 N   0  0  0  0  0  0  0  0  0  0  0  0
  -10.0513   19.7295    8.9032 N   0  0  0  0  0  0  0  0  0  0  0  0
  -14.2862   21.1124    7.3588 O   0  0  0  0  0  0  0  0  0  0  0  0
  1  2  1  0  0  0  0
  1  6  1  0  0  0  0
  1  8  2  0  0  0  0
  2  3  1  0  0  0  0
  3  4  2  0  0  0  0
  3  7  1  0  0  0  0
  4  5  1  0  0  0  0
  5  6  2  0  0  0  0
M  END
>  <CHROM.1>
-11.94156762,21.42416226,8.10139095,2.82829931,-0.31864425,-0.10393164

>  <Name>
ligand

>  <RI>
0

>  <Rbt.Current_Directory>
/home/itssahil/PROJECTS/Mol_Feturizer/Test_systems_manuscript/rnas/3la5

>  <Rbt.Executable>
rbdock ($Id: //depot/dev/client3/rdock/2013.1/src/exe/rbdock.cxx#4 $)

>  <Rbt.Library>
libRbt.so (2013.1, Build901 2013/11/27)

>  <Rbt.Parameter_File>
/export/apps/rDock/src/rDock_2013.1_src/data/scripts/dock_solv.prm

>  <Rbt.Receptor>
prm/blind_docking_40.prm

>  <SCORE>
-6.47694

>  <SCORE.INTER>
-6.47694

>  <SCORE.INTER.CONST>
1

>  <SCORE.INTER.POLAR>
0

>  <SCORE.INTER.ROT>
0

>  <SCORE.INTER.SOLV>
3.19048

>  <SCORE.INTER.VDW>
-8.98146

>  <SCORE.INTER.norm>
-0.809618

>  <SCORE.INTRA>
0

>  <SCORE.INTRA.DIHEDRAL>
0

>  <SCORE.INTRA.DIHEDRAL.0>
0

>  <SCORE.INTRA.POLAR>
0

>  <SCORE.INTRA.POLAR.0>
0

>  <SCORE.INTRA.REPUL>
0

>  <SCORE.INTRA.REPUL.0>
0

>  <SCORE.INTRA.SOLV>
0

>  <SCORE.INTRA.SOLV.lig_0>
-29.58

>  <SCORE.INTRA.VDW>
0

>  <SCORE.INTRA.VDW.0>
0

>  <SCORE.INTRA.norm>
0

>  <SCORE.RESTR>
0

>  <SCORE.RESTR.CAVITY>
0

>  <SCORE.RESTR.norm>
0

>  <SCORE.SYSTEM>
0

>  <SCORE.SYSTEM.CONST>
0

>  <SCORE.SYSTEM.DIHEDRAL>
0

>  <SCORE.SYSTEM.SOLV>
0

>  <SCORE.SYSTEM.norm>
0

>  <SCORE.heavy>
8

>  <SCORE.norm>
-0.809618

>  <RMSD>
25.569

$$$$
ligand
 OpenBabel02271912143D
libRbt.so/2013.1/901 2013/11/27
  8  8  0  0  0  0  0  0  0  0999 V2000
  -13.0697   21.4792    7.7317 C   0  0  0  0  0  0  0  0  0  0  0  0
  -12.2656   20.5768    8.2934 N   0  0  0  0  0  0  0  0  0  0  0  0
  -11.0563   20.9458    8.7239 C   0  0  0  0  0  0  0  0  0  0  0  0
  -10.6541   22.2327    8.6050 N   0  0  0  0  0  0  0  0  0  0  0  0
  -11.4715   23.1318    8.0315 C   0  0  0  0  0  0  0  0  0  0  0  0
  -12.6851   22.7593    7.5964 N   0  0  0  0  0  0  0  0  0  0  0  0
  -10.1898   19.9183    9.3390 N   0  0  0  0  0  0  0  0  0  0  0  0
  -14.2874   21.0681    7.3091 O   0  0  0  0  0  0  0  0  0  0  0  0
  1  2  1  0  0  0  0
  1  6  1  0  0  0  0
  1  8  2  0  0  0  0
  2  3  1  0  0  0  0
  3  4  2  0  0  0  0
  3  7  1  0  0  0  0
  4  5  1  0  0  0  0
  5  6  2  0  0  0  0
M  END
>  <CHROM.1>
-12.00808329,21.48704274,8.18953952,2.81759780,-0.39698657,-0.23063693

>  <Name>
ligand

>  <RI>
0

>  <Rbt.Current_Directory>
/home/itssahil/PROJECTS/Mol_Feturizer/Test_systems_manuscript/rnas/3la5

>  <Rbt.Executable>
rbdock ($Id: //depot/dev/client3/rdock/2013.1/src/exe/rbdock.cxx#4 $)

>  <Rbt.Library>
libRbt.so (2013.1, Build901 2013/11/27)

>  <Rbt.Parameter_File>
/export/apps/rDock/src/rDock_2013.1_src/data/scripts/dock_solv.prm

>  <Rbt.Receptor>
prm/blind_docking_100.prm

>  <SCORE>
-6.23555

>  <SCORE.INTER>
-6.23555

>  <SCORE.INTER.CONST>
1

>  <SCORE.INTER.POLAR>
0

>  <SCORE.INTER.ROT>
0

>  <SCORE.INTER.SOLV>
4.2268

>  <SCORE.INTER.VDW>
-9.16596

>  <SCORE.INTER.norm>
-0.779443

>  <SCORE.INTRA>
0

>  <SCORE.INTRA.DIHEDRAL>
0

>  <SCORE.INTRA.DIHEDRAL.0>
0

>  <SCORE.INTRA.POLAR>
0

>  <SCORE.INTRA.POLAR.0>
0

>  <SCORE.INTRA.REPUL>
0

>  <SCORE.INTRA.REPUL.0>
0

>  <SCORE.INTRA.SOLV>
0

>  <SCORE.INTRA.SOLV.lig_0>
-29.58

>  <SCORE.INTRA.VDW>
0

>  <SCORE.INTRA.VDW.0>
0

>  <SCORE.INTRA.norm>
0

>  <SCORE.RESTR>
0

>  <SCORE.RESTR.CAVITY>
0

>  <SCORE.RESTR.norm>
0

>  <SCORE.SYSTEM>
0

>  <SCORE.SYSTEM.CONST>
0

>  <SCORE.SYSTEM.DIHEDRAL>
0

>  <SCORE.SYSTEM.SOLV>
0

>  <SCORE.SYSTEM.norm>
0

>  <SCORE.heavy>
8

>  <SCORE.norm>
-0.779443

>  <RMSD>
25.673

$$$$
ligand
 OpenBabel02271912143D
libRbt.so/2013.1/901 2013/11/27
  8  8  0  0  0  0  0  0  0  0999 V2000
  -12.2888   22.3345    8.0607 C   0  0  0  0  0  0  0  0  0  0  0  0
  -13.3476   21.6672    7.6021 N   0  0  0  0  0  0  0  0  0  0  0  0
  -13.6489   20.4717    8.1156 C   0  0  0  0  0  0  0  0  0  0  0  0
  -12.8929   19.9461    9.1077 N   0  0  0  0  0  0  0  0  0  0  0  0
  -11.8246   20.6259    9.5574 C   0  0  0  0  0  0  0  0  0  0  0  0
  -11.5208   21.8256    9.0384 N   0  0  0  0  0  0  0  0  0  0  0  0
  -14.8280   19.7584    7.5812 N   0  0  0  0  0  0  0  0  0  0  0  0
  -12.0161   23.5428    7.5166 O   0  0  0  0  0  0  0  0  0  0  0  0
  1  2  1  0  0  0  0
  1  6  1  0  0  0  0
  1  8  2  0  0  0  0
  2  3  1  0  0  0  0
  3  4  2  0  0  0  0
  3  7  1  0  0  0  0
  4  5  1  0  0  0  0
  5  6  2  0  0  0  0
M  END
>  <CHROM.1>
-12.79313267,21.32047184,8.29343878,0.76813571,-0.61718644,-0.57401943

>  <Name>
ligand

>  <RI>
0

>  <Rbt.Current_Directory>
/home/itssahil/PROJECTS/Mol_Feturizer/Test_systems_manuscript/rnas/3la5

>  <Rbt.Executable>
rbdock ($Id: //depot/dev/client3/rdock/2013.1/src/exe/rbdock.cxx#4 $)

>  <Rbt.Library>
libRbt.so (2013.1, Build901 2013/11/27)

>  <Rbt.Parameter_File>
/export/apps/rDock/src/rDock_2013.1_src/data/scripts/dock_solv.prm

>  <Rbt.Receptor>
prm/blind_docking_40.prm

>  <SCORE>
-4.2453

>  <SCORE.INTER>
-4.2453

>  <SCORE.INTER.CONST>
1

>  <SCORE.INTER.POLAR>
0

>  <SCORE.INTER.ROT>
0

>  <SCORE.INTER.SOLV>
8.18636

>  <SCORE.INTER.VDW>
-9.15899

>  <SCORE.INTER.norm>
-0.530662

>  <SCORE.INTRA>
0

>  <SCORE.INTRA.DIHEDRAL>
0

>  <SCORE.INTRA.DIHEDRAL.0>
0

>  <SCORE.INTRA.POLAR>
0

>  <SCORE.INTRA.POLAR.0>
0

>  <SCORE.INTRA.REPUL>
0

>  <SCORE.INTRA.REPUL.0>
0

>  <SCORE.INTRA.SOLV>
0

>  <SCORE.INTRA.SOLV.lig_0>
-29.58

>  <SCORE.INTRA.VDW>
0

>  <SCORE.INTRA.VDW.0>
0

>  <SCORE.INTRA.norm>
0

>  <SCORE.RESTR>
0

>  <SCORE.RESTR.CAVITY>
0

>  <SCORE.RESTR.norm>
0

>  <SCORE.SYSTEM>
0

>  <SCORE.SYSTEM.CONST>
0

>  <SCORE.SYSTEM.DIHEDRAL>
0

>  <SCORE.SYSTEM.SOLV>
0

>  <SCORE.SYSTEM.norm>
0

>  <SCORE.heavy>
8

>  <SCORE.norm>
-0.530662

>  <RMSD>
26.324

$$$$
ligand
 OpenBabel02271912143D
libRbt.so/2013.1/901 2013/11/27
  8  8  0  0  0  0  0  0  0  0999 V2000
  -13.9162   20.9227    8.0790 C   0  0  0  0  0  0  0  0  0  0  0  0
  -12.7468   20.2863    8.0154 N   0  0  0  0  0  0  0  0  0  0  0  0
  -11.8387   20.4741    8.9766 C   0  0  0  0  0  0  0  0  0  0  0  0
  -12.1092   21.2944   10.0187 N   0  0  0  0  0  0  0  0  0  0  0  0
  -13.2893   21.9350   10.0683 C   0  0  0  0  0  0  0  0  0  0  0  0
  -14.1998   21.7480    9.1004 N   0  0  0  0  0  0  0  0  0  0  0  0
  -10.5517   19.7547    8.8725 N   0  0  0  0  0  0  0  0  0  0  0  0
  -14.8110   20.7062    7.0877 O   0  0  0  0  0  0  0  0  0  0  0  0
  1  2  1  0  0  0  0
  1  6  1  0  0  0  0
  1  8  2  0  0  0  0
  2  3  1  0  0  0  0
  3  4  2  0  0  0  0
  3  7  1  0  0  0  0
  4  5  1  0  0  0  0
  5  6  2  0  0  0  0
M  END
>  <CHROM.1>
-12.96295282,20.87456907,8.73152925,-2.91893534,-0.39722989,0.98215987

>  <Name>
ligand

>  <RI>
0

>  <Rbt.Current_Directory>
/home/itssahil/PROJECTS/Mol_Feturizer/Test_systems_manuscript/rnas/3la5

>  <Rbt.Executable>
rbdock ($Id: //depot/dev/client3/rdock/2013.1/src/exe/rbdock.cxx#4 $)

>  <Rbt.Library>
libRbt.so (2013.1, Build901 2013/11/27)

>  <Rbt.Parameter_File>
/export/apps/rDock/src/rDock_2013.1_src/data/scripts/dock_solv.prm

>  <Rbt.Receptor>
prm/blind_docking_40.prm

>  <SCORE>
-4.55083

>  <SCORE.INTER>
-4.55083

>  <SCORE.INTER.CONST>
1

>  <SCORE.INTER.POLAR>
0

>  <SCORE.INTER.ROT>
0

>  <SCORE.INTER.SOLV>
3.49231

>  <SCORE.INTER.VDW>
-7.79799

>  <SCORE.INTER.norm>
-0.568853

>  <SCORE.INTRA>
0

>  <SCORE.INTRA.DIHEDRAL>
0

>  <SCORE.INTRA.DIHEDRAL.0>
0

>  <SCORE.INTRA.POLAR>
0

>  <SCORE.INTRA.POLAR.0>
0

>  <SCORE.INTRA.REPUL>
0

>  <SCORE.INTRA.REPUL.0>
0

>  <SCORE.INTRA.SOLV>
0

>  <SCORE.INTRA.SOLV.lig_0>
-29.58

>  <SCORE.INTRA.VDW>
0

>  <SCORE.INTRA.VDW.0>
0

>  <SCORE.INTRA.norm>
0

>  <SCORE.RESTR>
0

>  <SCORE.RESTR.CAVITY>
0

>  <SCORE.RESTR.norm>
0

>  <SCORE.SYSTEM>
0

>  <SCORE.SYSTEM.CONST>
0

>  <SCORE.SYSTEM.DIHEDRAL>
0

>  <SCORE.SYSTEM.SOLV>
0

>  <SCORE.SYSTEM.norm>
0

>  <SCORE.heavy>
8

>  <SCORE.norm>
-0.568853

>  <RMSD>
26.504

$$$$
ligand
 OpenBabel02271912143D
libRbt.so/2013.1/901 2013/11/27
  8  8  0  0  0  0  0  0  0  0999 V2000
  -12.3190   22.8983    8.5514 C   0  0  0  0  0  0  0  0  0  0  0  0
  -12.6483   21.7789    7.9072 N   0  0  0  0  0  0  0  0  0  0  0  0
  -13.2996   20.8099    8.5559 C   0  0  0  0  0  0  0  0  0  0  0  0
  -13.6380   20.9691    9.8567 N   0  0  0  0  0  0  0  0  0  0  0  0
  -13.2952   22.0997   10.4967 C   0  0  0  0  0  0  0  0  0  0  0  0
  -12.6379   23.0713    9.8449 N   0  0  0  0  0  0  0  0  0  0  0  0
  -13.6461   19.5810    7.8114 N   0  0  0  0  0  0  0  0  0  0  0  0
  -11.6608   23.8575    7.8606 O   0  0  0  0  0  0  0  0  0  0  0  0
  1  2  1  0  0  0  0
  1  6  1  0  0  0  0
  1  8  2  0  0  0  0
  2  3  1  0  0  0  0
  3  4  2  0  0  0  0
  3  7  1  0  0  0  0
  4  5  1  0  0  0  0
  5  6  2  0  0  0  0
M  END
>  <CHROM.1>
-12.86604415,21.91668882,8.82327540,-0.51475754,-1.05889246,-2.15414951

>  <Name>
ligand

>  <RI>
0

>  <Rbt.Current_Directory>
/home/itssahil/PROJECTS/Mol_Feturizer/Test_systems_manuscript/rnas/3la5

>  <Rbt.Executable>
rbdock ($Id: //depot/dev/client3/rdock/2013.1/src/exe/rbdock.cxx#4 $)

>  <Rbt.Library>
libRbt.so (2013.1, Build901 2013/11/27)

>  <Rbt.Parameter_File>
/export/apps/rDock/src/rDock_2013.1_src/data/scripts/dock_solv.prm

>  <Rbt.Receptor>
prm/blind_docking_100.prm

>  <SCORE>
-6.71403

>  <SCORE.INTER>
-6.71403

>  <SCORE.INTER.CONST>
1

>  <SCORE.INTER.POLAR>
0

>  <SCORE.INTER.ROT>
0

>  <SCORE.INTER.SOLV>
7.38693

>  <SCORE.INTER.VDW>
-10.5383

>  <SCORE.INTER.norm>
-0.839253

>  <SCORE.INTRA>
0

>  <SCORE.INTRA.DIHEDRAL>
0

>  <SCORE.INTRA.DIHEDRAL.0>
0

>  <SCORE.INTRA.POLAR>
0

>  <SCORE.INTRA.POLAR.0>
0

>  <SCORE.INTRA.REPUL>
0

>  <SCORE.INTRA.REPUL.0>
0

>  <SCORE.INTRA.SOLV>
0

>  <SCORE.INTRA.SOLV.lig_0>
-29.58

>  <SCORE.INTRA.VDW>
0

>  <SCORE.INTRA.VDW.0>
0

>  <SCORE.INTRA.norm>
0

>  <SCORE.RESTR>
0

>  <SCORE.RESTR.CAVITY>
0

>  <SCORE.RESTR.norm>
0

>  <SCORE.SYSTEM>
0

>  <SCORE.SYSTEM.CONST>
0

>  <SCORE.SYSTEM.DIHEDRAL>
0

>  <SCORE.SYSTEM.SOLV>
0

>  <SCORE.SYSTEM.norm>
0

>  <SCORE.heavy>
8

>  <SCORE.norm>
-0.839253

>  <RMSD>
26.784

$$$$
ligand
 OpenBabel02271912143D
libRbt.so/2013.1/901 2013/11/27
  8  8  0  0  0  0  0  0  0  0999 V2000
  -12.3243   22.9565    8.5782 C   0  0  0  0  0  0  0  0  0  0  0  0
  -12.6739   21.8580    7.9093 N   0  0  0  0  0  0  0  0  0  0  0  0
  -13.3148   20.8731    8.5442 C   0  0  0  0  0  0  0  0  0  0  0  0
  -13.6222   20.9954    9.8567 N   0  0  0  0  0  0  0  0  0  0  0  0
  -13.2591   22.1052   10.5214 C   0  0  0  0  0  0  0  0  0  0  0  0
  -12.6122   23.0927    9.8833 N   0  0  0  0  0  0  0  0  0  0  0  0
  -13.6846   19.6681    7.7722 N   0  0  0  0  0  0  0  0  0  0  0  0
  -11.6775   23.9328    7.9007 O   0  0  0  0  0  0  0  0  0  0  0  0
  1  2  1  0  0  0  0
  1  6  1  0  0  0  0
  1  8  2  0  0  0  0
  2  3  1  0  0  0  0
  3  4  2  0  0  0  0
  3  7  1  0  0  0  0
  4  5  1  0  0  0  0
  5  6  2  0  0  0  0
M  END
>  <CHROM.1>
-12.86972656,21.96969218,8.83380594,-0.46906606,-1.06709029,-2.08481702

>  <Name>
ligand

>  <RI>
0

>  <Rbt.Current_Directory>
/home/itssahil/PROJECTS/Mol_Feturizer/Test_systems_manuscript/rnas/3la5

>  <Rbt.Executable>
rbdock ($Id: //depot/dev/client3/rdock/2013.1/src/exe/rbdock.cxx#4 $)

>  <Rbt.Library>
libRbt.so (2013.1, Build901 2013/11/27)

>  <Rbt.Parameter_File>
/export/apps/rDock/src/rDock_2013.1_src/data/scripts/dock_solv.prm

>  <Rbt.Receptor>
prm/blind_docking_60.prm

>  <SCORE>
-6.68287

>  <SCORE.INTER>
-6.68287

>  <SCORE.INTER.CONST>
1

>  <SCORE.INTER.POLAR>
0

>  <SCORE.INTER.ROT>
0

>  <SCORE.INTER.SOLV>
7.60933

>  <SCORE.INTER.VDW>
-10.5917

>  <SCORE.INTER.norm>
-0.835359

>  <SCORE.INTRA>
0

>  <SCORE.INTRA.DIHEDRAL>
0

>  <SCORE.INTRA.DIHEDRAL.0>
0

>  <SCORE.INTRA.POLAR>
0

>  <SCORE.INTRA.POLAR.0>
0

>  <SCORE.INTRA.REPUL>
0

>  <SCORE.INTRA.REPUL.0>
0

>  <SCORE.INTRA.SOLV>
0

>  <SCORE.INTRA.SOLV.lig_0>
-29.58

>  <SCORE.INTRA.VDW>
0

>  <SCORE.INTRA.VDW.0>
0

>  <SCORE.INTRA.norm>
0

>  <SCORE.RESTR>
0

>  <SCORE.RESTR.CAVITY>
0

>  <SCORE.RESTR.norm>
0

>  <SCORE.SYSTEM>
0

>  <SCORE.SYSTEM.CONST>
0

>  <SCORE.SYSTEM.DIHEDRAL>
0

>  <SCORE.SYSTEM.SOLV>
0

>  <SCORE.SYSTEM.norm>
0

>  <SCORE.heavy>
8

>  <SCORE.norm>
-0.835359

>  <RMSD>
26.810

$$$$
ligand
 OpenBabel02271912143D
libRbt.so/2013.1/901 2013/11/27
  8  8  0  0  0  0  0  0  0  0999 V2000
  -12.3380   22.8841    8.5301 C   0  0  0  0  0  0  0  0  0  0  0  0
  -12.7090   21.7902    7.8652 N   0  0  0  0  0  0  0  0  0  0  0  0
  -13.3814   20.8266    8.5003 C   0  0  0  0  0  0  0  0  0  0  0  0
  -13.6987   20.9660    9.8087 N   0  0  0  0  0  0  0  0  0  0  0  0
  -13.3138   22.0708   10.4695 C   0  0  0  0  0  0  0  0  0  0  0  0
  -12.6354   23.0369    9.8313 N   0  0  0  0  0  0  0  0  0  0  0  0
  -13.7742   19.6260    7.7328 N   0  0  0  0  0  0  0  0  0  0  0  0
  -11.6596   23.8387    7.8527 O   0  0  0  0  0  0  0  0  0  0  0  0
  1  2  1  0  0  0  0
  1  6  1  0  0  0  0
  1  8  2  0  0  0  0
  2  3  1  0  0  0  0
  3  4  2  0  0  0  0
  3  7  1  0  0  0  0
  4  5  1  0  0  0  0
  5  6  2  0  0  0  0
M  END
>  <CHROM.1>
-12.91117817,21.91340170,8.78692162,-0.46134909,-1.03975586,-2.08506413

>  <Name>
ligand

>  <RI>
0

>  <Rbt.Current_Directory>
/home/itssahil/PROJECTS/Mol_Feturizer/Test_systems_manuscript/rnas/3la5

>  <Rbt.Executable>
rbdock ($Id: //depot/dev/client3/rdock/2013.1/src/exe/rbdock.cxx#4 $)

>  <Rbt.Library>
libRbt.so (2013.1, Build901 2013/11/27)

>  <Rbt.Parameter_File>
/export/apps/rDock/src/rDock_2013.1_src/data/scripts/dock_solv.prm

>  <Rbt.Receptor>
prm/blind_docking_80.prm

>  <SCORE>
-6.7532

>  <SCORE.INTER>
-6.7532

>  <SCORE.INTER.CONST>
1

>  <SCORE.INTER.POLAR>
0

>  <SCORE.INTER.ROT>
0

>  <SCORE.INTER.SOLV>
7.61361

>  <SCORE.INTER.VDW>
-10.64

>  <SCORE.INTER.norm>
-0.84415

>  <SCORE.INTRA>
0

>  <SCORE.INTRA.DIHEDRAL>
0

>  <SCORE.INTRA.DIHEDRAL.0>
0

>  <SCORE.INTRA.POLAR>
0

>  <SCORE.INTRA.POLAR.0>
0

>  <SCORE.INTRA.REPUL>
0

>  <SCORE.INTRA.REPUL.0>
0

>  <SCORE.INTRA.SOLV>
0

>  <SCORE.INTRA.SOLV.lig_0>
-29.58

>  <SCORE.INTRA.VDW>
0

>  <SCORE.INTRA.VDW.0>
0

>  <SCORE.INTRA.norm>
0

>  <SCORE.RESTR>
0

>  <SCORE.RESTR.CAVITY>
0

>  <SCORE.RESTR.norm>
0

>  <SCORE.SYSTEM>
0

>  <SCORE.SYSTEM.CONST>
0

>  <SCORE.SYSTEM.DIHEDRAL>
0

>  <SCORE.SYSTEM.SOLV>
0

>  <SCORE.SYSTEM.norm>
0

>  <SCORE.heavy>
8

>  <SCORE.norm>
-0.84415

>  <RMSD>
26.813

$$$$
ligand
 OpenBabel02271912143D
libRbt.so/2013.1/901 2013/11/27
  8  8  0  0  0  0  0  0  0  0999 V2000
  -12.3515   22.8803    8.5288 C   0  0  0  0  0  0  0  0  0  0  0  0
  -12.7110   21.7797    7.8685 N   0  0  0  0  0  0  0  0  0  0  0  0
  -13.3832   20.8169    8.5048 C   0  0  0  0  0  0  0  0  0  0  0  0
  -13.7120   20.9635    9.8096 N   0  0  0  0  0  0  0  0  0  0  0  0
  -13.3386   22.0750   10.4658 C   0  0  0  0  0  0  0  0  0  0  0  0
  -12.6604   23.0404    9.8263 N   0  0  0  0  0  0  0  0  0  0  0  0
  -13.7632   19.6089    7.7425 N   0  0  0  0  0  0  0  0  0  0  0  0
  -11.6728   23.8339    7.8502 O   0  0  0  0  0  0  0  0  0  0  0  0
  1  2  1  0  0  0  0
  1  6  1  0  0  0  0
  1  8  2  0  0  0  0
  2  3  1  0  0  0  0
  3  4  2  0  0  0  0
  3  7  1  0  0  0  0
  4  5  1  0  0  0  0
  5  6  2  0  0  0  0
M  END
>  <CHROM.1>
-12.92135636,21.90823639,8.78764800,-0.48078309,-1.04042402,-2.10877949

>  <Name>
ligand

>  <RI>
0

>  <Rbt.Current_Directory>
/home/itssahil/PROJECTS/Mol_Feturizer/Test_systems_manuscript/rnas/3la5

>  <Rbt.Executable>
rbdock ($Id: //depot/dev/client3/rdock/2013.1/src/exe/rbdock.cxx#4 $)

>  <Rbt.Library>
libRbt.so (2013.1, Build901 2013/11/27)

>  <Rbt.Parameter_File>
/export/apps/rDock/src/rDock_2013.1_src/data/scripts/dock_solv.prm

>  <Rbt.Receptor>
prm/blind_docking_80.prm

>  <SCORE>
-6.74484

>  <SCORE.INTER>
-6.74485

>  <SCORE.INTER.CONST>
1

>  <SCORE.INTER.POLAR>
0

>  <SCORE.INTER.ROT>
0

>  <SCORE.INTER.SOLV>
7.60037

>  <SCORE.INTER.VDW>
-10.63

>  <SCORE.INTER.norm>
-0.843106

>  <SCORE.INTRA>
0

>  <SCORE.INTRA.DIHEDRAL>
0

>  <SCORE.INTRA.DIHEDRAL.0>
0

>  <SCORE.INTRA.POLAR>
0

>  <SCORE.INTRA.POLAR.0>
0

>  <SCORE.INTRA.REPUL>
0

>  <SCORE.INTRA.REPUL.0>
0

>  <SCORE.INTRA.SOLV>
0

>  <SCORE.INTRA.SOLV.lig_0>
-29.58

>  <SCORE.INTRA.VDW>
0

>  <SCORE.INTRA.VDW.0>
0

>  <SCORE.INTRA.norm>
0

>  <SCORE.RESTR>
1.4999e-05

>  <SCORE.RESTR.CAVITY>
1.4999e-05

>  <SCORE.RESTR.norm>
1.87488e-06

>  <SCORE.SYSTEM>
0

>  <SCORE.SYSTEM.CONST>
0

>  <SCORE.SYSTEM.DIHEDRAL>
0

>  <SCORE.SYSTEM.SOLV>
0

>  <SCORE.SYSTEM.norm>
0

>  <SCORE.heavy>
8

>  <SCORE.norm>
-0.843104

>  <RMSD>
26.820

$$$$
ligand
 OpenBabel02271912143D
libRbt.so/2013.1/901 2013/11/27
  8  8  0  0  0  0  0  0  0  0999 V2000
  -12.3247   22.9551    8.5769 C   0  0  0  0  0  0  0  0  0  0  0  0
  -12.6889   21.8621    7.9068 N   0  0  0  0  0  0  0  0  0  0  0  0
  -13.3401   20.8837    8.5414 C   0  0  0  0  0  0  0  0  0  0  0  0
  -13.6430   21.0072    9.8547 N   0  0  0  0  0  0  0  0  0  0  0  0
  -13.2652   22.1113   10.5207 C   0  0  0  0  0  0  0  0  0  0  0  0
  -12.6081   23.0923    9.8829 N   0  0  0  0  0  0  0  0  0  0  0  0
  -13.7259   19.6847    7.7680 N   0  0  0  0  0  0  0  0  0  0  0  0
  -11.6679   23.9250    7.8998 O   0  0  0  0  0  0  0  0  0  0  0  0
  1  2  1  0  0  0  0
  1  6  1  0  0  0  0
  1  8  2  0  0  0  0
  2  3  1  0  0  0  0
  3  4  2  0  0  0  0
  3  7  1  0  0  0  0
  4  5  1  0  0  0  0
  5  6  2  0  0  0  0
M  END
>  <CHROM.1>
-12.88130594,21.97439888,8.83194929,-0.45314329,-1.05777159,-2.06905138

>  <Name>
ligand

>  <RI>
0

>  <Rbt.Current_Directory>
/home/itssahil/PROJECTS/Mol_Feturizer/Test_systems_manuscript/rnas/3la5

>  <Rbt.Executable>
rbdock ($Id: //depot/dev/client3/rdock/2013.1/src/exe/rbdock.cxx#4 $)

>  <Rbt.Library>
libRbt.so (2013.1, Build901 2013/11/27)

>  <Rbt.Parameter_File>
/export/apps/rDock/src/rDock_2013.1_src/data/scripts/dock_solv.prm

>  <Rbt.Receptor>
prm/blind_docking_60.prm

>  <SCORE>
-6.68144

>  <SCORE.INTER>
-6.68166

>  <SCORE.INTER.CONST>
1

>  <SCORE.INTER.POLAR>
0

>  <SCORE.INTER.ROT>
0

>  <SCORE.INTER.SOLV>
7.65639

>  <SCORE.INTER.VDW>
-10.6066

>  <SCORE.INTER.norm>
-0.835208

>  <SCORE.INTRA>
0

>  <SCORE.INTRA.DIHEDRAL>
0

>  <SCORE.INTRA.DIHEDRAL.0>
0

>  <SCORE.INTRA.POLAR>
0

>  <SCORE.INTRA.POLAR.0>
0

>  <SCORE.INTRA.REPUL>
0

>  <SCORE.INTRA.REPUL.0>
0

>  <SCORE.INTRA.SOLV>
0

>  <SCORE.INTRA.SOLV.lig_0>
-29.58

>  <SCORE.INTRA.VDW>
0

>  <SCORE.INTRA.VDW.0>
0

>  <SCORE.INTRA.norm>
0

>  <SCORE.RESTR>
0.000221161

>  <SCORE.RESTR.CAVITY>
0.000221161

>  <SCORE.RESTR.norm>
2.76451e-05

>  <SCORE.SYSTEM>
0

>  <SCORE.SYSTEM.CONST>
0

>  <SCORE.SYSTEM.DIHEDRAL>
0

>  <SCORE.SYSTEM.SOLV>
0

>  <SCORE.SYSTEM.norm>
0

>  <SCORE.heavy>
8

>  <SCORE.norm>
-0.83518

>  <RMSD>
26.822

$$$$
ligand
 OpenBabel02271912143D
libRbt.so/2013.1/901 2013/11/27
  8  8  0  0  0  0  0  0  0  0999 V2000
  -12.3409   22.8930    8.5284 C   0  0  0  0  0  0  0  0  0  0  0  0
  -12.7310   21.8122    7.8531 N   0  0  0  0  0  0  0  0  0  0  0  0
  -13.4079   20.8480    8.4824 C   0  0  0  0  0  0  0  0  0  0  0  0
  -13.7105   20.9737    9.7956 N   0  0  0  0  0  0  0  0  0  0  0  0
  -13.3066   22.0653   10.4669 C   0  0  0  0  0  0  0  0  0  0  0  0
  -12.6236   23.0321    9.8344 N   0  0  0  0  0  0  0  0  0  0  0  0
  -13.8221   19.6621    7.7033 N   0  0  0  0  0  0  0  0  0  0  0  0
  -11.6584   23.8487    7.8566 O   0  0  0  0  0  0  0  0  0  0  0  0
  1  2  1  0  0  0  0
  1  6  1  0  0  0  0
  1  8  2  0  0  0  0
  2  3  1  0  0  0  0
  3  4  2  0  0  0  0
  3  7  1  0  0  0  0
  4  5  1  0  0  0  0
  5  6  2  0  0  0  0
M  END
>  <CHROM.1>
-12.92250999,21.92557476,8.77834660,-0.43337645,-1.03454789,-2.04789948

>  <Name>
ligand

>  <RI>
0

>  <Rbt.Current_Directory>
/home/itssahil/PROJECTS/Mol_Feturizer/Test_systems_manuscript/rnas/3la5

>  <Rbt.Executable>
rbdock ($Id: //depot/dev/client3/rdock/2013.1/src/exe/rbdock.cxx#4 $)

>  <Rbt.Library>
libRbt.so (2013.1, Build901 2013/11/27)

>  <Rbt.Parameter_File>
/export/apps/rDock/src/rDock_2013.1_src/data/scripts/dock_solv.prm

>  <Rbt.Receptor>
prm/blind_docking_100.prm

>  <SCORE>
-6.75126

>  <SCORE.INTER>
-6.75126

>  <SCORE.INTER.CONST>
1

>  <SCORE.INTER.POLAR>
0

>  <SCORE.INTER.ROT>
0

>  <SCORE.INTER.SOLV>
7.71035

>  <SCORE.INTER.VDW>
-10.671

>  <SCORE.INTER.norm>
-0.843908

>  <SCORE.INTRA>
0

>  <SCORE.INTRA.DIHEDRAL>
0

>  <SCORE.INTRA.DIHEDRAL.0>
0

>  <SCORE.INTRA.POLAR>
0

>  <SCORE.INTRA.POLAR.0>
0

>  <SCORE.INTRA.REPUL>
0

>  <SCORE.INTRA.REPUL.0>
0

>  <SCORE.INTRA.SOLV>
0

>  <SCORE.INTRA.SOLV.lig_0>
-29.58

>  <SCORE.INTRA.VDW>
0

>  <SCORE.INTRA.VDW.0>
0

>  <SCORE.INTRA.norm>
0

>  <SCORE.RESTR>
0

>  <SCORE.RESTR.CAVITY>
0

>  <SCORE.RESTR.norm>
0

>  <SCORE.SYSTEM>
0

>  <SCORE.SYSTEM.CONST>
0

>  <SCORE.SYSTEM.DIHEDRAL>
0

>  <SCORE.SYSTEM.SOLV>
0

>  <SCORE.SYSTEM.norm>
0

>  <SCORE.heavy>
8

>  <SCORE.norm>
-0.843908

>  <RMSD>
26.826

$$$$
ligand
 OpenBabel02271912143D
libRbt.so/2013.1/901 2013/11/27
  8  8  0  0  0  0  0  0  0  0999 V2000
  -12.3396   22.8951    8.5303 C   0  0  0  0  0  0  0  0  0  0  0  0
  -12.7389   21.8179    7.8545 N   0  0  0  0  0  0  0  0  0  0  0  0
  -13.4165   20.8552    8.4853 C   0  0  0  0  0  0  0  0  0  0  0  0
  -13.7105   20.9788    9.8007 N   0  0  0  0  0  0  0  0  0  0  0  0
  -13.2973   22.0667   10.4724 C   0  0  0  0  0  0  0  0  0  0  0  0
  -12.6136   23.0319    9.8383 N   0  0  0  0  0  0  0  0  0  0  0  0
  -13.8411   19.6734    7.7057 N   0  0  0  0  0  0  0  0  0  0  0  0
  -11.6567   23.8493    7.8569 O   0  0  0  0  0  0  0  0  0  0  0  0
  1  2  1  0  0  0  0
  1  6  1  0  0  0  0
  1  8  2  0  0  0  0
  2  3  1  0  0  0  0
  3  4  2  0  0  0  0
  3  7  1  0  0  0  0
  4  5  1  0  0  0  0
  5  6  2  0  0  0  0
M  END
>  <CHROM.1>
-12.92423949,21.92968654,8.78118336,-0.41849094,-1.03310272,-2.03241716

>  <Name>
ligand

>  <RI>
0

>  <Rbt.Current_Directory>
/home/itssahil/PROJECTS/Mol_Feturizer/Test_systems_manuscript/rnas/3la5

>  <Rbt.Executable>
rbdock ($Id: //depot/dev/client3/rdock/2013.1/src/exe/rbdock.cxx#4 $)

>  <Rbt.Library>
libRbt.so (2013.1, Build901 2013/11/27)

>  <Rbt.Parameter_File>
/export/apps/rDock/src/rDock_2013.1_src/data/scripts/dock_solv.prm

>  <Rbt.Receptor>
prm/blind_docking_100.prm

>  <SCORE>
-6.74916

>  <SCORE.INTER>
-6.74916

>  <SCORE.INTER.CONST>
1

>  <SCORE.INTER.POLAR>
0

>  <SCORE.INTER.ROT>
0

>  <SCORE.INTER.SOLV>
7.73233

>  <SCORE.INTER.VDW>
-10.6769

>  <SCORE.INTER.norm>
-0.843645

>  <SCORE.INTRA>
0

>  <SCORE.INTRA.DIHEDRAL>
0

>  <SCORE.INTRA.DIHEDRAL.0>
0

>  <SCORE.INTRA.POLAR>
0

>  <SCORE.INTRA.POLAR.0>
0

>  <SCORE.INTRA.REPUL>
0

>  <SCORE.INTRA.REPUL.0>
0

>  <SCORE.INTRA.SOLV>
0

>  <SCORE.INTRA.SOLV.lig_0>
-29.58

>  <SCORE.INTRA.VDW>
0

>  <SCORE.INTRA.VDW.0>
0

>  <SCORE.INTRA.norm>
0

>  <SCORE.RESTR>
0

>  <SCORE.RESTR.CAVITY>
0

>  <SCORE.RESTR.norm>
0

>  <SCORE.SYSTEM>
0

>  <SCORE.SYSTEM.CONST>
0

>  <SCORE.SYSTEM.DIHEDRAL>
0

>  <SCORE.SYSTEM.SOLV>
0

>  <SCORE.SYSTEM.norm>
0

>  <SCORE.heavy>
8

>  <SCORE.norm>
-0.843645

>  <RMSD>
26.830

$$$$
ligand
 OpenBabel02271912143D
libRbt.so/2013.1/901 2013/11/27
  8  8  0  0  0  0  0  0  0  0999 V2000
  -12.3583   22.8845    8.5165 C   0  0  0  0  0  0  0  0  0  0  0  0
  -12.8627   21.8557    7.8356 N   0  0  0  0  0  0  0  0  0  0  0  0
  -13.5827   20.9296    8.4741 C   0  0  0  0  0  0  0  0  0  0  0  0
  -13.8130   21.0422    9.8031 N   0  0  0  0  0  0  0  0  0  0  0  0
  -13.2941   22.0808   10.4795 C   0  0  0  0  0  0  0  0  0  0  0  0
  -12.5680   23.0091    9.8376 N   0  0  0  0  0  0  0  0  0  0  0  0
  -14.1242   19.8008    7.6883 N   0  0  0  0  0  0  0  0  0  0  0  0
  -11.6354   23.8029    7.8351 O   0  0  0  0  0  0  0  0  0  0  0  0
  1  2  1  0  0  0  0
  1  6  1  0  0  0  0
  1  8  2  0  0  0  0
  2  3  1  0  0  0  0
  3  4  2  0  0  0  0
  3  7  1  0  0  0  0
  4  5  1  0  0  0  0
  5  6  2  0  0  0  0
M  END
>  <CHROM.1>
-13.00138212,21.95816249,8.77149437,-0.29365418,-0.98195194,-1.90406085

>  <Name>
ligand

>  <RI>
0

>  <Rbt.Current_Directory>
/home/itssahil/PROJECTS/Mol_Feturizer/Test_systems_manuscript/rnas/3la5

>  <Rbt.Executable>
rbdock ($Id: //depot/dev/client3/rdock/2013.1/src/exe/rbdock.cxx#4 $)

>  <Rbt.Library>
libRbt.so (2013.1, Build901 2013/11/27)

>  <Rbt.Parameter_File>
/export/apps/rDock/src/rDock_2013.1_src/data/scripts/dock_solv.prm

>  <Rbt.Receptor>
prm/blind_docking_80.prm

>  <SCORE>
-6.57778

>  <SCORE.INTER>
-6.57778

>  <SCORE.INTER.CONST>
1

>  <SCORE.INTER.POLAR>
0

>  <SCORE.INTER.ROT>
0

>  <SCORE.INTER.SOLV>
8.27939

>  <SCORE.INTER.VDW>
-10.745

>  <SCORE.INTER.norm>
-0.822223

>  <SCORE.INTRA>
0

>  <SCORE.INTRA.DIHEDRAL>
0

>  <SCORE.INTRA.DIHEDRAL.0>
0

>  <SCORE.INTRA.POLAR>
0

>  <SCORE.INTRA.POLAR.0>
0

>  <SCORE.INTRA.REPUL>
0

>  <SCORE.INTRA.REPUL.0>
0

>  <SCORE.INTRA.SOLV>
0

>  <SCORE.INTRA.SOLV.lig_0>
-29.58

>  <SCORE.INTRA.VDW>
0

>  <SCORE.INTRA.VDW.0>
0

>  <SCORE.INTRA.norm>
0

>  <SCORE.RESTR>
0

>  <SCORE.RESTR.CAVITY>
0

>  <SCORE.RESTR.norm>
0

>  <SCORE.SYSTEM>
0

>  <SCORE.SYSTEM.CONST>
0

>  <SCORE.SYSTEM.DIHEDRAL>
0

>  <SCORE.SYSTEM.SOLV>
0

>  <SCORE.SYSTEM.norm>
0

>  <SCORE.heavy>
8

>  <SCORE.norm>
-0.822223

>  <RMSD>
26.909

$$$$
ligand
 OpenBabel02271912143D
libRbt.so/2013.1/901 2013/11/27
  8  8  0  0  0  0  0  0  0  0999 V2000
  -12.4113   22.7847    8.3903 C   0  0  0  0  0  0  0  0  0  0  0  0
  -13.0338   21.7821    7.7708 N   0  0  0  0  0  0  0  0  0  0  0  0
  -13.7774   20.9276    8.4784 C   0  0  0  0  0  0  0  0  0  0  0  0
  -13.9117   21.0870    9.8158 N   0  0  0  0  0  0  0  0  0  0  0  0
  -13.2744   22.0981   10.4296 C   0  0  0  0  0  0  0  0  0  0  0  0
  -12.5248   22.9542    9.7181 N   0  0  0  0  0  0  0  0  0  0  0  0
  -14.4510   19.8258    7.7593 N   0  0  0  0  0  0  0  0  0  0  0  0
  -11.6682   23.6303    7.6399 O   0  0  0  0  0  0  0  0  0  0  0  0
  1  2  1  0  0  0  0
  1  6  1  0  0  0  0
  1  8  2  0  0  0  0
  2  3  1  0  0  0  0
  3  4  2  0  0  0  0
  3  7  1  0  0  0  0
  4  5  1  0  0  0  0
  5  6  2  0  0  0  0
M  END
>  <CHROM.1>
-13.10334105,21.91559442,8.71045378,-0.15019841,-0.92804667,-1.81164058

>  <Name>
ligand

>  <RI>
0

>  <Rbt.Current_Directory>
/home/itssahil/PROJECTS/Mol_Feturizer/Test_systems_manuscript/rnas/3la5

>  <Rbt.Executable>
rbdock ($Id: //depot/dev/client3/rdock/2013.1/src/exe/rbdock.cxx#4 $)

>  <Rbt.Library>
libRbt.so (2013.1, Build901 2013/11/27)

>  <Rbt.Parameter_File>
/export/apps/rDock/src/rDock_2013.1_src/data/scripts/dock_solv.prm

>  <Rbt.Receptor>
prm/blind_docking_100.prm

>  <SCORE>
-6.59508

>  <SCORE.INTER>
-6.59508

>  <SCORE.INTER.CONST>
1

>  <SCORE.INTER.POLAR>
0

>  <SCORE.INTER.ROT>
0

>  <SCORE.INTER.SOLV>
8.50966

>  <SCORE.INTER.VDW>
-10.8333

>  <SCORE.INTER.norm>
-0.824385

>  <SCORE.INTRA>
0

>  <SCORE.INTRA.DIHEDRAL>
0

>  <SCORE.INTRA.DIHEDRAL.0>
0

>  <SCORE.INTRA.POLAR>
0

>  <SCORE.INTRA.POLAR.0>
0

>  <SCORE.INTRA.REPUL>
0

>  <SCORE.INTRA.REPUL.0>
0

>  <SCORE.INTRA.SOLV>
0

>  <SCORE.INTRA.SOLV.lig_0>
-29.58

>  <SCORE.INTRA.VDW>
0

>  <SCORE.INTRA.VDW.0>
0

>  <SCORE.INTRA.norm>
0

>  <SCORE.RESTR>
0

>  <SCORE.RESTR.CAVITY>
0

>  <SCORE.RESTR.norm>
0

>  <SCORE.SYSTEM>
0

>  <SCORE.SYSTEM.CONST>
0

>  <SCORE.SYSTEM.DIHEDRAL>
0

>  <SCORE.SYSTEM.SOLV>
0

>  <SCORE.SYSTEM.norm>
0

>  <SCORE.heavy>
8

>  <SCORE.norm>
-0.824385

>  <RMSD>
26.968

$$$$
ligand
 OpenBabel02271912143D
libRbt.so/2013.1/901 2013/11/27
  8  8  0  0  0  0  0  0  0  0999 V2000
  -12.4131   22.7892    8.3954 C   0  0  0  0  0  0  0  0  0  0  0  0
  -13.0263   21.7820    7.7741 N   0  0  0  0  0  0  0  0  0  0  0  0
  -13.7755   20.9291    8.4777 C   0  0  0  0  0  0  0  0  0  0  0  0
  -13.9247   21.0946    9.8127 N   0  0  0  0  0  0  0  0  0  0  0  0
  -13.2966   22.1103   10.4285 C   0  0  0  0  0  0  0  0  0  0  0  0
  -12.5415   22.9648    9.7211 N   0  0  0  0  0  0  0  0  0  0  0  0
  -14.4384   19.8221    7.7567 N   0  0  0  0  0  0  0  0  0  0  0  0
  -11.6639   23.6330    7.6490 O   0  0  0  0  0  0  0  0  0  0  0  0
  1  2  1  0  0  0  0
  1  6  1  0  0  0  0
  1  8  2  0  0  0  0
  2  3  1  0  0  0  0
  3  4  2  0  0  0  0
  3  7  1  0  0  0  0
  4  5  1  0  0  0  0
  5  6  2  0  0  0  0
M  END
>  <CHROM.1>
-13.10639390,21.91987850,8.71224472,-0.16881956,-0.92776680,-1.83139452

>  <Name>
ligand

>  <RI>
0

>  <Rbt.Current_Directory>
/home/itssahil/PROJECTS/Mol_Feturizer/Test_systems_manuscript/rnas/3la5

>  <Rbt.Executable>
rbdock ($Id: //depot/dev/client3/rdock/2013.1/src/exe/rbdock.cxx#4 $)

>  <Rbt.Library>
libRbt.so (2013.1, Build901 2013/11/27)

>  <Rbt.Parameter_File>
/export/apps/rDock/src/rDock_2013.1_src/data/scripts/dock_solv.prm

>  <Rbt.Receptor>
prm/blind_docking_80.prm

>  <SCORE>
-6.60311

>  <SCORE.INTER>
-6.60311

>  <SCORE.INTER.CONST>
1

>  <SCORE.INTER.POLAR>
0

>  <SCORE.INTER.ROT>
0

>  <SCORE.INTER.SOLV>
8.50792

>  <SCORE.INTER.VDW>
-10.838

>  <SCORE.INTER.norm>
-0.825388

>  <SCORE.INTRA>
0

>  <SCORE.INTRA.DIHEDRAL>
0

>  <SCORE.INTRA.DIHEDRAL.0>
0

>  <SCORE.INTRA.POLAR>
0

>  <SCORE.INTRA.POLAR.0>
0

>  <SCORE.INTRA.REPUL>
0

>  <SCORE.INTRA.REPUL.0>
0

>  <SCORE.INTRA.SOLV>
0

>  <SCORE.INTRA.SOLV.lig_0>
-29.58

>  <SCORE.INTRA.VDW>
0

>  <SCORE.INTRA.VDW.0>
0

>  <SCORE.INTRA.norm>
0

>  <SCORE.RESTR>
0

>  <SCORE.RESTR.CAVITY>
0

>  <SCORE.RESTR.norm>
0

>  <SCORE.SYSTEM>
0

>  <SCORE.SYSTEM.CONST>
0

>  <SCORE.SYSTEM.DIHEDRAL>
0

>  <SCORE.SYSTEM.SOLV>
0

>  <SCORE.SYSTEM.norm>
0

>  <SCORE.heavy>
8

>  <SCORE.norm>
-0.825388

>  <RMSD>
26.973

$$$$
ligand
 OpenBabel02271912143D
libRbt.so/2013.1/901 2013/11/27
  8  8  0  0  0  0  0  0  0  0999 V2000
  -12.8922   22.4357    9.9252 C   0  0  0  0  0  0  0  0  0  0  0  0
  -13.5615   21.3856    9.4501 N   0  0  0  0  0  0  0  0  0  0  0  0
  -13.5671   21.1444    8.1364 C   0  0  0  0  0  0  0  0  0  0  0  0
  -12.8841   21.9526    7.2924 N   0  0  0  0  0  0  0  0  0  0  0  0
  -12.2182   23.0115    7.7830 C   0  0  0  0  0  0  0  0  0  0  0  0
  -12.2159   23.2548    9.1027 N   0  0  0  0  0  0  0  0  0  0  0  0
  -14.3221   19.9729    7.6441 N   0  0  0  0  0  0  0  0  0  0  0  0
  -12.9088   22.6468   11.2615 O   0  0  0  0  0  0  0  0  0  0  0  0
  1  2  1  0  0  0  0
  1  6  1  0  0  0  0
  1  8  2  0  0  0  0
  2  3  1  0  0  0  0
  3  4  2  0  0  0  0
  3  7  1  0  0  0  0
  4  5  1  0  0  0  0
  5  6  2  0  0  0  0
M  END
>  <CHROM.1>
-13.07815644,21.97562593,8.88097644,1.04651179,0.95339187,1.39085092

>  <Name>
ligand

>  <RI>
0

>  <Rbt.Current_Directory>
/home/itssahil/PROJECTS/Mol_Feturizer/Test_systems_manuscript/rnas/3la5

>  <Rbt.Executable>
rbdock ($Id: //depot/dev/client3/rdock/2013.1/src/exe/rbdock.cxx#4 $)

>  <Rbt.Library>
libRbt.so (2013.1, Build901 2013/11/27)

>  <Rbt.Parameter_File>
/export/apps/rDock/src/rDock_2013.1_src/data/scripts/dock_solv.prm

>  <Rbt.Receptor>
prm/blind_docking_100.prm

>  <SCORE>
-7.64446

>  <SCORE.INTER>
-7.64446

>  <SCORE.INTER.CONST>
1

>  <SCORE.INTER.POLAR>
0

>  <SCORE.INTER.ROT>
0

>  <SCORE.INTER.SOLV>
8.83538

>  <SCORE.INTER.VDW>
-11.6414

>  <SCORE.INTER.norm>
-0.955558

>  <SCORE.INTRA>
0

>  <SCORE.INTRA.DIHEDRAL>
0

>  <SCORE.INTRA.DIHEDRAL.0>
0

>  <SCORE.INTRA.POLAR>
0

>  <SCORE.INTRA.POLAR.0>
0

>  <SCORE.INTRA.REPUL>
0

>  <SCORE.INTRA.REPUL.0>
0

>  <SCORE.INTRA.SOLV>
0

>  <SCORE.INTRA.SOLV.lig_0>
-29.58

>  <SCORE.INTRA.VDW>
0

>  <SCORE.INTRA.VDW.0>
0

>  <SCORE.INTRA.norm>
0

>  <SCORE.RESTR>
0

>  <SCORE.RESTR.CAVITY>
0

>  <SCORE.RESTR.norm>
0

>  <SCORE.SYSTEM>
0

>  <SCORE.SYSTEM.CONST>
0

>  <SCORE.SYSTEM.DIHEDRAL>
0

>  <SCORE.SYSTEM.SOLV>
0

>  <SCORE.SYSTEM.norm>
0

>  <SCORE.heavy>
8

>  <SCORE.norm>
-0.955558

>  <RMSD>
26.982

$$$$
ligand
 OpenBabel02271912143D
libRbt.so/2013.1/901 2013/11/27
  8  8  0  0  0  0  0  0  0  0999 V2000
  -12.8759   22.4194    9.9960 C   0  0  0  0  0  0  0  0  0  0  0  0
  -13.5581   21.4181    9.4407 N   0  0  0  0  0  0  0  0  0  0  0  0
  -13.5267   21.2512    8.1159 C   0  0  0  0  0  0  0  0  0  0  0  0
  -12.7935   22.0847    7.3415 N   0  0  0  0  0  0  0  0  0  0  0  0
  -12.1149   23.0940    7.9125 C   0  0  0  0  0  0  0  0  0  0  0  0
  -12.1498   23.2627    9.2434 N   0  0  0  0  0  0  0  0  0  0  0  0
  -14.2974   20.1324    7.5339 N   0  0  0  0  0  0  0  0  0  0  0  0
  -12.9311   22.5556   11.3409 O   0  0  0  0  0  0  0  0  0  0  0  0
  1  2  1  0  0  0  0
  1  6  1  0  0  0  0
  1  8  2  0  0  0  0
  2  3  1  0  0  0  0
  3  4  2  0  0  0  0
  3  7  1  0  0  0  0
  4  5  1  0  0  0  0
  5  6  2  0  0  0  0
M  END
>  <CHROM.1>
-13.03971059,22.02440618,8.92183535,1.09237787,0.91927282,1.41052990

>  <Name>
ligand

>  <RI>
0

>  <Rbt.Current_Directory>
/home/itssahil/PROJECTS/Mol_Feturizer/Test_systems_manuscript/rnas/3la5

>  <Rbt.Executable>
rbdock ($Id: //depot/dev/client3/rdock/2013.1/src/exe/rbdock.cxx#4 $)

>  <Rbt.Library>
libRbt.so (2013.1, Build901 2013/11/27)

>  <Rbt.Parameter_File>
/export/apps/rDock/src/rDock_2013.1_src/data/scripts/dock_solv.prm

>  <Rbt.Receptor>
prm/blind_docking_100.prm

>  <SCORE>
-7.70059

>  <SCORE.INTER>
-7.70059

>  <SCORE.INTER.CONST>
1

>  <SCORE.INTER.POLAR>
0

>  <SCORE.INTER.ROT>
0

>  <SCORE.INTER.SOLV>
9.20899

>  <SCORE.INTER.VDW>
-11.8034

>  <SCORE.INTER.norm>
-0.962574

>  <SCORE.INTRA>
0

>  <SCORE.INTRA.DIHEDRAL>
0

>  <SCORE.INTRA.DIHEDRAL.0>
0

>  <SCORE.INTRA.POLAR>
0

>  <SCORE.INTRA.POLAR.0>
0

>  <SCORE.INTRA.REPUL>
0

>  <SCORE.INTRA.REPUL.0>
0

>  <SCORE.INTRA.SOLV>
0

>  <SCORE.INTRA.SOLV.lig_0>
-29.58

>  <SCORE.INTRA.VDW>
0

>  <SCORE.INTRA.VDW.0>
0

>  <SCORE.INTRA.norm>
0

>  <SCORE.RESTR>
0

>  <SCORE.RESTR.CAVITY>
0

>  <SCORE.RESTR.norm>
0

>  <SCORE.SYSTEM>
0

>  <SCORE.SYSTEM.CONST>
0

>  <SCORE.SYSTEM.DIHEDRAL>
0

>  <SCORE.SYSTEM.SOLV>
0

>  <SCORE.SYSTEM.norm>
0

>  <SCORE.heavy>
8

>  <SCORE.norm>
-0.962574

>  <RMSD>
26.985

$$$$
ligand
 OpenBabel02271912143D
libRbt.so/2013.1/901 2013/11/27
  8  8  0  0  0  0  0  0  0  0999 V2000
  -12.8811   22.4287    9.9945 C   0  0  0  0  0  0  0  0  0  0  0  0
  -13.5560   21.4226    9.4389 N   0  0  0  0  0  0  0  0  0  0  0  0
  -13.5223   21.2556    8.1142 C   0  0  0  0  0  0  0  0  0  0  0  0
  -12.7942   22.0938    7.3401 N   0  0  0  0  0  0  0  0  0  0  0  0
  -12.1230   23.1080    7.9115 C   0  0  0  0  0  0  0  0  0  0  0  0
  -12.1602   23.2768    9.2423 N   0  0  0  0  0  0  0  0  0  0  0  0
  -14.2848   20.1313    7.5318 N   0  0  0  0  0  0  0  0  0  0  0  0
  -12.9385   22.5649   11.3393 O   0  0  0  0  0  0  0  0  0  0  0  0
  1  2  1  0  0  0  0
  1  6  1  0  0  0  0
  1  8  2  0  0  0  0
  2  3  1  0  0  0  0
  3  4  2  0  0  0  0
  3  7  1  0  0  0  0
  4  5  1  0  0  0  0
  5  6  2  0  0  0  0
M  END
>  <CHROM.1>
-13.04131901,22.03231147,8.92027984,1.09561677,0.92589631,1.40766672

>  <Name>
ligand

>  <RI>
0

>  <Rbt.Current_Directory>
/home/itssahil/PROJECTS/Mol_Feturizer/Test_systems_manuscript/rnas/3la5

>  <Rbt.Executable>
rbdock ($Id: //depot/dev/client3/rdock/2013.1/src/exe/rbdock.cxx#4 $)

>  <Rbt.Library>
libRbt.so (2013.1, Build901 2013/11/27)

>  <Rbt.Parameter_File>
/export/apps/rDock/src/rDock_2013.1_src/data/scripts/dock_solv.prm

>  <Rbt.Receptor>
prm/blind_docking_40.prm

>  <SCORE>
-7.69947

>  <SCORE.INTER>
-7.69947

>  <SCORE.INTER.CONST>
1

>  <SCORE.INTER.POLAR>
0

>  <SCORE.INTER.ROT>
0

>  <SCORE.INTER.SOLV>
9.20322

>  <SCORE.INTER.VDW>
-11.8007

>  <SCORE.INTER.norm>
-0.962434

>  <SCORE.INTRA>
0

>  <SCORE.INTRA.DIHEDRAL>
0

>  <SCORE.INTRA.DIHEDRAL.0>
0

>  <SCORE.INTRA.POLAR>
0

>  <SCORE.INTRA.POLAR.0>
0

>  <SCORE.INTRA.REPUL>
0

>  <SCORE.INTRA.REPUL.0>
0

>  <SCORE.INTRA.SOLV>
0

>  <SCORE.INTRA.SOLV.lig_0>
-29.58

>  <SCORE.INTRA.VDW>
0

>  <SCORE.INTRA.VDW.0>
0

>  <SCORE.INTRA.norm>
0

>  <SCORE.RESTR>
0

>  <SCORE.RESTR.CAVITY>
0

>  <SCORE.RESTR.norm>
0

>  <SCORE.SYSTEM>
0

>  <SCORE.SYSTEM.CONST>
0

>  <SCORE.SYSTEM.DIHEDRAL>
0

>  <SCORE.SYSTEM.SOLV>
0

>  <SCORE.SYSTEM.norm>
0

>  <SCORE.heavy>
8

>  <SCORE.norm>
-0.962434

>  <RMSD>
26.989

$$$$
ligand
 OpenBabel02271912143D
libRbt.so/2013.1/901 2013/11/27
  8  8  0  0  0  0  0  0  0  0999 V2000
  -12.9010   22.3963    9.9840 C   0  0  0  0  0  0  0  0  0  0  0  0
  -13.5813   21.3621    9.4900 N   0  0  0  0  0  0  0  0  0  0  0  0
  -13.5817   21.1393    8.1731 C   0  0  0  0  0  0  0  0  0  0  0  0
  -12.8824   21.9497    7.3448 N   0  0  0  0  0  0  0  0  0  0  0  0
  -12.2054   22.9925    7.8543 C   0  0  0  0  0  0  0  0  0  0  0  0
  -12.2083   23.2174    9.1773 N   0  0  0  0  0  0  0  0  0  0  0  0
  -14.3494   19.9852    7.6597 N   0  0  0  0  0  0  0  0  0  0  0  0
  -12.9234   22.5890   11.3229 O   0  0  0  0  0  0  0  0  0  0  0  0
  1  2  1  0  0  0  0
  1  6  1  0  0  0  0
  1  8  2  0  0  0  0
  2  3  1  0  0  0  0
  3  4  2  0  0  0  0
  3  7  1  0  0  0  0
  4  5  1  0  0  0  0
  5  6  2  0  0  0  0
M  END
>  <CHROM.1>
-13.08639328,21.95331727,8.93227730,1.05318756,0.93887258,1.39936611

>  <Name>
ligand

>  <RI>
0

>  <Rbt.Current_Directory>
/home/itssahil/PROJECTS/Mol_Feturizer/Test_systems_manuscript/rnas/3la5

>  <Rbt.Executable>
rbdock ($Id: //depot/dev/client3/rdock/2013.1/src/exe/rbdock.cxx#4 $)

>  <Rbt.Library>
libRbt.so (2013.1, Build901 2013/11/27)

>  <Rbt.Parameter_File>
/export/apps/rDock/src/rDock_2013.1_src/data/scripts/dock_solv.prm

>  <Rbt.Receptor>
prm/blind_docking_80.prm

>  <SCORE>
-7.68717

>  <SCORE.INTER>
-7.68717

>  <SCORE.INTER.CONST>
1

>  <SCORE.INTER.POLAR>
0

>  <SCORE.INTER.ROT>
0

>  <SCORE.INTER.SOLV>
8.86621

>  <SCORE.INTER.VDW>
-11.6802

>  <SCORE.INTER.norm>
-0.960896

>  <SCORE.INTRA>
0

>  <SCORE.INTRA.DIHEDRAL>
0

>  <SCORE.INTRA.DIHEDRAL.0>
0

>  <SCORE.INTRA.POLAR>
0

>  <SCORE.INTRA.POLAR.0>
0

>  <SCORE.INTRA.REPUL>
0

>  <SCORE.INTRA.REPUL.0>
0

>  <SCORE.INTRA.SOLV>
0

>  <SCORE.INTRA.SOLV.lig_0>
-29.58

>  <SCORE.INTRA.VDW>
0

>  <SCORE.INTRA.VDW.0>
0

>  <SCORE.INTRA.norm>
0

>  <SCORE.RESTR>
0

>  <SCORE.RESTR.CAVITY>
0

>  <SCORE.RESTR.norm>
0

>  <SCORE.SYSTEM>
0

>  <SCORE.SYSTEM.CONST>
0

>  <SCORE.SYSTEM.DIHEDRAL>
0

>  <SCORE.SYSTEM.SOLV>
0

>  <SCORE.SYSTEM.norm>
0

>  <SCORE.heavy>
8

>  <SCORE.norm>
-0.960896

>  <RMSD>
26.998

$$$$
ligand
 OpenBabel02271912143D
libRbt.so/2013.1/901 2013/11/27
  8  8  0  0  0  0  0  0  0  0999 V2000
  -12.9024   22.3994    9.9821 C   0  0  0  0  0  0  0  0  0  0  0  0
  -13.5801   21.3648    9.4854 N   0  0  0  0  0  0  0  0  0  0  0  0
  -13.5790   21.1447    8.1680 C   0  0  0  0  0  0  0  0  0  0  0  0
  -12.8808   21.9584    7.3420 N   0  0  0  0  0  0  0  0  0  0  0  0
  -12.2065   23.0017    7.8542 C   0  0  0  0  0  0  0  0  0  0  0  0
  -12.2109   23.2238    9.1777 N   0  0  0  0  0  0  0  0  0  0  0  0
  -14.3436   19.9900    7.6517 N   0  0  0  0  0  0  0  0  0  0  0  0
  -12.9262   22.5893   11.3214 O   0  0  0  0  0  0  0  0  0  0  0  0
  1  2  1  0  0  0  0
  1  6  1  0  0  0  0
  1  8  2  0  0  0  0
  2  3  1  0  0  0  0
  3  4  2  0  0  0  0
  3  7  1  0  0  0  0
  4  5  1  0  0  0  0
  5  6  2  0  0  0  0
M  END
>  <CHROM.1>
-13.08599776,21.95829772,8.92932006,1.05511493,0.94092441,1.39991847

>  <Name>
ligand

>  <RI>
0

>  <Rbt.Current_Directory>
/home/itssahil/PROJECTS/Mol_Feturizer/Test_systems_manuscript/rnas/3la5

>  <Rbt.Executable>
rbdock ($Id: //depot/dev/client3/rdock/2013.1/src/exe/rbdock.cxx#4 $)

>  <Rbt.Library>
libRbt.so (2013.1, Build901 2013/11/27)

>  <Rbt.Parameter_File>
/export/apps/rDock/src/rDock_2013.1_src/data/scripts/dock_solv.prm

>  <Rbt.Receptor>
prm/blind_docking_100.prm

>  <SCORE>
-7.6622

>  <SCORE.INTER>
-7.6622

>  <SCORE.INTER.CONST>
1

>  <SCORE.INTER.POLAR>
0

>  <SCORE.INTER.ROT>
0

>  <SCORE.INTER.SOLV>
8.87987

>  <SCORE.INTER.VDW>
-11.6681

>  <SCORE.INTER.norm>
-0.957775

>  <SCORE.INTRA>
0

>  <SCORE.INTRA.DIHEDRAL>
0

>  <SCORE.INTRA.DIHEDRAL.0>
0

>  <SCORE.INTRA.POLAR>
0

>  <SCORE.INTRA.POLAR.0>
0

>  <SCORE.INTRA.REPUL>
0

>  <SCORE.INTRA.REPUL.0>
0

>  <SCORE.INTRA.SOLV>
0

>  <SCORE.INTRA.SOLV.lig_0>
-29.58

>  <SCORE.INTRA.VDW>
0

>  <SCORE.INTRA.VDW.0>
0

>  <SCORE.INTRA.norm>
0

>  <SCORE.RESTR>
0

>  <SCORE.RESTR.CAVITY>
0

>  <SCORE.RESTR.norm>
0

>  <SCORE.SYSTEM>
0

>  <SCORE.SYSTEM.CONST>
0

>  <SCORE.SYSTEM.DIHEDRAL>
0

>  <SCORE.SYSTEM.SOLV>
0

>  <SCORE.SYSTEM.norm>
0

>  <SCORE.heavy>
8

>  <SCORE.norm>
-0.957775

>  <RMSD>
26.999

$$$$
ligand
 OpenBabel02271912143D
libRbt.so/2013.1/901 2013/11/27
  8  8  0  0  0  0  0  0  0  0999 V2000
  -12.9016   22.3911    9.9880 C   0  0  0  0  0  0  0  0  0  0  0  0
  -13.5846   21.3590    9.4934 N   0  0  0  0  0  0  0  0  0  0  0  0
  -13.5862   21.1375    8.1762 C   0  0  0  0  0  0  0  0  0  0  0  0
  -12.8854   21.9472    7.3483 N   0  0  0  0  0  0  0  0  0  0  0  0
  -12.2057   22.9879    7.8585 C   0  0  0  0  0  0  0  0  0  0  0  0
  -12.2075   23.2115    9.1818 N   0  0  0  0  0  0  0  0  0  0  0  0
  -14.3567   19.9857    7.6621 N   0  0  0  0  0  0  0  0  0  0  0  0
  -12.9228   22.5826   11.3272 O   0  0  0  0  0  0  0  0  0  0  0  0
  1  2  1  0  0  0  0
  1  6  1  0  0  0  0
  1  8  2  0  0  0  0
  2  3  1  0  0  0  0
  3  4  2  0  0  0  0
  3  7  1  0  0  0  0
  4  5  1  0  0  0  0
  5  6  2  0  0  0  0
M  END
>  <CHROM.1>
-13.08855499,21.94967907,8.93594600,1.05165071,0.93670229,1.40161947

>  <Name>
ligand

>  <RI>
0

>  <Rbt.Current_Directory>
/home/itssahil/PROJECTS/Mol_Feturizer/Test_systems_manuscript/rnas/3la5

>  <Rbt.Executable>
rbdock ($Id: //depot/dev/client3/rdock/2013.1/src/exe/rbdock.cxx#4 $)

>  <Rbt.Library>
libRbt.so (2013.1, Build901 2013/11/27)

>  <Rbt.Parameter_File>
/export/apps/rDock/src/rDock_2013.1_src/data/scripts/dock_solv.prm

>  <Rbt.Receptor>
prm/blind_docking_100.prm

>  <SCORE>
-7.68793

>  <SCORE.INTER>
-7.68793

>  <SCORE.INTER.CONST>
1

>  <SCORE.INTER.POLAR>
0

>  <SCORE.INTER.ROT>
0

>  <SCORE.INTER.SOLV>
8.87174

>  <SCORE.INTER.VDW>
-11.6825

>  <SCORE.INTER.norm>
-0.960991

>  <SCORE.INTRA>
0

>  <SCORE.INTRA.DIHEDRAL>
0

>  <SCORE.INTRA.DIHEDRAL.0>
0

>  <SCORE.INTRA.POLAR>
0

>  <SCORE.INTRA.POLAR.0>
0

>  <SCORE.INTRA.REPUL>
0

>  <SCORE.INTRA.REPUL.0>
0

>  <SCORE.INTRA.SOLV>
0

>  <SCORE.INTRA.SOLV.lig_0>
-29.58

>  <SCORE.INTRA.VDW>
0

>  <SCORE.INTRA.VDW.0>
0

>  <SCORE.INTRA.norm>
0

>  <SCORE.RESTR>
0

>  <SCORE.RESTR.CAVITY>
0

>  <SCORE.RESTR.norm>
0

>  <SCORE.SYSTEM>
0

>  <SCORE.SYSTEM.CONST>
0

>  <SCORE.SYSTEM.DIHEDRAL>
0

>  <SCORE.SYSTEM.SOLV>
0

>  <SCORE.SYSTEM.norm>
0

>  <SCORE.heavy>
8

>  <SCORE.norm>
-0.960991

>  <RMSD>
27.000

$$$$
ligand
 OpenBabel02271912143D
libRbt.so/2013.1/901 2013/11/27
  8  8  0  0  0  0  0  0  0  0999 V2000
  -12.8879   22.4152    9.9892 C   0  0  0  0  0  0  0  0  0  0  0  0
  -13.5801   21.4199    9.4353 N   0  0  0  0  0  0  0  0  0  0  0  0
  -13.5550   21.2545    8.1102 C   0  0  0  0  0  0  0  0  0  0  0  0
  -12.8182   22.0831    7.3339 N   0  0  0  0  0  0  0  0  0  0  0  0
  -12.1296   23.0864    7.9036 C   0  0  0  0  0  0  0  0  0  0  0  0
  -12.1581   23.2537    9.2349 N   0  0  0  0  0  0  0  0  0  0  0  0
  -14.3367   20.1424    7.5297 N   0  0  0  0  0  0  0  0  0  0  0  0
  -12.9370   22.5502   11.3344 O   0  0  0  0  0  0  0  0  0  0  0  0
  1  2  1  0  0  0  0
  1  6  1  0  0  0  0
  1  8  2  0  0  0  0
  2  3  1  0  0  0  0
  3  4  2  0  0  0  0
  3  7  1  0  0  0  0
  4  5  1  0  0  0  0
  5  6  2  0  0  0  0
M  END
>  <CHROM.1>
-13.05890836,22.02280985,8.91514675,1.08421425,0.91212838,1.41822357

>  <Name>
ligand

>  <RI>
0

>  <Rbt.Current_Directory>
/home/itssahil/PROJECTS/Mol_Feturizer/Test_systems_manuscript/rnas/3la5

>  <Rbt.Executable>
rbdock ($Id: //depot/dev/client3/rdock/2013.1/src/exe/rbdock.cxx#4 $)

>  <Rbt.Library>
libRbt.so (2013.1, Build901 2013/11/27)

>  <Rbt.Parameter_File>
/export/apps/rDock/src/rDock_2013.1_src/data/scripts/dock_solv.prm

>  <Rbt.Receptor>
prm/blind_docking_80.prm

>  <SCORE>
-7.69549

>  <SCORE.INTER>
-7.69549

>  <SCORE.INTER.CONST>
1

>  <SCORE.INTER.POLAR>
0

>  <SCORE.INTER.ROT>
0

>  <SCORE.INTER.SOLV>
9.30209

>  <SCORE.INTER.VDW>
-11.831

>  <SCORE.INTER.norm>
-0.961937

>  <SCORE.INTRA>
0

>  <SCORE.INTRA.DIHEDRAL>
0

>  <SCORE.INTRA.DIHEDRAL.0>
0

>  <SCORE.INTRA.POLAR>
0

>  <SCORE.INTRA.POLAR.0>
0

>  <SCORE.INTRA.REPUL>
0

>  <SCORE.INTRA.REPUL.0>
0

>  <SCORE.INTRA.SOLV>
0

>  <SCORE.INTRA.SOLV.lig_0>
-29.58

>  <SCORE.INTRA.VDW>
0

>  <SCORE.INTRA.VDW.0>
0

>  <SCORE.INTRA.norm>
0

>  <SCORE.RESTR>
0

>  <SCORE.RESTR.CAVITY>
0

>  <SCORE.RESTR.norm>
0

>  <SCORE.SYSTEM>
0

>  <SCORE.SYSTEM.CONST>
0

>  <SCORE.SYSTEM.DIHEDRAL>
0

>  <SCORE.SYSTEM.SOLV>
0

>  <SCORE.SYSTEM.norm>
0

>  <SCORE.heavy>
8

>  <SCORE.norm>
-0.961937

>  <RMSD>
27.000

$$$$
ligand
 OpenBabel02271912143D
libRbt.so/2013.1/901 2013/11/27
  8  8  0  0  0  0  0  0  0  0999 V2000
  -12.8693   22.4301    9.9922 C   0  0  0  0  0  0  0  0  0  0  0  0
  -13.5732   21.4181    9.4854 N   0  0  0  0  0  0  0  0  0  0  0  0
  -13.5818   21.2142    8.1655 C   0  0  0  0  0  0  0  0  0  0  0  0
  -12.8670   22.0209    7.3468 N   0  0  0  0  0  0  0  0  0  0  0  0
  -12.1661   23.0414    7.8692 C   0  0  0  0  0  0  0  0  0  0  0  0
  -12.1609   23.2474    9.1953 N   0  0  0  0  0  0  0  0  0  0  0  0
  -14.3756   20.0846    7.6379 N   0  0  0  0  0  0  0  0  0  0  0  0
  -12.8842   22.6041   11.3338 O   0  0  0  0  0  0  0  0  0  0  0  0
  1  2  1  0  0  0  0
  1  6  1  0  0  0  0
  1  8  2  0  0  0  0
  2  3  1  0  0  0  0
  3  4  2  0  0  0  0
  3  7  1  0  0  0  0
  4  5  1  0  0  0  0
  5  6  2  0  0  0  0
M  END
>  <CHROM.1>
-13.06690292,22.00635347,8.93475851,1.04305655,0.91776871,1.42173486

>  <Name>
ligand

>  <RI>
0

>  <Rbt.Current_Directory>
/home/itssahil/PROJECTS/Mol_Feturizer/Test_systems_manuscript/rnas/3la5

>  <Rbt.Executable>
rbdock ($Id: //depot/dev/client3/rdock/2013.1/src/exe/rbdock.cxx#4 $)

>  <Rbt.Library>
libRbt.so (2013.1, Build901 2013/11/27)

>  <Rbt.Parameter_File>
/export/apps/rDock/src/rDock_2013.1_src/data/scripts/dock_solv.prm

>  <Rbt.Receptor>
prm/blind_docking_80.prm

>  <SCORE>
-7.63505

>  <SCORE.INTER>
-7.63505

>  <SCORE.INTER.CONST>
1

>  <SCORE.INTER.POLAR>
0

>  <SCORE.INTER.ROT>
0

>  <SCORE.INTER.SOLV>
9.08722

>  <SCORE.INTER.VDW>
-11.7191

>  <SCORE.INTER.norm>
-0.954381

>  <SCORE.INTRA>
0

>  <SCORE.INTRA.DIHEDRAL>
0

>  <SCORE.INTRA.DIHEDRAL.0>
0

>  <SCORE.INTRA.POLAR>
0

>  <SCORE.INTRA.POLAR.0>
0

>  <SCORE.INTRA.REPUL>
0

>  <SCORE.INTRA.REPUL.0>
0

>  <SCORE.INTRA.SOLV>
0

>  <SCORE.INTRA.SOLV.lig_0>
-29.58

>  <SCORE.INTRA.VDW>
0

>  <SCORE.INTRA.VDW.0>
0

>  <SCORE.INTRA.norm>
0

>  <SCORE.RESTR>
0

>  <SCORE.RESTR.CAVITY>
0

>  <SCORE.RESTR.norm>
0

>  <SCORE.SYSTEM>
0

>  <SCORE.SYSTEM.CONST>
0

>  <SCORE.SYSTEM.DIHEDRAL>
0

>  <SCORE.SYSTEM.SOLV>
0

>  <SCORE.SYSTEM.norm>
0

>  <SCORE.heavy>
8

>  <SCORE.norm>
-0.954381

>  <RMSD>
27.003

$$$$
ligand
 OpenBabel02271912143D
libRbt.so/2013.1/901 2013/11/27
  8  8  0  0  0  0  0  0  0  0999 V2000
  -13.6556   20.7100    8.9738 C   0  0  0  0  0  0  0  0  0  0  0  0
  -13.3520   19.5527    8.3866 N   0  0  0  0  0  0  0  0  0  0  0  0
  -14.1676   19.0493    7.4563 C   0  0  0  0  0  0  0  0  0  0  0  0
  -15.2890   19.7179    7.0995 N   0  0  0  0  0  0  0  0  0  0  0  0
  -15.5872   20.8807    7.7030 C   0  0  0  0  0  0  0  0  0  0  0  0
  -14.7688   21.3840    8.6400 N   0  0  0  0  0  0  0  0  0  0  0  0
  -13.8014   17.7625    6.8281 N   0  0  0  0  0  0  0  0  0  0  0  0
  -12.8047   21.1886    9.9105 O   0  0  0  0  0  0  0  0  0  0  0  0
  1  2  1  0  0  0  0
  1  6  1  0  0  0  0
  1  8  2  0  0  0  0
  2  3  1  0  0  0  0
  3  4  2  0  0  0  0
  3  7  1  0  0  0  0
  4  5  1  0  0  0  0
  5  6  2  0  0  0  0
M  END
>  <CHROM.1>
-14.13680355,20.04195171,8.16212900,-1.30476218,0.53410466,-2.53614750

>  <Name>
ligand

>  <RI>
0

>  <Rbt.Current_Directory>
/home/itssahil/PROJECTS/Mol_Feturizer/Test_systems_manuscript/rnas/3la5

>  <Rbt.Executable>
rbdock ($Id: //depot/dev/client3/rdock/2013.1/src/exe/rbdock.cxx#4 $)

>  <Rbt.Library>
libRbt.so (2013.1, Build901 2013/11/27)

>  <Rbt.Parameter_File>
/export/apps/rDock/src/rDock_2013.1_src/data/scripts/dock_solv.prm

>  <Rbt.Receptor>
prm/blind_docking_40.prm

>  <SCORE>
-3.69274

>  <SCORE.INTER>
-3.69274

>  <SCORE.INTER.CONST>
1

>  <SCORE.INTER.POLAR>
0

>  <SCORE.INTER.ROT>
0

>  <SCORE.INTER.SOLV>
4.23698

>  <SCORE.INTER.VDW>
-7.47416

>  <SCORE.INTER.norm>
-0.461593

>  <SCORE.INTRA>
0

>  <SCORE.INTRA.DIHEDRAL>
0

>  <SCORE.INTRA.DIHEDRAL.0>
0

>  <SCORE.INTRA.POLAR>
0

>  <SCORE.INTRA.POLAR.0>
0

>  <SCORE.INTRA.REPUL>
0

>  <SCORE.INTRA.REPUL.0>
0

>  <SCORE.INTRA.SOLV>
0

>  <SCORE.INTRA.SOLV.lig_0>
-29.58

>  <SCORE.INTRA.VDW>
0

>  <SCORE.INTRA.VDW.0>
0

>  <SCORE.INTRA.norm>
0

>  <SCORE.RESTR>
0

>  <SCORE.RESTR.CAVITY>
0

>  <SCORE.RESTR.norm>
0

>  <SCORE.SYSTEM>
0

>  <SCORE.SYSTEM.CONST>
0

>  <SCORE.SYSTEM.DIHEDRAL>
0

>  <SCORE.SYSTEM.SOLV>
0

>  <SCORE.SYSTEM.norm>
0

>  <SCORE.heavy>
8

>  <SCORE.norm>
-0.461593

>  <RMSD>
27.113

$$$$
ligand
 OpenBabel02271912143D
libRbt.so/2013.1/901 2013/11/27
  8  8  0  0  0  0  0  0  0  0999 V2000
  -21.2818   26.6977   15.6972 C   0  0  0  0  0  0  0  0  0  0  0  0
  -21.8400   25.6427   15.1041 N   0  0  0  0  0  0  0  0  0  0  0  0
  -22.2078   25.7224   13.8226 C   0  0  0  0  0  0  0  0  0  0  0  0
  -22.0010   26.8631   13.1241 N   0  0  0  0  0  0  0  0  0  0  0  0
  -21.4429   27.9218   13.7349 C   0  0  0  0  0  0  0  0  0  0  0  0
  -21.0767   27.8418   15.0235 N   0  0  0  0  0  0  0  0  0  0  0  0
  -22.8264   24.5342   13.1978 N   0  0  0  0  0  0  0  0  0  0  0  0
  -20.9215   26.5785   16.9958 O   0  0  0  0  0  0  0  0  0  0  0  0
  1  2  1  0  0  0  0
  1  6  1  0  0  0  0
  1  8  2  0  0  0  0
  2  3  1  0  0  0  0
  3  4  2  0  0  0  0
  3  7  1  0  0  0  0
  4  5  1  0  0  0  0
  5  6  2  0  0  0  0
M  END
>  <CHROM.1>
-21.68849233,26.46026740,14.64130566,0.35723275,1.12909536,2.27600421

>  <Name>
ligand

>  <RI>
0

>  <Rbt.Current_Directory>
/home/itssahil/PROJECTS/Mol_Feturizer/Test_systems_manuscript/rnas/3la5

>  <Rbt.Executable>
rbdock ($Id: //depot/dev/client3/rdock/2013.1/src/exe/rbdock.cxx#4 $)

>  <Rbt.Library>
libRbt.so (2013.1, Build901 2013/11/27)

>  <Rbt.Parameter_File>
/export/apps/rDock/src/rDock_2013.1_src/data/scripts/dock_solv.prm

>  <Rbt.Receptor>
prm/blind_docking_100.prm

>  <SCORE>
-6.76658

>  <SCORE.INTER>
-6.76658

>  <SCORE.INTER.CONST>
1

>  <SCORE.INTER.POLAR>
0

>  <SCORE.INTER.ROT>
0

>  <SCORE.INTER.SOLV>
5.56681

>  <SCORE.INTER.VDW>
-9.96665

>  <SCORE.INTER.norm>
-0.845822

>  <SCORE.INTRA>
0

>  <SCORE.INTRA.DIHEDRAL>
0

>  <SCORE.INTRA.DIHEDRAL.0>
0

>  <SCORE.INTRA.POLAR>
0

>  <SCORE.INTRA.POLAR.0>
0

>  <SCORE.INTRA.REPUL>
0

>  <SCORE.INTRA.REPUL.0>
0

>  <SCORE.INTRA.SOLV>
0

>  <SCORE.INTRA.SOLV.lig_0>
-29.58

>  <SCORE.INTRA.VDW>
0

>  <SCORE.INTRA.VDW.0>
0

>  <SCORE.INTRA.norm>
0

>  <SCORE.RESTR>
0

>  <SCORE.RESTR.CAVITY>
0

>  <SCORE.RESTR.norm>
0

>  <SCORE.SYSTEM>
0

>  <SCORE.SYSTEM.CONST>
0

>  <SCORE.SYSTEM.DIHEDRAL>
0

>  <SCORE.SYSTEM.SOLV>
0

>  <SCORE.SYSTEM.norm>
0

>  <SCORE.heavy>
8

>  <SCORE.norm>
-0.845822

>  <RMSD>
38.025

$$$$
ligand
 OpenBabel02271912143D
libRbt.so/2013.1/901 2013/11/27
  8  8  0  0  0  0  0  0  0  0999 V2000
  -21.2860   26.6981   15.7142 C   0  0  0  0  0  0  0  0  0  0  0  0
  -21.9091   25.6394   15.1972 N   0  0  0  0  0  0  0  0  0  0  0  0
  -22.2893   25.6560   13.9169 C   0  0  0  0  0  0  0  0  0  0  0  0
  -22.0297   26.7356   13.1430 N   0  0  0  0  0  0  0  0  0  0  0  0
  -21.4061   27.7991   13.6774 C   0  0  0  0  0  0  0  0  0  0  0  0
  -21.0275   27.7827   14.9648 N   0  0  0  0  0  0  0  0  0  0  0  0
  -22.9806   24.4660   13.3776 N   0  0  0  0  0  0  0  0  0  0  0  0
  -20.9153   26.6437   17.0142 O   0  0  0  0  0  0  0  0  0  0  0  0
  1  2  1  0  0  0  0
  1  6  1  0  0  0  0
  1  8  2  0  0  0  0
  2  3  1  0  0  0  0
  3  4  2  0  0  0  0
  3  7  1  0  0  0  0
  4  5  1  0  0  0  0
  5  6  2  0  0  0  0
M  END
>  <CHROM.1>
-21.71930250,26.41548025,14.68020875,0.41068644,1.07791513,2.16284772

>  <Name>
ligand

>  <RI>
0

>  <Rbt.Current_Directory>
/home/itssahil/PROJECTS/Mol_Feturizer/Test_systems_manuscript/rnas/3la5

>  <Rbt.Executable>
rbdock ($Id: //depot/dev/client3/rdock/2013.1/src/exe/rbdock.cxx#4 $)

>  <Rbt.Library>
libRbt.so (2013.1, Build901 2013/11/27)

>  <Rbt.Parameter_File>
/export/apps/rDock/src/rDock_2013.1_src/data/scripts/dock_solv.prm

>  <Rbt.Receptor>
prm/blind_docking_100.prm

>  <SCORE>
-6.79259

>  <SCORE.INTER>
-6.79259

>  <SCORE.INTER.CONST>
1

>  <SCORE.INTER.POLAR>
0

>  <SCORE.INTER.ROT>
0

>  <SCORE.INTER.SOLV>
4.69725

>  <SCORE.INTER.VDW>
-9.69414

>  <SCORE.INTER.norm>
-0.849073

>  <SCORE.INTRA>
0

>  <SCORE.INTRA.DIHEDRAL>
0

>  <SCORE.INTRA.DIHEDRAL.0>
0

>  <SCORE.INTRA.POLAR>
0

>  <SCORE.INTRA.POLAR.0>
0

>  <SCORE.INTRA.REPUL>
0

>  <SCORE.INTRA.REPUL.0>
0

>  <SCORE.INTRA.SOLV>
0

>  <SCORE.INTRA.SOLV.lig_0>
-29.58

>  <SCORE.INTRA.VDW>
0

>  <SCORE.INTRA.VDW.0>
0

>  <SCORE.INTRA.norm>
0

>  <SCORE.RESTR>
0

>  <SCORE.RESTR.CAVITY>
0

>  <SCORE.RESTR.norm>
0

>  <SCORE.SYSTEM>
0

>  <SCORE.SYSTEM.CONST>
0

>  <SCORE.SYSTEM.DIHEDRAL>
0

>  <SCORE.SYSTEM.SOLV>
0

>  <SCORE.SYSTEM.norm>
0

>  <SCORE.heavy>
8

>  <SCORE.norm>
-0.849073

>  <RMSD>
38.043

$$$$
ligand
 OpenBabel02271912143D
libRbt.so/2013.1/901 2013/11/27
  8  8  0  0  0  0  0  0  0  0999 V2000
  -22.1492   25.9781   13.3611 C   0  0  0  0  0  0  0  0  0  0  0  0
  -22.9959   26.1501   14.3759 N   0  0  0  0  0  0  0  0  0  0  0  0
  -22.7928   27.1434   15.2454 C   0  0  0  0  0  0  0  0  0  0  0  0
  -21.7416   27.9815   15.0889 N   0  0  0  0  0  0  0  0  0  0  0  0
  -20.8917   27.7942   14.0652 C   0  0  0  0  0  0  0  0  0  0  0  0
  -21.0949   26.7938   13.1941 N   0  0  0  0  0  0  0  0  0  0  0  0
  -23.7498   27.3028   16.3605 N   0  0  0  0  0  0  0  0  0  0  0  0
  -22.3884   24.9620   12.5005 O   0  0  0  0  0  0  0  0  0  0  0  0
  1  2  1  0  0  0  0
  1  6  1  0  0  0  0
  1  8  2  0  0  0  0
  2  3  1  0  0  0  0
  3  4  2  0  0  0  0
  3  7  1  0  0  0  0
  4  5  1  0  0  0  0
  5  6  2  0  0  0  0
M  END
>  <CHROM.1>
-22.24410773,26.71843974,14.24402060,1.23298742,-0.59305090,-2.32177197

>  <Name>
ligand

>  <RI>
0

>  <Rbt.Current_Directory>
/home/itssahil/PROJECTS/Mol_Feturizer/Test_systems_manuscript/rnas/3la5

>  <Rbt.Executable>
rbdock ($Id: //depot/dev/client3/rdock/2013.1/src/exe/rbdock.cxx#4 $)

>  <Rbt.Library>
libRbt.so (2013.1, Build901 2013/11/27)

>  <Rbt.Parameter_File>
/export/apps/rDock/src/rDock_2013.1_src/data/scripts/dock_solv.prm

>  <Rbt.Receptor>
prm/blind_docking_100.prm

>  <SCORE>
-6.66757

>  <SCORE.INTER>
-6.66757

>  <SCORE.INTER.CONST>
1

>  <SCORE.INTER.POLAR>
0

>  <SCORE.INTER.ROT>
0

>  <SCORE.INTER.SOLV>
1.57647

>  <SCORE.INTER.VDW>
-8.57053

>  <SCORE.INTER.norm>
-0.833446

>  <SCORE.INTRA>
0

>  <SCORE.INTRA.DIHEDRAL>
0

>  <SCORE.INTRA.DIHEDRAL.0>
0

>  <SCORE.INTRA.POLAR>
0

>  <SCORE.INTRA.POLAR.0>
0

>  <SCORE.INTRA.REPUL>
0

>  <SCORE.INTRA.REPUL.0>
0

>  <SCORE.INTRA.SOLV>
0

>  <SCORE.INTRA.SOLV.lig_0>
-29.58

>  <SCORE.INTRA.VDW>
0

>  <SCORE.INTRA.VDW.0>
0

>  <SCORE.INTRA.norm>
0

>  <SCORE.RESTR>
0

>  <SCORE.RESTR.CAVITY>
0

>  <SCORE.RESTR.norm>
0

>  <SCORE.SYSTEM>
0

>  <SCORE.SYSTEM.CONST>
0

>  <SCORE.SYSTEM.DIHEDRAL>
0

>  <SCORE.SYSTEM.SOLV>
0

>  <SCORE.SYSTEM.norm>
0

>  <SCORE.heavy>
8

>  <SCORE.norm>
-0.833446

>  <RMSD>
38.487

$$$$
