@<TRIPOS>MOLECULE
3la5_rdock.pdb
 1503 1678 0 0 0
SMALL
GASTEIGER

@<TRIPOS>ATOM
      1  P         27.4470   -2.0970    2.1090 P.3    13  G13         0.1280
      2  C5'       26.9110   -2.5730    4.6360 C.3    13  G13         0.1795
      3  O5'       27.3330   -1.6450    3.6400 O.3    13  G13        -0.3259
      4  C4'       27.5090   -2.2240    5.9900 C.3    13  G13         0.1772
      5  O4'       28.9270   -2.5390    6.0020 O.3    13  G13        -0.3307
      6  C3'       27.4590   -0.7500    6.3690 C.3    13  G13         0.1860
      7  O3'       26.2010   -0.4010    6.9300 O.3    13  G13        -0.3112
      8  C2'       28.5780   -0.6820    7.4040 C.3    13  G13         0.2309
      9  O2'       28.2170   -1.2500    8.6470 O.3    13  G13        -0.2156
     10  C1'       29.6330   -1.5390    6.7170 C.3    13  G13         0.2408
     11  N1        33.1220    2.1260    6.2060 N.ar   13  G13        -0.1709
     12  C2        32.5580    1.6140    7.3530 C.ar   13  G13         0.2606
     13  N2        32.9730    2.1450    8.5130 N.pl3  13  G13        -0.0859
     14  N3        31.6480    0.6460    7.3610 N.ar   13  G13        -0.1918
     15  C4        31.3440    0.2260    6.1070 C.ar   13  G13         0.1723
     16  C5        31.8520    0.6730    4.9060 C.ar   13  G13         0.1748
     17  C6        32.8210    1.7050    4.9100 C.ar   13  G13         0.3023
     18  O6        33.3850    2.2320    3.9380 O.2    13  G13        -0.2633
     19  N7        31.2790   -0.0170    3.8420 N.ar   13  G13        -0.2173
     20  C8        30.4530   -0.8520    4.4100 C.ar   13  G13         0.1817
     21  N9        30.4430   -0.7630    5.7830 N.ar   13  G13        -0.2693
     22  OP1       26.9350   -3.4790    1.9710 O.3    13  G13        -0.1955
     23  OP2       26.8960   -1.0050    1.2760 O.co2  13  G13        -0.7863
     24  P         25.6280    1.0800    6.7220 P.3    14  G14         0.2141
     25  C5'       26.5470    1.7120    9.0840 C.3    14  G14         0.1812
     26  O5'       26.5440    1.9700    7.6880 O.3    14  G14        -0.3114
     27  C4'       27.5100    2.6350    9.8060 C.3    14  G14         0.1773
     28  O4'       28.8710    2.3760    9.3760 O.3    14  G14        -0.3307
     29  C3'       27.3270    4.1160    9.5200 C.3    14  G14         0.1860
     30  O3'       26.2510    4.6500   10.2810 O.3    14  G14        -0.3112
     31  C2'       28.6750    4.6500    9.9870 C.3    14  G14         0.2309
     32  O2'       28.7750    4.7030   11.3950 O.3    14  G14        -0.2156
     33  C1'       29.6170    3.5790    9.4460 C.3    14  G14         0.2408
     34  N1        32.8260    6.4620    6.7410 N.ar   14  G14        -0.1709
     35  C2        32.5980    6.4550    8.0970 C.ar   14  G14         0.2606
     36  N2        33.3140    7.3250    8.8250 N.pl3  14  G14        -0.0859
     37  N3        31.7290    5.6510    8.6980 N.ar   14  G14        -0.1918
     38  C4        31.0960    4.8420    7.8140 C.ar   14  G14         0.1723
     39  C5        31.2560    4.7750    6.4480 C.ar   14  G14         0.1748
     40  C6        32.1850    5.6360    5.8190 C.ar   14  G14         0.3023
     41  O6        32.4580    5.7160    4.6120 O.2    14  G14        -0.2633
     42  N7        30.4190    3.8110    5.8990 N.ar   14  G14        -0.2173
     43  C8        29.7810    3.3210    6.9260 C.ar   14  G14         0.1817
     44  N9        30.1400    3.8970    8.1200 N.ar   14  G14        -0.2693
     45  OP1       24.2400    1.1050    7.2370 O.3    14  G14        -0.4373
     46  OP2       25.9090    1.4780    5.3240 O.co2  14  G14        -0.5172
     47  P         25.3290    5.7940    9.6440 P.3    15  C15         0.2141
     48  C5'       26.7370    7.5700   10.9700 C.3    15  C15         0.1812
     49  O5'       26.2620    7.0920    9.7180 O.3    15  C15        -0.3114
     50  C4'       27.8380    8.5930   10.7550 C.3    15  C15         0.1773
     51  O4'       28.9510    7.9710   10.0650 O.3    15  C15        -0.3307
     52  C3'       27.4650    9.7590    9.8540 C.3    15  C15         0.1860
     53  O3'       26.7840   10.7650   10.5880 O.3    15  C15        -0.3112
     54  C2'       28.8370   10.2370    9.3870 C.3    15  C15         0.2309
     55  O2'       29.4950   11.0280   10.3550 O.3    15  C15        -0.2156
     56  C1'       29.5750    8.9150    9.2100 C.3    15  C15         0.2420
     57  N1        29.5420    8.4070    7.8070 N.ar   15  C15        -0.2535
     58  C2        30.4180    8.9500    6.8620 C.ar   15  C15         0.3532
     59  O2        31.2030    9.8420    7.2100 O.2    15  C15        -0.2443
     60  N3        30.3820    8.4800    5.5890 N.ar   15  C15        -0.1739
     61  C4        29.5200    7.5170    5.2530 C.ar   15  C15         0.1759
     62  N4        29.5230    7.0880    3.9860 N.pl3  15  C15        -0.1070
     63  C5        28.6200    6.9510    6.2050 C.ar   15  C15         0.0566
     64  C6        28.6650    7.4210    7.4570 C.ar   15  C15         0.0850
     65  OP1       24.1660    5.9950   10.5350 O.3    15  C15        -0.4373
     66  OP2       25.1140    5.4560    8.2180 O.co2  15  C15        -0.5172
     67  P         25.7480   11.7210    9.8320 P.3    16  U16         0.2141
     68  C5'       27.5400   13.6280    9.6000 C.3    16  U16         0.1812
     69  O5'       26.6980   12.6740    8.9660 O.3    16  U16        -0.3114
     70  C4'       28.4060   14.3220    8.5660 C.3    16  U16         0.1773
     71  O4'       29.2500   13.3380    7.9200 O.3    16  U16        -0.3307
     72  C3'       27.6470   14.9540    7.4100 C.3    16  U16         0.1860
     73  O3'       27.1710   16.2480    7.7570 O.3    16  U16        -0.3112
     74  C2'       28.7360   15.0350    6.3470 C.3    16  U16         0.2309
     75  O2'       29.6020   16.1360    6.5480 O.3    16  U16        -0.2156
     76  C1'       29.4900   13.7300    6.5800 C.3    16  U16         0.2420
     77  N1        29.0850   12.6200    5.6690 N.ar   16  U16        -0.2534
     78  C2        29.5030   12.6530    4.3560 C.ar   16  U16         0.3546
     79  O2        30.1860   13.5520    3.8960 O.2    16  U16        -0.2443
     80  N3        29.0920   11.5900    3.5910 N.ar   16  U16        -0.1530
     81  C4        28.3210   10.5170    3.9970 C.ar   16  U16         0.2846
     82  O4        28.0360    9.6360    3.1900 O.2    16  U16        -0.2650
     83  C5        27.9250   10.5540    5.3830 C.ar   16  U16         0.0814
     84  C6        28.3140   11.5810    6.1510 C.ar   16  U16         0.0870
     85  OP1       25.0560   12.5330   10.8590 O.3    16  U16        -0.4373
     86  OP2       24.9660   10.8890    8.8890 O.co2  16  U16        -0.5172
     87  P         25.7630   16.7380    7.1710 P.3    17  U17         0.2141
     88  C5'       27.0390   18.3510    5.5370 C.3    17  U17         0.1812
     89  O5'       26.1300   17.2750    5.7100 O.3    17  U17        -0.3114
     90  C4'       27.6210   18.3170    4.1360 C.3    17  U17         0.1773
     91  O4'       28.2710   17.0400    3.9180 O.3    17  U17        -0.3307
     92  C3'       26.6060   18.3930    3.0070 C.3    17  U17         0.1860
     93  O3'       26.2110   19.7430    2.7640 O.3    17  U17        -0.3112
     94  C2'       27.4120   17.8170    1.8470 C.3    17  U17         0.2309
     95  O2'       28.2910   18.7680    1.2780 O.3    17  U17        -0.2156
     96  C1'       28.2140   16.7170    2.5400 C.3    17  U17         0.2420
     97  N1        27.6300   15.3530    2.3930 N.ar   17  U17        -0.2534
     98  C2        27.8990   14.6350    1.2490 C.ar   17  U17         0.3546
     99  O2        28.5910   15.0680    0.3450 O.2    17  U17        -0.2443
    100  N3        27.3250   13.3890    1.1970 N.ar   17  U17        -0.1530
    101  C4        26.5240   12.8020    2.1600 C.ar   17  U17         0.2846
    102  O4        26.0770   11.6720    1.9760 O.2    17  U17        -0.2650
    103  C5        26.2890   13.6160    3.3260 C.ar   17  U17         0.0814
    104  C6        26.8400   14.8330    3.3970 C.ar   17  U17         0.0870
    105  OP1       25.2900   17.8690    8.0030 O.3    17  U17        -0.4373
    106  OP2       24.9180   15.5350    6.9940 O.co2  17  U17        -0.5172
    107  P         24.7490   20.0410    2.1790 P.3    18  C18         0.2141
    108  C5'       25.7320   20.2580   -0.2370 C.3    18  C18         0.1812
    109  O5'       24.8860   19.5640    0.6600 O.3    18  C18        -0.3114
    110  C4'       25.8460   19.4790   -1.5300 C.3    18  C18         0.1773
    111  O4'       26.4620   18.2010   -1.2480 O.3    18  C18        -0.3307
    112  C3'       24.5230   19.0930   -2.1730 C.3    18  C18         0.1860
    113  O3'       23.9880   20.1580   -2.9410 O.3    18  C18        -0.3112
    114  C2'       24.9620   17.9380   -3.0640 C.3    18  C18         0.2309
    115  O2'       25.6050   18.3600   -4.2530 O.3    18  C18        -0.2156
    116  C1'       25.9500   17.2270   -2.1440 C.3    18  C18         0.2420
    117  N1        25.3120   16.1200   -1.3740 N.ar   18  C18        -0.2535
    118  C2        25.2080   14.8610   -1.9740 C.ar   18  C18         0.3532
    119  O2        25.6500   14.7070   -3.1200 O.2    18  C18        -0.2443
    120  N3        24.6310   13.8460   -1.2840 N.ar   18  C18        -0.1739
    121  C4        24.1660   14.0610   -0.0530 C.ar   18  C18         0.1759
    122  N4        23.6020   13.0290    0.5870 N.pl3  18  C18        -0.1070
    123  C5        24.2590   15.3410    0.5730 C.ar   18  C18         0.0566
    124  C6        24.8340   16.3340   -0.1160 C.ar   18  C18         0.0850
    125  OP1       24.5200   21.5040    2.2060 O.2    18  C18        -0.5172
    126  OP2       23.7950   19.1340    2.8590 O.co2  18  C18        -0.4373
    127  P         22.4160   20.2010   -3.2530 P.3    19  A19         0.2141
    128  C5'       22.6390   18.9990   -5.5640 C.3    19  A19         0.1812
    129  O5'       22.2040   18.9380   -4.2120 O.3    19  A19        -0.3114
    130  C4'       22.4410   17.6660   -6.2530 C.3    19  A19         0.1773
    131  O4'       23.0880   16.6390   -5.4650 O.3    19  A19        -0.3307
    132  C3'       21.0040   17.1750   -6.3460 C.3    19  A19         0.1860
    133  O3'       20.3090   17.7550   -7.4430 O.3    19  A19        -0.3112
    134  C2'       21.2250   15.6860   -6.5730 C.3    19  A19         0.2309
    135  O2'       21.6390   15.3920   -7.8910 O.3    19  A19        -0.2156
    136  C1'       22.3760   15.4210   -5.6130 C.3    19  A19         0.2408
    137  N1        20.6330   11.4160   -2.9320 N.ar   19  A19        -0.2040
    138  C2        20.9540   11.5550   -4.2230 C.ar   19  A19         0.2016
    139  N3        21.4030   12.6380   -4.8570 N.ar   19  A19        -0.2048
    140  C4        21.5170   13.6690   -4.0070 C.ar   19  A19         0.1692
    141  C5        21.2260   13.6800   -2.6560 C.ar   19  A19         0.1518
    142  C6        20.7580   12.4730   -2.1040 C.ar   19  A19         0.1919
    143  N6        20.4390   12.3390   -0.8150 N.pl3  19  A19        -0.1054
    144  N7        21.4640   14.9330   -2.1080 N.ar   19  A19        -0.2193
    145  C8        21.8880   15.6440   -3.1290 C.ar   19  A19         0.1816
    146  N9        21.9460   14.9420   -4.3010 N.ar   19  A19        -0.2693
    147  OP1       22.1480   21.4300   -4.0350 O.2    19  A19        -0.5172
    148  OP2       21.6840   19.9670   -1.9860 O.co2  19  A19        -0.4373
    149  P         18.7420   18.0560   -7.2760 P.3    20  U20         0.2141
    150  C5'       18.2680   15.8800   -8.6680 C.3    20  U20         0.1812
    151  O5'       18.0750   16.6130   -7.4680 O.3    20  U20        -0.3114
    152  C4'       17.7270   14.4790   -8.4820 C.3    20  U20         0.1773
    153  O4'       18.4890   13.7950   -7.4580 O.3    20  U20        -0.3307
    154  C3'       16.3080   14.4140   -7.9490 C.3    20  U20         0.1860
    155  O3'       15.3730   14.6160   -9.0000 O.3    20  U20        -0.3112
    156  C2'       16.2530   12.9840   -7.4240 C.3    20  U20         0.2309
    157  O2'       16.0560   12.0290   -8.4530 O.3    20  U20        -0.2156
    158  C1'       17.6480   12.8490   -6.8220 C.3    20  U20         0.2420
    159  N1        17.6620   13.1270   -5.3640 N.ar   20  U20        -0.2534
    160  C2        17.3200   12.0990   -4.5250 C.ar   20  U20         0.3546
    161  O2        17.0210   10.9950   -4.9450 O.2    20  U20        -0.2443
    162  N3        17.3480   12.4160   -3.1880 N.ar   20  U20        -0.1530
    163  C4        17.6660   13.6370   -2.6270 C.ar   20  U20         0.2846
    164  O4        17.6390   13.7590   -1.4050 O.2    20  U20        -0.2650
    165  C5        18.0010   14.6690   -3.5770 C.ar   20  U20         0.0814
    166  C6        17.9810   14.3810   -4.8830 C.ar   20  U20         0.0870
    167  OP1       18.3110   18.9390   -8.3870 O.2    20  U20        -0.5172
    168  OP2       18.5150   18.4730   -5.8780 O.co2  20  U20        -0.4373
    169  P         13.9690   15.2800   -8.6290 P.3    21  A21         0.2141
    170  C5'       12.7790   12.9640   -8.2660 C.3    21  A21         0.1812
    171  O5'       13.2690   14.1730   -7.7050 O.3    21  A21        -0.3114
    172  C4'       12.1970   12.1020   -7.1600 C.3    21  A21         0.1773
    173  O4'       13.2290   11.8090   -6.1910 O.3    21  A21        -0.3307
    174  C3'       11.1290   12.7770   -6.3220 C.3    21  A21         0.1860
    175  O3'        9.8980   12.6830   -7.0000 O.3    21  A21        -0.3112
    176  C2'       11.1300   11.8850   -5.0790 C.3    21  A21         0.2309
    177  O2'       10.3390   10.7230   -5.2720 O.3    21  A21        -0.2156
    178  C1'       12.6040   11.5060   -4.9590 C.3    21  A21         0.2408
    179  N1        13.8570   11.6040   -0.0500 N.ar   21  A21        -0.2040
    180  C2        13.2020   10.7040   -0.7780 C.ar   21  A21         0.2016
    181  N3        12.9100   10.7500   -2.0740 N.ar   21  A21        -0.2048
    182  C4        13.3870   11.8870   -2.6150 C.ar   21  A21         0.1692
    183  C5        14.0740   12.9070   -1.9990 C.ar   21  A21         0.1518
    184  C6        14.3150   12.7400   -0.6250 C.ar   21  A21         0.1919
    185  N6        14.9660   13.6360    0.1240 N.pl3  21  A21        -0.1054
    186  N7        14.3950   13.9220   -2.9030 N.ar   21  A21        -0.2193
    187  C8        13.8840   13.4940   -4.0330 C.ar   21  A21         0.1816
    188  N9        13.2740   12.2700   -3.9220 N.ar   21  A21        -0.2693
    189  OP1       13.2140   15.3960   -9.8980 O.2    21  A21        -0.5172
    190  OP2       14.1920   16.4800   -7.7870 O.co2  21  A21        -0.4373
    191  P          9.1340   13.9820   -7.5400 P.3    22  U22         0.2141
    192  C5'        7.7900   15.7850   -6.1340 C.3    22  U22         0.1812
    193  O5'        8.3400   14.4630   -6.2360 O.3    22  U22        -0.3114
    194  C4'        7.7900   16.1910   -4.6740 C.3    22  U22         0.1773
    195  O4'        6.9520   15.2570   -3.9280 O.3    22  U22        -0.3307
    196  C3'        9.1690   16.1530   -4.0240 C.3    22  U22         0.1860
    197  O3'        9.2930   17.1410   -3.0020 O.3    22  U22        -0.3112
    198  C2'        9.1840   14.7830   -3.3650 C.3    22  U22         0.2309
    199  O2'       10.0150   14.8230   -2.2310 O.3    22  U22        -0.2156
    200  C1'        7.7350   14.6490   -2.9240 C.3    22  U22         0.2420
    201  N1         7.2620   13.2460   -2.8240 N.ar   22  U22        -0.2534
    202  C2         7.0280   12.7380   -1.5700 C.ar   22  U22         0.3546
    203  O2         7.2160   13.4050   -0.5660 O.2    22  U22        -0.2443
    204  N3         6.5780   11.4350   -1.5530 N.ar   22  U22        -0.1530
    205  C4         6.3390   10.6270   -2.6520 C.ar   22  U22         0.2846
    206  O4         5.9340    9.4780   -2.4880 O.2    22  U22        -0.2650
    207  C5         6.6060   11.2430   -3.9300 C.ar   22  U22         0.0814
    208  C6         7.0510   12.5100   -3.9730 C.ar   22  U22         0.0870
    209  OP1        8.1560   13.4660   -8.5260 O.2    22  U22        -0.5172
    210  OP2       10.1040   15.0340   -7.9320 O.co2  22  U22        -0.4373
    211  P          9.5800   18.6650   -3.3810 P.3    23  A23         0.2141
    212  C5'        7.9650   20.7100   -3.2570 C.3    23  A23         0.1812
    213  O5'        8.1280   19.3110   -3.3920 O.3    23  A23        -0.3114
    214  C4'        6.5010   20.9720   -2.9920 C.3    23  A23         0.1773
    215  O4'        5.7420   20.3960   -4.0770 O.3    23  A23        -0.3307
    216  C3'        5.9380   20.2950   -1.7490 C.3    23  A23         0.1860
    217  O3'        6.1740   21.1310   -0.6180 O.3    23  A23        -0.3112
    218  C2'        4.4570   20.2770   -2.0910 C.3    23  A23         0.2309
    219  O2'        3.8460   21.5490   -1.9110 O.3    23  A23        -0.2156
    220  C1'        4.4990   19.9630   -3.5880 C.3    23  A23         0.2408
    221  N1         4.2560   14.8880   -2.2930 N.ar   23  A23        -0.2040
    222  C2         4.6190   15.9520   -1.5570 C.ar   23  A23         0.2016
    223  N3         4.6740   17.2360   -1.9300 N.ar   23  A23        -0.2048
    224  C4         4.3080   17.3970   -3.2160 C.ar   23  A23         0.1692
    225  C5         3.9270   16.3890   -4.0840 C.ar   23  A23         0.1518
    226  C6         3.8990   15.0770   -3.5830 C.ar   23  A23         0.1919
    227  N6         3.5420   14.0290   -4.3320 N.pl3  23  A23        -0.1054
    228  N7         3.6140   16.8960   -5.3360 N.ar   23  A23        -0.2193
    229  C8         3.8110   18.1880   -5.2100 C.ar   23  A23         0.1816
    230  N9         4.2460   18.5640   -3.9660 N.ar   23  A23        -0.2693
    231  OP1       10.0980   18.6420   -4.7470 O.2    23  A23        -0.5172
    232  OP2       10.4220   19.2790   -2.3450 O.co2  23  A23        -0.4373
    233  P          7.0690   20.6440    0.6070 P.3    24  A24         0.2141
    234  C5'        5.6290   18.4990    1.0870 C.3    24  A24         0.1812
    235  O5'        6.1050   19.7770    1.5350 O.3    24  A24        -0.3114
    236  C4'        5.4840   17.5660    2.2780 C.3    24  A24         0.1773
    237  O4'        6.7910   17.3050    2.8430 O.3    24  A24        -0.3307
    238  C3'        4.6620   18.1060    3.4390 C.3    24  A24         0.1860
    239  O3'        3.3040   17.8250    3.1650 O.3    24  A24        -0.3112
    240  C2'        5.1800   17.2530    4.5860 C.3    24  A24         0.2309
    241  O2'        4.7110   15.9250    4.4820 O.3    24  A24        -0.2156
    242  C1'        6.6590   17.1740    4.2490 C.3    24  A24         0.2408
    243  N1         9.1570   18.4010    8.5570 N.ar   24  A24        -0.2040
    244  C2         8.2330   17.4650    8.3020 C.ar   24  A24         0.2016
    245  N3         7.6130   17.2140    7.1510 N.ar   24  A24        -0.2048
    246  C4         8.0420   18.0450    6.1830 C.ar   24  A24         0.1692
    247  C5         8.9800   19.0500    6.2940 C.ar   24  A24         0.1518
    248  C6         9.5670   19.2170    7.5640 C.ar   24  A24         0.1919
    249  N6        10.5000   20.1420    7.8200 N.pl3  24  A24        -0.1054
    250  N7         9.1670   19.6930    5.0850 N.ar   24  A24        -0.2193
    251  C8         8.3330   19.0830    4.2680 C.ar   24  A24         0.1816
    252  N9         7.6150   18.0850    4.8760 N.ar   24  A24        -0.2693
    253  OP1        7.4300   21.8590    1.3360 O.3    24  A24        -0.4373
    254  OP2        8.1120   19.7580    0.0910 O.co2  24  A24        -0.5172
    255  P          2.0310   18.6290    3.7180 P.3    25  U25         0.2141
    256  C5'        1.7460   20.0100    1.5300 C.3    25  U25         0.1812
    257  O5'        1.2520   18.9630    2.3650 O.3    25  U25        -0.3114
    258  C4'        1.3670   19.6920    0.0990 C.3    25  U25         0.1773
    259  O4'        2.2170   18.6170   -0.3940 O.3    25  U25        -0.3307
    260  C3'       -0.0460   19.1690   -0.1000 C.3    25  U25         0.1860
    261  O3'       -1.0020   20.2500   -0.0990 O.3    25  U25        -0.3112
    262  C2'        0.1150   18.5300   -1.4700 C.3    25  U25         0.2309
    263  O2'        0.2360   19.5130   -2.4850 O.3    25  U25        -0.2156
    264  C1'        1.4500   17.8120   -1.2650 C.3    25  U25         0.2420
    265  N1         1.2680   16.4520   -0.6630 N.ar   25  U25        -0.2534
    266  C2         0.7420   15.4670   -1.4680 C.ar   25  U25         0.3546
    267  O2         0.4320   15.6760   -2.6330 O.2    25  U25        -0.2443
    268  N3         0.5890   14.2350   -0.8710 N.ar   25  U25        -0.1530
    269  C4         0.9070   13.9180    0.4300 C.ar   25  U25         0.2846
    270  O4         0.7000   12.7820    0.8290 O.2    25  U25        -0.2650
    271  C5         1.4550   14.9960    1.2190 C.ar   25  U25         0.0814
    272  C6         1.6120   16.2010    0.6500 C.ar   25  U25         0.0870
    273  OP1        2.4440   19.8980    4.3860 O.2    25  U25        -0.5172
    274  OP2        1.2050   17.6730    4.5030 O.co2  25  U25        -0.4373
    275  P         -2.5120   19.9880    0.3460 P.3    26  C26         0.2141
    276  C5'       -3.0980   19.7710   -2.2290 C.3    26  C26         0.1812
    277  O5'       -3.1320   19.2180   -0.9100 O.3    26  C26        -0.3114
    278  C4'       -3.5810   18.7000   -3.1920 C.3    26  C26         0.1773
    279  O4'       -2.6160   17.6140   -3.2330 O.3    26  C26        -0.3307
    280  C3'       -4.8700   18.0060   -2.7840 C.3    26  C26         0.1860
    281  O3'       -5.9970   18.7960   -3.1200 O.3    26  C26        -0.3112
    282  C2'       -4.7910   16.7720   -3.6810 C.3    26  C26         0.2309
    283  O2'       -5.0040   17.1410   -5.0250 O.3    26  C26        -0.2156
    284  C1'       -3.3330   16.3950   -3.4460 C.3    26  C26         0.2420
    285  N1        -3.1440   15.5150   -2.2470 N.ar   26  C26        -0.2535
    286  C2        -3.4540   14.1610   -2.3790 C.ar   26  C26         0.3532
    287  O2        -3.8930   13.7640   -3.4720 O.2    26  C26        -0.2443
    288  N3        -3.2800   13.3370   -1.3130 N.ar   26  C26        -0.1739
    289  C4        -2.8080   13.8230   -0.1630 C.ar   26  C26         0.1759
    290  N4        -2.6540   12.9680    0.8530 N.pl3  26  C26        -0.1070
    291  C5        -2.4770   15.2060   -0.0120 C.ar   26  C26         0.0566
    292  C6        -2.6530   16.0030   -1.0730 C.ar   26  C26         0.0850
    293  OP1       -3.1520   21.3270    0.4450 O.2    26  C26        -0.5172
    294  OP2       -2.5620   19.0610    1.5010 O.co2  26  C26        -0.4373
    295  P         -7.3480   18.6890   -2.2760 P.3    27  C27         0.2141
    296  C5'       -8.3460   17.0930   -4.1120 C.3    27  C27         0.1812
    297  O5'       -7.9370   17.2900   -2.7520 O.3    27  C27        -0.3114
    298  C4'       -8.7330   15.6350   -4.2920 C.3    27  C27         0.1773
    299  O4'       -7.5710   14.8300   -4.0230 O.3    27  C27        -0.3307
    300  C3'       -9.7580   15.0910   -3.3060 C.3    27  C27         0.1860
    301  O3'      -11.0610   15.4570   -3.7190 O.3    27  C27        -0.3112
    302  C2'       -9.5270   13.5980   -3.5110 C.3    27  C27         0.2309
    303  O2'      -10.0110   13.1360   -4.7620 O.3    27  C27        -0.2156
    304  C1'       -8.0080   13.5850   -3.5000 C.3    27  C27         0.2420
    305  N1        -7.4330   13.4290   -2.1430 N.ar   27  C27        -0.2535
    306  C2        -7.5180   12.1690   -1.5480 C.ar   27  C27         0.3532
    307  O2        -8.0800   11.2560   -2.1710 O.2    27  C27        -0.2443
    308  N3        -6.9970   11.9920   -0.3150 N.ar   27  C27        -0.1739
    309  C4        -6.4140   13.0050    0.3180 C.ar   27  C27         0.1759
    310  N4        -5.9070   12.7580    1.5340 N.pl3  27  C27        -0.1070
    311  C5        -6.3100   14.3060   -0.2720 C.ar   27  C27         0.0566
    312  C6        -6.8370   14.4700   -1.4960 C.ar   27  C27         0.0850
    313  OP1       -8.2560   19.7720   -2.7400 O.2    27  C27        -0.5172
    314  OP2       -7.0210   18.5940   -0.8350 O.co2  27  C27        -0.4373
    315  P        -12.3040   15.5370   -2.7130 P.3    28  G28         0.2141
    316  C5'      -13.1080   13.1530   -3.3970 C.3    28  G28         0.1812
    317  O5'      -12.6220   14.0070   -2.3650 O.3    28  G28        -0.3114
    318  C4'      -13.2580   11.7360   -2.8760 C.3    28  G28         0.1773
    319  O4'      -11.9660   11.2500   -2.4590 O.3    28  G28        -0.3307
    320  C3'      -14.1010   11.6030   -1.6180 C.3    28  G28         0.1860
    321  O3'      -15.4800   11.6130   -1.9340 O.3    28  G28        -0.3112
    322  C2'      -13.6460   10.2380   -1.1240 C.3    28  G28         0.2309
    323  O2'      -14.1090    9.1710   -1.9330 O.3    28  G28        -0.2156
    324  C1'      -12.1490   10.3850   -1.3470 C.3    28  G28         0.2408
    325  N1       -10.1800    9.3730    3.2240 N.ar   28  G28        -0.1709
    326  C2       -10.9360    8.5640    2.4060 C.ar   28  G28         0.2606
    327  N2       -11.1970    7.3200    2.8510 N.pl3  28  G28        -0.0859
    328  N3       -11.4030    8.9470    1.2230 N.ar   28  G28        -0.1918
    329  C4       -11.0530   10.2260    0.9270 C.ar   28  G28         0.1723
    330  C5       -10.3130   11.1080    1.6770 C.ar   28  G28         0.1748
    331  C6        -9.8210   10.6890    2.9340 C.ar   28  G28         0.3023
    332  O6        -9.1310   11.3400    3.7320 O.2    28  G28        -0.2633
    333  N7       -10.1780   12.3320    1.0210 N.ar   28  G28        -0.2173
    334  C8       -10.8290   12.1610   -0.1020 C.ar   28  G28         0.1817
    335  N9       -11.3860   10.9160   -0.2210 N.ar   28  G28        -0.2693
    336  OP1      -13.4280   16.1360   -3.4670 O.2    28  G28        -0.5172
    337  OP2      -11.8390   16.1580   -1.4500 O.co2  28  G28        -0.4373
    338  P        -16.5430   12.0860   -0.8350 P.3    29  A29         0.2141
    339  C5'      -16.9110    9.5650   -0.1760 C.3    29  A29         0.1812
    340  O5'      -16.5760   10.8830    0.2150 O.3    29  A29        -0.3114
    341  C4'      -16.7030    8.6290    0.9990 C.3    29  A29         0.1773
    342  O4'      -15.2920    8.5390    1.3280 O.3    29  A29        -0.3307
    343  C3'      -17.3530    9.1160    2.2850 C.3    29  A29         0.1860
    344  O3'      -18.7490    8.7900    2.2740 O.3    29  A29        -0.3112
    345  C2'      -16.5690    8.3120    3.3160 C.3    29  A29         0.2309
    346  O2'      -16.9950    6.9670    3.3630 O.3    29  A29        -0.2156
    347  C1'      -15.1620    8.3830    2.7350 C.3    29  A29         0.2408
    348  N1       -11.8970    9.9130    6.3920 N.ar   29  A29        -0.2040
    349  C2       -12.5250    8.7510    6.1750 C.ar   29  A29         0.2016
    350  N3       -13.3720    8.4090    5.1960 N.ar   29  A29        -0.2048
    351  C4       -13.5600    9.4500    4.3700 C.ar   29  A29         0.1692
    352  C5       -12.9940   10.7060    4.4610 C.ar   29  A29         0.1518
    353  C6       -12.1190   10.9400    5.5400 C.ar   29  A29         0.1919
    354  N6       -11.5050   12.1120    5.7440 N.pl3  29  A29        -0.1054
    355  N7       -13.4260   11.5180    3.4210 N.ar   29  A29        -0.2193
    356  C8       -14.2350   10.7460    2.7340 C.ar   29  A29         0.1816
    357  N9       -14.3620    9.4880    3.2560 N.ar   29  A29        -0.2693
    358  OP1      -17.8430   12.1480   -1.5440 O.2    29  A29        -0.5172
    359  OP2      -16.0220   13.2610   -0.0920 O.co2  29  A29        -0.4373
    360  P        -19.7690    9.5270    3.2590 P.3    30  A30         0.2141
    361  C5'      -19.2660    9.7680    5.8130 C.3    30  A30         0.1812
    362  O5'      -19.2990    8.9440    4.6660 O.3    30  A30        -0.3114
    363  C4'      -18.4040    9.0650    6.8400 C.3    30  A30         0.1773
    364  O4'      -17.0260    9.1330    6.4080 O.3    30  A30        -0.3307
    365  C3'      -18.3940    9.7020    8.2200 C.3    30  A30         0.1860
    366  O3'      -19.5190    9.2610    8.9590 O.3    30  A30        -0.3112
    367  C2'      -17.0900    9.1440    8.7820 C.3    30  A30         0.2309
    368  O2'      -17.1860    7.8010    9.2210 O.3    30  A30        -0.2156
    369  C1'      -16.1930    9.2260    7.5510 C.3    30  A30         0.2408
    370  N1       -12.5150   11.9900    9.6850 N.ar   30  A30        -0.2040
    371  C2       -13.0230   10.7890    9.9720 C.ar   30  A30         0.2016
    372  N3       -14.0010   10.1230    9.3540 N.ar   30  A30        -0.2048
    373  C4       -14.4640   10.8470    8.3330 C.ar   30  A30         0.1692
    374  C5       -14.0490   12.0890    7.9080 C.ar   30  A30         0.1518
    375  C6       -13.0040   12.6870    8.6350 C.ar   30  A30         0.1919
    376  N6       -12.4920   13.8930    8.3420 N.pl3  30  A30        -0.1054
    377  N7       -14.7770   12.5030    6.8000 N.ar   30  A30        -0.2193
    378  C8       -15.6090   11.5070    6.5910 C.ar   30  A30         0.1816
    379  N9       -15.4680   10.4800    7.4810 N.ar   30  A30        -0.2693
    380  OP1      -21.1220    8.9980    2.9610 O.2    30  A30        -0.5172
    381  OP2      -19.5190   10.9840    3.2620 O.co2  30  A30        -0.4373
    382  P        -20.2210   10.2450   10.0020 P.3    31  U31         0.2141
    383  C5'      -18.6060    9.6040   11.9530 C.3    31  U31         0.1812
    384  O5'      -19.0360   10.5830   11.0260 O.3    31  U31        -0.3114
    385  C4'      -17.4520   10.1710   12.7590 C.3    31  U31         0.1773
    386  O4'      -16.3570   10.4940   11.8700 O.3    31  U31        -0.3307
    387  C3'      -17.7710   11.4990   13.4290 C.3    31  U31         0.1860
    388  O3'      -18.4810   11.2690   14.6380 O.3    31  U31        -0.3112
    389  C2'      -16.3730   12.0480   13.6690 C.3    31  U31         0.2309
    390  O2'      -15.7180   11.4090   14.7470 O.3    31  U31        -0.2156
    391  C1'      -15.6960   11.6500   12.3600 C.3    31  U31         0.2420
    392  N1       -15.7250   12.7230   11.3270 N.ar   31  U31        -0.2534
    393  C2       -14.8000   13.7300   11.4540 C.ar   31  U31         0.3546
    394  O2       -13.9830   13.7400   12.3600 O.2    31  U31        -0.2443
    395  N3       -14.8480   14.7030   10.4810 N.ar   31  U31        -0.1530
    396  C4       -15.7390   14.7500    9.4200 C.ar   31  U31         0.2846
    397  O4       -15.6690   15.6800    8.6240 O.2    31  U31        -0.2650
    398  C5       -16.6870   13.6680    9.3640 C.ar   31  U31         0.0814
    399  C6       -16.6490   12.7040   10.2970 C.ar   31  U31         0.0870
    400  OP1      -21.2390    9.4330   10.7190 O.3    31  U31        -0.4373
    401  OP2      -20.5810   11.5060    9.3340 O.co2  31  U31        -0.5172
    402  P        -19.5280   12.3600   15.1640 P.3    32  G32         0.2141
    403  C5'      -17.7300   13.4630   16.7450 C.3    32  G32         0.1812
    404  O5'      -18.5850   13.5640   15.6200 O.3    32  G32        -0.3114
    405  C4'      -16.8540   14.7020   16.8110 C.3    32  G32         0.1773
    406  O4'      -16.0910   14.8190   15.5900 O.3    32  G32        -0.3307
    407  C3'      -17.6010   16.0220   16.8690 C.3    32  G32         0.1860
    408  O3'      -18.0820   16.2270   18.1980 O.3    32  G32        -0.3112
    409  C2'      -16.4910   16.9850   16.4520 C.3    32  G32         0.2309
    410  O2'      -15.5050   17.2100   17.4510 O.3    32  G32        -0.2156
    411  C1'      -15.8550   16.1920   15.3120 C.3    32  G32         0.2408
    412  N1       -15.3770   19.1940   11.2310 N.ar   32  G32        -0.1709
    413  C2       -14.6970   19.2100   12.4230 C.ar   32  G32         0.2606
    414  N2       -13.7630   20.1550   12.5390 N.pl3  32  G32        -0.0859
    415  N3       -14.9140   18.3680   13.4340 N.ar   32  G32        -0.1918
    416  C4       -15.8930   17.4860   13.1390 C.ar   32  G32         0.1723
    417  C5       -16.6330   17.3850   11.9830 C.ar   32  G32         0.1748
    418  C6       -16.3900   18.2950   10.9210 C.ar   32  G32         0.3023
    419  O6       -16.9570   18.3560    9.8210 O.2    32  G32        -0.2633
    420  N7       -17.5450   16.3430   12.0800 N.ar   32  G32        -0.2173
    421  C8       -17.3400   15.8420   13.2720 C.ar   32  G32         0.1817
    422  N9       -16.3540   16.4910   13.9690 N.ar   32  G32        -0.2693
    423  OP1      -20.1840   11.7730   16.3590 O.3    32  G32        -0.4373
    424  OP2      -20.3380   12.8930   14.0410 O.co2  32  G32        -0.5172
    425  P        -19.1690   17.3630   18.4800 P.3    33  A33         0.2141
    426  C5'      -18.7680   19.9220   18.0560 C.3    33  A33         0.1812
    427  O5'      -18.2460   18.6560   18.3760 O.3    33  A33        -0.3114
    428  C4'      -17.6060   20.8900   18.0770 C.3    33  A33         0.1773
    429  O4'      -16.6460   20.5210   17.0500 O.3    33  A33        -0.3307
    430  C3'      -17.9600   22.3320   17.7670 C.3    33  A33         0.1860
    431  O3'      -18.4360   22.9450   18.9560 O.3    33  A33        -0.3112
    432  C2'      -16.5900   22.8630   17.3580 C.3    33  A33         0.2309
    433  O2'      -15.6970   23.0700   18.4420 O.3    33  A33        -0.2156
    434  C1'      -16.0520   21.7000   16.5340 C.3    33  A33         0.2408
    435  N1       -14.9600   24.1190   12.1260 N.ar   33  A33        -0.2040
    436  C2       -14.5280   24.3130   13.3800 C.ar   33  A33         0.2016
    437  N3       -14.8630   23.6450   14.4840 N.ar   33  A33        -0.2048
    438  C4       -15.7380   22.6620   14.2100 C.ar   33  A33         0.1692
    439  C5       -16.2710   22.3470   12.9720 C.ar   33  A33         0.1518
    440  C6       -15.8400   23.1250   11.8780 C.ar   33  A33         0.1919
    441  N6       -16.2750   22.9320   10.6220 N.pl3  33  A33        -0.1054
    442  N7       -17.1550   21.2850   13.0800 N.ar   33  A33        -0.2193
    443  C8       -17.1410   20.9770   14.3580 C.ar   33  A33         0.1816
    444  N9       -16.3130   21.7790   15.0960 N.ar   33  A33        -0.2693
    445  OP1      -19.6150   17.1790   19.8830 O.3    33  A33        -0.4373
    446  OP2      -20.1570   17.4220   17.3850 O.co2  33  A33        -0.5172
    447  P        -19.5450   24.0990   18.9040 P.3    34  U34         0.2141
    448  C5'      -17.5620   25.8560   18.8750 C.3    34  U34         0.1812
    449  O5'      -18.7410   25.3350   18.2720 O.3    34  U34        -0.3114
    450  C4'      -16.8870   26.8380   17.9330 C.3    34  U34         0.1773
    451  O4'      -16.5840   26.1640   16.6750 O.3    34  U34        -0.3307
    452  C3'      -17.7210   28.0660   17.5790 C.3    34  U34         0.1860
    453  O3'      -16.9100   29.2120   17.5890 O.3    34  U34        -0.3112
    454  C2'      -18.1840   27.7920   16.1550 C.3    34  U34         0.2309
    455  O2'      -18.3250   28.9720   15.3810 O.3    34  U34        -0.2156
    456  C1'      -17.0670   26.9230   15.5880 C.3    34  U34         0.2420
    457  N1       -17.6610   26.0330   14.5590 N.ar   34  U34        -0.2534
    458  C2       -17.3860   26.2660   13.2230 C.ar   34  U34         0.3546
    459  O2       -16.6340   27.1490   12.8480 O.2    34  U34        -0.2443
    460  N3       -18.0050   25.4160   12.3460 N.ar   34  U34        -0.1530
    461  C4       -18.8680   24.3850   12.6650 C.ar   34  U34         0.2846
    462  O4       -19.3610   23.6980   11.7710 O.2    34  U34        -0.2650
    463  C5       -19.1240   24.2190   14.0730 C.ar   34  U34         0.0814
    464  C6       -18.5270   25.0330   14.9490 C.ar   34  U34         0.0870
    465  OP1      -19.9140   24.4010   20.3070 O.3    34  U34        -0.4373
    466  OP2      -20.5970   23.7070   17.9490 O.co2  34  U34        -0.5172
    467  P        -16.9640   30.2140   18.8340 P.3    35  A35         0.2141
    468  C5'      -14.3430   30.4690   18.7240 C.3    35  A35         0.1812
    469  O5'      -15.6330   31.0510   18.5900 O.3    35  A35        -0.3114
    470  C4'      -13.3070   31.4990   18.3320 C.3    35  A35         0.1773
    471  O4'      -13.2800   31.6500   16.8840 O.3    35  A35        -0.3307
    472  C3'      -13.5880   32.8920   18.8900 C.3    35  A35         0.1860
    473  O3'      -12.3700   33.5310   19.2590 O.3    35  A35        -0.3112
    474  C2'      -14.2590   33.6100   17.7180 C.3    35  A35         0.2309
    475  O2'      -14.0340   35.0080   17.7550 O.3    35  A35        -0.2156
    476  C1'      -13.5680   32.9840   16.5120 C.3    35  A35         0.2408
    477  N1       -14.9410   35.3780   12.1760 N.ar   35  A35        -0.2040
    478  C2       -14.0820   35.7140   13.1480 C.ar   35  A35         0.2016
    479  N3       -13.7710   35.0370   14.2560 N.ar   35  A35        -0.2048
    480  C4       -14.4620   33.8820   14.3220 C.ar   35  A35         0.1692
    481  C5       -15.3730   33.4020   13.3990 C.ar   35  A35         0.1518
    482  C6       -15.6140   34.2120   12.2670 C.ar   35  A35         0.1919
    483  N6       -16.4680   33.8860   11.2890 N.pl3  35  A35        -0.1054
    484  N7       -15.8780   32.1730   13.8030 N.ar   35  A35        -0.2193
    485  C8       -15.2680   31.9380   14.9430 C.ar   35  A35         0.1816
    486  N9       -14.4020   32.9310   15.3140 N.ar   35  A35        -0.2693
    487  OP1      -16.8830   29.4150   20.0800 O.3    35  A35        -0.4373
    488  OP2      -18.1040   31.1530   18.6530 O.co2  35  A35        -0.5172
    489  P        -11.9270   33.6080   20.8030 P.3    36  U36         0.2141
    490  C5'      -10.4210   31.5000   21.2330 C.3    36  U36         0.1812
    491  O5'      -11.7150   32.0710   21.2030 O.3    36  U36        -0.3114
    492  C4'      -10.4180   30.3730   22.2510 C.3    36  U36         0.1773
    493  O4'      -10.6680   30.9360   23.5710 O.3    36  U36        -0.3307
    494  C3'      -11.4870   29.2970   22.0640 C.3    36  U36         0.1860
    495  O3'      -11.0170   28.0320   22.5360 O.3    36  U36        -0.3112
    496  C2'      -12.5850   29.7920   22.9940 C.3    36  U36         0.2309
    497  O2'      -13.4830   28.7710   23.3720 O.3    36  U36        -0.2156
    498  C1'      -11.7140   30.2080   24.1740 C.3    36  U36         0.2420
    499  N1       -12.3980   31.0870   25.1710 N.ar   36  U36        -0.2534
    500  C2       -12.4760   30.6720   26.4830 C.ar   36  U36         0.3546
    501  O2       -12.0070   29.6170   26.8730 O.2    36  U36        -0.2443
    502  N3       -13.1230   31.5400   27.3310 N.ar   36  U36        -0.1530
    503  C4       -13.6830   32.7600   26.9920 C.ar   36  U36         0.2846
    504  O4       -14.2330   33.4370   27.8560 O.2    36  U36        -0.2650
    505  C5       -13.5630   33.1240   25.6010 C.ar   36  U36         0.0814
    506  C6       -12.9390   32.2920   24.7590 C.ar   36  U36         0.0870
    507  OP1      -13.0820   34.0670   21.6080 O.3    36  U36        -0.4373
    508  OP2      -10.6260   34.3210   20.8400 O.co2  36  U36        -0.5172
    509  P        -10.1780   27.0610   21.5810 P.3    37  G37         0.2141
    510  C5'      -12.3130   25.6920   20.7630 C.3    37  G37         0.1812
    511  O5'      -11.2570   26.5990   20.4880 O.3    37  G37        -0.3114
    512  C4'      -12.9660   25.2830   19.4550 C.3    37  G37         0.1773
    513  O4'      -13.5590   26.4450   18.8080 O.3    37  G37        -0.3307
    514  C3'      -11.9640   24.7730   18.4340 C.3    37  G37         0.1860
    515  O3'      -11.7330   23.3820   18.6340 O.3    37  G37        -0.3112
    516  C2'      -12.6960   25.0300   17.1250 C.3    37  G37         0.2309
    517  O2'      -13.7280   24.0870   16.9090 O.3    37  G37        -0.2156
    518  C1'      -13.3020   26.4010   17.4150 C.3    37  G37         0.2408
    519  N1       -12.4890   29.9540   13.8840 N.ar   37  G37        -0.1709
    520  C2       -13.3820   28.9110   13.9010 C.ar   37  G37         0.2606
    521  N2       -14.1780   28.7850   12.8260 N.pl3  37  G37        -0.0859
    522  N3       -13.4880   28.0350   14.8960 N.ar   37  G37        -0.1918
    523  C4       -12.6180   28.2950   15.8950 C.ar   37  G37         0.1723
    524  C5       -11.6940   29.3090   15.9820 C.ar   37  G37         0.1748
    525  C6       -11.5910   30.2400   14.9140 C.ar   37  G37         0.3023
    526  O6       -10.8250   31.2110   14.8070 O.2    37  G37        -0.2633
    527  N7       -10.9920   29.2190   17.1820 N.ar   37  G37        -0.2173
    528  C8       -11.5070   28.1810   17.7870 C.ar   37  G37         0.1817
    529  N9       -12.5010   27.5650   17.0580 N.ar   37  G37        -0.2693
    530  OP1       -9.7770   25.8830   22.3880 O.3    37  G37        -0.4373
    531  OP2       -9.1500   27.8620   20.8800 O.co2  37  G37        -0.5172
    532  P        -10.3480   22.7410   18.1470 P.3    38  G38         0.2141
    533  C5'      -11.3110   22.1350   15.8100 C.3    38  G38         0.1812
    534  O5'      -10.3830   22.9100   16.5600 O.3    38  G38        -0.3114
    535  C4'      -11.1760   22.5450   14.3600 C.3    38  G38         0.1773
    536  O4'      -11.6500   23.9090   14.2300 O.3    38  G38        -0.3307
    537  C3'       -9.7370   22.6000   13.8710 C.3    38  G38         0.1860
    538  O3'       -9.3030   21.2950   13.4390 O.3    38  G38        -0.3112
    539  C2'       -9.8760   23.5710   12.7030 C.3    38  G38         0.2309
    540  O2'      -10.3620   22.9120   11.5530 O.3    38  G38        -0.2156
    541  C1'      -10.9000   24.5810   13.2390 C.3    38  G38         0.2408
    542  N1        -9.6220   29.3750   12.2630 N.ar   38  G38        -0.1709
    543  C2       -10.4280   28.5280   11.5430 C.ar   38  G38         0.2606
    544  N2       -10.9480   29.0210   10.4030 N.pl3  38  G38        -0.0859
    545  N3       -10.7100   27.2770   11.9150 N.ar   38  G38        -0.1918
    546  C4       -10.0930   26.9520   13.0830 C.ar   38  G38         0.1723
    547  C5        -9.2720   27.7260   13.8690 C.ar   38  G38         0.1748
    548  C6        -8.9910   29.0470   13.4630 C.ar   38  G38         0.3023
    549  O6        -8.2840   29.8700   14.0510 O.2    38  G38        -0.2633
    550  N7        -8.8400   27.0280   14.9940 N.ar   38  G38        -0.2173
    551  C8        -9.3960   25.8540   14.8610 C.ar   38  G38         0.1817
    552  N9       -10.1820   25.7450   13.7350 N.ar   38  G38        -0.2693
    553  OP1      -10.4010   21.3070   18.5070 O.2    38  G38        -0.5172
    554  OP2       -9.2110   23.5510   18.6330 O.co2  38  G38        -0.4373
    555  P         -7.8150   20.7490   13.6600 P.3    39  U39         0.2141
    556  C5'       -8.2210   19.7880   16.0900 C.3    39  U39         0.1812
    557  O5'       -7.9690   19.5380   14.7150 O.3    39  U39        -0.3114
    558  C4'       -9.1320   18.7220   16.6620 C.3    39  U39         0.1773
    559  O4'      -10.4410   18.8310   16.0470 O.3    39  U39        -0.3307
    560  C3'       -8.7280   17.2880   16.3560 C.3    39  U39         0.1860
    561  O3'       -7.7170   16.8550   17.2730 O.3    39  U39        -0.3112
    562  C2'      -10.0440   16.5610   16.6010 C.3    39  U39         0.2309
    563  O2'      -10.4030   16.4910   17.9670 O.3    39  U39        -0.2156
    564  C1'      -11.0150   17.5340   15.9640 C.3    39  U39         0.2420
    565  N1       -11.4240   17.2710   14.5590 N.ar   39  U39        -0.2534
    566  C2       -12.2480   16.1940   14.3070 C.ar   39  U39         0.3546
    567  O2       -12.6230   15.4380   15.1800 O.2    39  U39        -0.2443
    568  N3       -12.6140   16.0360   12.9930 N.ar   39  U39        -0.1530
    569  C4       -12.2400   16.8600   11.9440 C.ar   39  U39         0.2846
    570  O4       -12.6480   16.6300   10.8090 O.2    39  U39        -0.2650
    571  C5       -11.3820   17.9580   12.2920 C.ar   39  U39         0.0814
    572  C6       -11.0120   18.1310   13.5630 C.ar   39  U39         0.0870
    573  OP1       -7.0090   21.8200   14.2750 O.3    39  U39        -0.4373
    574  OP2       -7.4010   20.1050   12.3890 O.co2  39  U39        -0.5172
    575  P         -6.6340   15.7700   16.8010 P.3    40  U40         0.2141
    576  C5'       -8.1220   13.7470   17.5220 C.3    40  U40         0.1812
    577  O5'       -7.4930   14.4630   16.4710 O.3    40  U40        -0.3114
    578  C4'       -8.8460   12.5400   16.9590 C.3    40  U40         0.1773
    579  O4'       -9.9690   12.9980   16.1790 O.3    40  U40        -0.3307
    580  C3'       -8.0550   11.7210   15.9560 C.3    40  U40         0.1860
    581  O3'       -7.1500   10.8580   16.6480 O.3    40  U40        -0.3112
    582  C2'       -9.1890   10.9550   15.2850 C.3    40  U40         0.2309
    583  O2'       -9.7520    9.9820   16.1470 O.3    40  U40        -0.2156
    584  C1'      -10.2220   12.0650   15.1440 C.3    40  U40         0.2420
    585  N1       -10.1890   12.7940   13.8630 N.ar   40  U40        -0.2534
    586  C2       -10.8910   12.2620   12.8040 C.ar   40  U40         0.3546
    587  O2       -11.5100   11.2190   12.9010 O.2    40  U40        -0.2443
    588  N3       -10.8420   12.9960   11.6470 N.ar   40  U40        -0.1530
    589  C4       -10.1560   14.1840   11.4570 C.ar   40  U40         0.2846
    590  O4       -10.1910   14.7450   10.3650 O.2    40  U40        -0.2650
    591  C5        -9.4430   14.6660   12.6120 C.ar   40  U40         0.0814
    592  C6        -9.4870   13.9710   13.7540 C.ar   40  U40         0.0870
    593  OP1       -5.7290   15.5350   17.9450 O.3    40  U40        -0.4373
    594  OP2       -6.0610   16.2370   15.5160 O.co2  40  U40        -0.5172
    595  P         -5.9820   10.1170   15.8570 P.3    41  U41         0.2141
    596  C5'       -6.4070    8.6870   13.6720 C.3    41  U41         0.1812
    597  O5'       -6.8670    9.1400   14.9380 O.3    41  U41        -0.3114
    598  C4'       -7.5150    7.8450   13.0810 C.3    41  U41         0.1773
    599  O4'       -8.6760    8.6820   12.8170 O.3    41  U41        -0.3307
    600  C3'       -7.2010    7.2070   11.7390 C.3    41  U41         0.1860
    601  O3'       -6.4410    6.0200   11.9320 O.3    41  U41        -0.3112
    602  C2'       -8.6100    6.9160   11.2390 C.3    41  U41         0.2309
    603  O2'       -9.2130    5.8390   11.9270 O.3    41  U41        -0.2156
    604  C1'       -9.3140    8.2060   11.6430 C.3    41  U41         0.2420
    605  N1        -9.2980    9.2870   10.6170 N.ar   41  U41        -0.2534
    606  C2       -10.1340    9.1470    9.5280 C.ar   41  U41         0.3546
    607  O2       -10.8470    8.1670    9.3950 O.2    41  U41        -0.2443
    608  N3       -10.0880   10.1860    8.6250 N.ar   41  U41        -0.1530
    609  C4        -9.3060   11.3280    8.7150 C.ar   41  U41         0.2846
    610  O4        -9.3680   12.1950    7.8380 O.2    41  U41        -0.2650
    611  C5        -8.4630   11.3930    9.8880 C.ar   41  U41         0.0814
    612  C6        -8.4960   10.3960   10.7790 C.ar   41  U41         0.0870
    613  OP1       -5.2310    9.3390   16.8720 O.3    41  U41        -0.4373
    614  OP2       -5.2620   11.0690   14.9770 O.co2  41  U41        -0.5172
    615  P         -5.3790    5.5590   10.8340 P.3    42  C42         0.2141
    616  C5'       -7.1320    3.7860    9.9430 C.3    42  C42         0.1812
    617  O5'       -6.3310    4.9530    9.6920 O.3    42  C42        -0.3114
    618  C4'       -8.1320    3.6390    8.8150 C.3    42  C42         0.1773
    619  O4'       -9.0280    4.7740    8.7990 O.3    42  C42        -0.3307
    620  C3'       -7.5320    3.7000    7.4220 C.3    42  C42         0.1860
    621  O3'       -6.8940    2.4690    7.0820 O.3    42  C42        -0.3112
    622  C2'       -8.7870    3.9590    6.5990 C.3    42  C42         0.2309
    623  O2'       -9.6240    2.8080    6.5040 O.3    42  C42        -0.2156
    624  C1'       -9.4110    5.0540    7.4590 C.3    42  C42         0.2420
    625  N1        -8.9010    6.3960    7.0540 N.ar   42  C42        -0.2535
    626  C2        -9.5190    7.0270    5.9730 C.ar   42  C42         0.3532
    627  O2       -10.4660    6.4560    5.4080 O.2    42  C42        -0.2443
    628  N3        -9.0680    8.2440    5.5880 N.ar   42  C42        -0.1739
    629  C4        -8.0370    8.8250    6.2140 C.ar   42  C42         0.1759
    630  N4        -7.6300   10.0340    5.7810 N.pl3  42  C42        -0.1070
    631  C5        -7.3870    8.1940    7.3220 C.ar   42  C42         0.0566
    632  C6        -7.8500    6.9900    7.6980 C.ar   42  C42         0.0850
    633  OP1       -4.6040    4.4590   11.4610 O.3    42  C42        -0.4373
    634  OP2       -4.6590    6.6980   10.2330 O.co2  42  C42        -0.5172
    635  P         -5.7220    2.4930    6.0060 P.3    43  G43         0.2141
    636  C5'       -7.4180    1.8940    4.0830 C.3    43  G43         0.1812
    637  O5'       -6.4610    2.8180    4.6230 O.3    43  G43        -0.3114
    638  C4'       -8.0880    2.5070    2.8720 C.3    43  G43         0.1773
    639  O4'       -8.7760    3.7190    3.2510 O.3    43  G43        -0.3307
    640  C3'       -7.1440    3.0130    1.8050 C.3    43  G43         0.1860
    641  O3'       -6.6620    1.9300    1.0400 O.3    43  G43        -0.3112
    642  C2'       -8.0950    3.8840    1.0030 C.3    43  G43         0.2309
    643  O2'       -9.0860    3.1360    0.3150 O.3    43  G43        -0.2156
    644  C1'       -8.7230    4.6360    2.1680 C.3    43  G43         0.2408
    645  N1        -7.5180    9.3720    0.8620 N.ar   43  G43        -0.1709
    646  C2        -8.3070    8.4380    0.2200 C.ar   43  G43         0.2606
    647  N2        -8.8700    8.7930   -0.9430 N.pl3  43  G43        -0.0859
    648  N3        -8.5500    7.2170    0.6910 N.ar   43  G43        -0.1918
    649  C4        -7.9000    6.9950    1.8530 C.ar   43  G43         0.1723
    650  C5        -7.0850    7.8380    2.5680 C.ar   43  G43         0.1748
    651  C6        -6.8490    9.1470    2.0680 C.ar   43  G43         0.3023
    652  O6        -6.1480   10.0300    2.5690 O.2    43  G43        -0.2633
    653  N7        -6.6230    7.2090    3.7210 N.ar   43  G43        -0.2173
    654  C8        -7.1660    6.0140    3.6730 C.ar   43  G43         0.1817
    655  N9        -7.9500    5.8170    2.5630 N.ar   43  G43        -0.2693
    656  OP1       -5.2480    1.0900    6.0090 O.2    43  G43        -0.5172
    657  OP2       -4.7460    3.5910    6.2530 O.co2  43  G43        -0.4373
    658  P         -5.2250    1.9990    0.3660 P.3    44  G44         0.2141
    659  C5'       -6.3790    2.7910   -1.8250 C.3    44  G44         0.1812
    660  O5'       -5.4380    3.0910   -0.7910 O.3    44  G44        -0.3114
    661  C4'       -6.5340    3.9490   -2.7950 C.3    44  G44         0.1773
    662  O4'       -7.0670    5.0760   -2.0750 O.3    44  G44        -0.3307
    663  C3'       -5.2530    4.5020   -3.3960 C.3    44  G44         0.1860
    664  O3'       -4.8160    3.7050   -4.4870 O.3    44  G44        -0.3112
    665  C2'       -5.7350    5.8750   -3.8630 C.3    44  G44         0.2309
    666  O2'       -6.5580    5.8030   -5.0090 O.3    44  G44        -0.2156
    667  C1'       -6.5590    6.2760   -2.6430 C.3    44  G44         0.2408
    668  N1        -4.1450   10.5910   -1.5330 N.ar   44  G44        -0.1709
    669  C2        -4.8840   10.2490   -2.6380 C.ar   44  G44         0.2606
    670  N2        -5.0080   11.1860   -3.5980 N.pl3  44  G44        -0.0859
    671  N3        -5.4690    9.0650   -2.8000 N.ar   44  G44        -0.1918
    672  C4        -5.2550    8.2460   -1.7540 C.ar   44  G44         0.1723
    673  C5        -4.5290    8.4820   -0.6110 C.ar   44  G44         0.1748
    674  C6        -3.9080    9.7480   -0.4430 C.ar   44  G44         0.3023
    675  O6        -3.2180   10.1450    0.5120 O.2    44  G44        -0.2633
    676  N7        -4.5460    7.3590    0.2110 N.ar   44  G44        -0.2173
    677  C8        -5.2700    6.4800   -0.4440 C.ar   44  G44         0.1817
    678  N9        -5.7400    6.9620   -1.6460 N.ar   44  G44        -0.2693
    679  OP1       -5.0690    0.6680   -0.2780 O.2    44  G44        -0.5172
    680  OP2       -4.2090    2.5080    1.3120 O.co2  44  G44        -0.4373
    681  P         -3.2580    3.6160   -4.8230 P.3    45  A45         0.2141
    682  C5'       -3.4350    5.4860   -6.6060 C.3    45  A45         0.1812
    683  O5'       -2.8650    5.0720   -5.3830 O.3    45  A45        -0.3114
    684  C4'       -3.1760    6.9590   -6.9070 C.3    45  A45         0.1773
    685  O4'       -3.7140    7.7900   -5.8470 O.3    45  A45        -0.3307
    686  C3'       -1.7320    7.4220   -7.0220 C.3    45  A45         0.1860
    687  O3'       -1.1600    7.0390   -8.2710 O.3    45  A45        -0.3112
    688  C2'       -1.9430    8.9330   -6.9500 C.3    45  A45         0.2309
    689  O2'       -2.5300    9.4650   -8.1310 O.3    45  A45        -0.2156
    690  C1'       -2.9430    8.9860   -5.7970 C.3    45  A45         0.2408
    691  N1        -0.4310   11.9720   -2.4760 N.ar   45  A45        -0.2040
    692  C2        -0.8980   12.2000   -3.7120 C.ar   45  A45         0.2016
    693  N3        -1.5510   11.3650   -4.5300 N.ar   45  A45        -0.2048
    694  C4        -1.7030   10.1650   -3.9410 C.ar   45  A45         0.1692
    695  C5        -1.2790    9.7870   -2.6840 C.ar   45  A45         0.1518
    696  C6        -0.6080   10.7590   -1.9140 C.ar   45  A45         0.1919
    697  N6        -0.1440   10.5350   -0.6780 N.pl3  45  A45        -0.1054
    698  N7        -1.6200    8.4660   -2.4390 N.ar   45  A45        -0.2193
    699  C8        -2.2390    8.0820   -3.5240 C.ar   45  A45         0.1816
    700  N9        -2.3200    9.0610   -4.4800 N.ar   45  A45        -0.2693
    701  OP1       -3.1720    2.6140   -5.9080 O.2    45  A45        -0.5172
    702  OP2       -2.4730    3.4520   -3.5820 O.co2  45  A45        -0.4373
    703  P          0.3850    6.6200   -8.3570 P.3    46  G46         0.2141
    704  C5'        1.0240    9.1850   -8.7010 C.3    46  G46         0.1812
    705  O5'        1.1640    7.9640   -7.9780 O.3    46  G46        -0.3114
    706  C4'        1.7710   10.2960   -7.9760 C.3    46  G46         0.1773
    707  O4'        1.1290   10.5400   -6.7010 O.3    46  G46        -0.3307
    708  C3'        3.2240    9.9970   -7.6170 C.3    46  G46         0.1860
    709  O3'        4.0860   10.2610   -8.7270 O.3    46  G46        -0.3112
    710  C2'        3.4660   10.9800   -6.4730 C.3    46  G46         0.2309
    711  O2'        3.6930   12.3010   -6.9260 O.3    46  G46        -0.2156
    712  C1'        2.1190   10.9180   -5.7550 C.3    46  G46         0.2408
    713  N1         2.9540   10.0980   -0.8310 N.ar   46  G46        -0.1709
    714  C2         3.1440   11.2310   -1.5780 C.ar   46  G46         0.2606
    715  N2         3.6130   12.3100   -0.9120 N.pl3  46  G46        -0.0859
    716  N3         2.8890   11.3080   -2.8790 N.ar   46  G46        -0.1918
    717  C4         2.4170   10.1450   -3.3810 C.ar   46  G46         0.1723
    718  C5         2.1910    8.9550   -2.7250 C.ar   46  G46         0.1748
    719  C6         2.4730    8.8840   -1.3360 C.ar   46  G46         0.3023
    720  O6         2.3250    7.9260   -0.5660 O.2    46  G46        -0.2633
    721  N7         1.7000    8.0000   -3.6150 N.ar   46  G46        -0.2173
    722  C8         1.6330    8.6220   -4.7660 C.ar   46  G46         0.1817
    723  N9         2.0650    9.9280   -4.6880 N.ar   46  G46        -0.2693
    724  OP1        0.6330    6.3120   -9.7910 O.2    46  G46        -0.5172
    725  OP2        0.6720    5.6030   -7.3170 O.co2  46  G46        -0.4373
    726  P          4.8740    9.0710   -9.4640 P.3    47  C47         0.2141
    727  C5'        7.1580   10.1550   -8.7220 C.3    47  C47         0.1812
    728  O5'        6.2590    9.0490   -8.6700 O.3    47  C47        -0.3114
    729  C4'        8.4500    9.8160   -7.9980 C.3    47  C47         0.1773
    730  O4'        8.1660    9.6180   -6.5870 O.3    47  C47        -0.3307
    731  C3'        9.1470    8.5410   -8.4560 C.3    47  C47         0.1860
    732  O3'       10.5470    8.6830   -8.2700 O.3    47  C47        -0.3112
    733  C2'        8.5710    7.4980   -7.5040 C.3    47  C47         0.2309
    734  O2'        9.3910    6.3550   -7.3440 O.3    47  C47        -0.2156
    735  C1'        8.5030    8.2960   -6.2090 C.3    47  C47         0.2420
    736  N1         7.4430    7.7660   -5.3250 N.ar   47  C47        -0.2535
    737  C2         7.7870    7.1660   -4.1080 C.ar   47  C47         0.3532
    738  O2         8.9780    7.1130   -3.7770 O.2    47  C47        -0.2443
    739  N3         6.7960    6.6750   -3.3190 N.ar   47  C47        -0.1739
    740  C4         5.5240    6.7600   -3.7060 C.ar   47  C47         0.1759
    741  N4         4.5900    6.2570   -2.8850 N.pl3  47  C47        -0.1070
    742  C5         5.1550    7.3610   -4.9470 C.ar   47  C47         0.0566
    743  C6         6.1390    7.8390   -5.7230 C.ar   47  C47         0.0850
    744  OP1        5.1230    9.5520  -10.8440 O.2    47  C47        -0.5172
    745  OP2        4.2310    7.7560   -9.2550 O.co2  47  C47        -0.4373
    746  P         11.4950    8.9670   -9.5270 P.3    48  U48         0.2141
    747  C5'       11.9450    6.4540   -9.6120 C.3    48  U48         0.1812
    748  O5'       11.4430    7.5670  -10.2840 O.3    48  U48        -0.3114
    749  C4'       11.3450    5.2140  -10.2210 C.3    48  U48         0.1773
    750  O4'       11.8690    5.0530  -11.5650 O.3    48  U48        -0.3307
    751  C3'       11.7280    3.9510   -9.4800 C.3    48  U48         0.1860
    752  O3'       10.7080    2.9950   -9.6760 O.3    48  U48        -0.3112
    753  C2'       13.0230    3.5920  -10.1980 C.3    48  U48         0.2309
    754  O2'       13.4140    2.2490   -9.9820 O.3    48  U48        -0.2156
    755  C1'       12.5670    3.8280  -11.6330 C.3    48  U48         0.2420
    756  N1        13.6600    3.9760  -12.6420 N.ar   48  U48        -0.2534
    757  C2        13.4430    3.5080  -13.9270 C.ar   48  U48         0.3546
    758  O2        12.4000    2.9750  -14.2770 O.2    48  U48        -0.2443
    759  N3        14.4930    3.6880  -14.7970 N.ar   48  U48        -0.1530
    760  C4        15.7140    4.2790  -14.5120 C.ar   48  U48         0.2846
    761  O4        16.5610    4.3690  -15.3960 O.2    48  U48        -0.2650
    762  C5        15.8650    4.7420  -13.1510 C.ar   48  U48         0.0814
    763  C6        14.8540    4.5790  -12.2850 C.ar   48  U48         0.0870
    764  OP1       12.8740    9.2130   -9.0470 O.3    48  U48        -0.4373
    765  OP2       10.8320    9.9700  -10.3870 O.co2  48  U48        -0.5172
    766  P          9.3650    3.0470   -8.8040 P.3    49  U49         0.2141
    767  C5'       10.5630    1.8700   -6.7920 C.3    49  U49         0.1812
    768  O5'        9.9240    3.0410   -7.3050 O.3    49  U49        -0.3114
    769  C4'       10.8540    2.0820   -5.3210 C.3    49  U49         0.1773
    770  O4'       11.8690    3.1080   -5.2030 O.3    49  U49        -0.3307
    771  C3'        9.6380    2.5870   -4.5530 C.3    49  U49         0.1860
    772  O3'        9.4730    1.8330   -3.3650 O.3    49  U49        -0.3112
    773  C2'        9.9720    4.0570   -4.2890 C.3    49  U49         0.2309
    774  O2'        9.4070    4.5660   -3.0930 O.3    49  U49        -0.2156
    775  C1'       11.4830    3.9610   -4.1470 C.3    49  U49         0.2420
    776  N1        12.2130    5.2420   -4.3370 N.ar   49  U49        -0.2534
    777  C2        13.2230    5.5730   -3.4560 C.ar   49  U49         0.3546
    778  O2        13.5280    4.8650   -2.5070 O.2    49  U49        -0.2443
    779  N3        13.8550    6.7680   -3.7130 N.ar   49  U49        -0.1530
    780  C4        13.5790    7.6380   -4.7570 C.ar   49  U49         0.2846
    781  O4        14.2150    8.6800   -4.8710 O.2    49  U49        -0.2650
    782  C5        12.5170    7.2150   -5.6350 C.ar   49  U49         0.0814
    783  C6        11.8900    6.0540   -5.4050 C.ar   49  U49         0.0870
    784  OP1        8.6320    1.7830   -9.0530 O.2    49  U49        -0.5172
    785  OP2        8.6860    4.3510   -9.0300 O.co2  49  U49        -0.4373
    786  P          8.5170    0.5350   -3.3640 P.3    50  C50         0.2141
    787  C5'        8.1550    0.8860   -0.8100 C.3    50  C50         0.1812
    788  O5'        8.6460    0.0490   -1.8410 O.3    50  C50        -0.3114
    789  C4'        8.9850    0.6470    0.4340 C.3    50  C50         0.1773
    790  O4'       10.3700    1.0090    0.1720 O.3    50  C50        -0.3307
    791  C3'        8.5770    1.5140    1.6160 C.3    50  C50         0.1860
    792  O3'        7.5120    0.8830    2.3250 O.3    50  C50        -0.3112
    793  C2'        9.8710    1.5180    2.4230 C.3    50  C50         0.2309
    794  O2'       10.0960    0.2880    3.0920 O.3    50  C50        -0.2156
    795  C1'       10.9010    1.6670    1.3110 C.3    50  C50         0.2420
    796  N1        11.1620    3.1150    1.0270 N.ar   50  C50        -0.2535
    797  C2        11.8260    3.8460    2.0160 C.ar   50  C50         0.3532
    798  O2        12.1780    3.2750    3.0550 O.2    50  C50        -0.2443
    799  N3        12.0780    5.1630    1.8170 N.ar   50  C50        -0.1739
    800  C4        11.7010    5.7360    0.6750 C.ar   50  C50         0.1759
    801  N4        11.9920    7.0340    0.5220 N.pl3  50  C50        -0.1070
    802  C5        11.0140    5.0170   -0.3500 C.ar   50  C50         0.0566
    803  C6        10.7580    3.7070   -0.1400 C.ar   50  C50         0.0850
    804  OP1        9.1500   -0.5020   -4.2160 O.2    50  C50        -0.5172
    805  OP2        7.1370    0.9820   -3.6110 O.co2  50  C50        -0.4373
    806  P          6.3050    1.7740    2.8760 P.3    51  C51         0.2141
    807  C5'        7.6030    2.0880    5.1540 C.3    51  C51         0.1812
    808  O5'        7.0180    2.6860    3.9850 O.3    51  C51        -0.3114
    809  C4'        8.3520    3.1580    5.9280 C.3    51  C51         0.1773
    810  O4'        9.4430    3.6570    5.1220 O.3    51  C51        -0.3307
    811  C3'        7.5390    4.4000    6.2600 C.3    51  C51         0.1860
    812  O3'        6.8720    4.2120    7.4870 O.3    51  C51        -0.3112
    813  C2'        8.6180    5.4560    6.4230 C.3    51  C51         0.2309
    814  O2'        9.2720    5.3570    7.6700 O.3    51  C51        -0.2156
    815  C1'        9.5740    5.0600    5.3040 C.3    51  C51         0.2420
    816  N1         9.2980    5.7690    4.0140 N.ar   51  C51        -0.2535
    817  C2         9.6630    7.1120    3.9140 C.ar   51  C51         0.3532
    818  O2        10.1830    7.6440    4.9000 O.2    51  C51        -0.2443
    819  N3         9.4330    7.7800    2.7540 N.ar   51  C51        -0.1739
    820  C4         8.8770    7.1410    1.7210 C.ar   51  C51         0.1759
    821  N4         8.6650    7.8280    0.5970 N.pl3  51  C51        -0.1070
    822  C5         8.4850    5.7670    1.8040 C.ar   51  C51         0.0566
    823  C6         8.7160    5.1270    2.9550 C.ar   51  C51         0.0850
    824  OP1        5.3590    0.8400    3.4900 O.3    51  C51        -0.4373
    825  OP2        5.8130    2.6780    1.8110 O.co2  51  C51        -0.5172
    826  P          5.3980    4.7520    7.6640 P.3    52  A52         0.2141
    827  C5'        6.2290    7.0680    8.5420 C.3    52  A52         0.1812
    828  O5'        5.5200    6.3430    7.5360 O.3    52  A52        -0.3114
    829  C4'        6.4880    8.4860    8.0620 C.3    52  A52         0.1773
    830  O4'        7.2930    8.4280    6.8630 O.3    52  A52        -0.3307
    831  C3'        5.2390    9.2530    7.6610 C.3    52  A52         0.1860
    832  O3'        4.6740    9.8380    8.8300 O.3    52  A52        -0.3112
    833  C2'        5.8260   10.3000    6.7260 C.3    52  A52         0.2309
    834  O2'        6.3940   11.3860    7.4450 O.3    52  A52        -0.2156
    835  C1'        6.9020    9.4850    6.0040 C.3    52  A52         0.2408
    836  N1         6.2920   10.3220    1.0100 N.ar   52  A52        -0.2040
    837  C2         6.7250   11.0880    2.0160 C.ar   52  A52         0.2016
    838  N3         6.8480   10.7970    3.3030 N.ar   52  A52        -0.2048
    839  C4         6.4730    9.5290    3.5260 C.ar   52  A52         0.1692
    840  C5         6.0090    8.6070    2.5990 C.ar   52  A52         0.1518
    841  C6         5.9260    9.0460    1.2580 C.ar   52  A52         0.1919
    842  N6         5.4900    8.2750    0.2470 N.pl3  52  A52        -0.1054
    843  N7         5.7200    7.3980    3.2170 N.ar   52  A52        -0.2193
    844  C8         6.0170    7.6140    4.4840 C.ar   52  A52         0.1816
    845  N9         6.4740    8.8870    4.7320 N.ar   52  A52        -0.2693
    846  OP1        4.9890    4.3850    9.0340 O.3    52  A52        -0.4373
    847  OP2        4.5470    4.3180    6.5290 O.co2  52  A52        -0.5172
    848  P          3.1060   10.0520    8.9590 P.3    53  C53         0.2141
    849  C5'        3.2220   12.5370    8.1360 C.3    53  C53         0.1812
    850  O5'        2.7970   11.2040    7.8980 O.3    53  C53        -0.3114
    851  C4'        3.0170   13.3550    6.8760 C.3    53  C53         0.1773
    852  O4'        3.8310   12.7890    5.8130 O.3    53  C53        -0.3307
    853  C3'        1.6050   13.3960    6.3180 C.3    53  C53         0.1860
    854  O3'        0.8930   14.4730    6.9130 O.3    53  C53        -0.3112
    855  C2'        1.8860   13.6990    4.8440 C.3    53  C53         0.2309
    856  O2'        2.1070   15.0750    4.6350 O.3    53  C53        -0.2156
    857  C1'        3.1900   12.9700    4.5690 C.3    53  C53         0.2420
    858  N1         2.9750   11.6290    3.9710 N.ar   53  C53        -0.2535
    859  C2         3.2420   11.4570    2.6110 C.ar   53  C53         0.3532
    860  O2         3.6560   12.4330    1.9640 O.2    53  C53        -0.2443
    861  N3         3.0430   10.2260    2.0680 N.ar   53  C53        -0.1739
    862  C4         2.5920    9.2200    2.8360 C.ar   53  C53         0.1759
    863  N4         2.4000    8.0040    2.2800 N.pl3  53  C53        -0.1070
    864  C5         2.3210    9.3910    4.2300 C.ar   53  C53         0.0566
    865  C6         2.5200   10.6040    4.7510 C.ar   53  C53         0.0850
    866  OP1        2.8320   10.5370   10.3360 O.3    53  C53        -0.4373
    867  OP2        2.4140    8.8350    8.4480 O.co2  53  C53        -0.5172
    868  P         -0.4180   14.2550    7.8020 P.3    54  C54         0.2141
    869  C5'        0.3090   15.2890   10.0790 C.3    54  C54         0.1812
    870  O5'        0.1660   14.1360    9.2920 O.3    54  C54        -0.3114
    871  C4'        1.5850   15.1990   10.8900 C.3    54  C54         0.1773
    872  O4'        2.7400   15.1130   10.0160 O.3    54  C54        -0.3307
    873  C3'        1.8020   16.4370   11.7510 C.3    54  C54         0.1860
    874  O3'        1.1540   16.2090   12.9940 O.3    54  C54        -0.3112
    875  C2'        3.3110   16.4690   11.8650 C.3    54  C54         0.2309
    876  O2'        3.7820   15.4830   12.7700 O.3    54  C54        -0.2156
    877  C1'        3.7140   16.0470   10.4510 C.3    54  C54         0.2420
    878  N1         3.7840   17.1450    9.4390 N.ar   54  C54        -0.2535
    879  C2         4.7880   18.1070    9.5650 C.ar   54  C54         0.3532
    880  O2         5.5700   18.0060   10.5160 O.2    54  C54        -0.2443
    881  N3         4.8760   19.0990    8.6390 N.ar   54  C54        -0.1739
    882  C4         3.9940   19.1610    7.6340 C.ar   54  C54         0.1759
    883  N4         4.1100   20.1650    6.7520 N.pl3  54  C54        -0.1070
    884  C5         2.9530   18.1910    7.4880 C.ar   54  C54         0.0566
    885  C6         2.8880   17.2110    8.4050 C.ar   54  C54         0.0850
    886  OP1       -0.9900   12.9180    7.5060 O.2    54  C54        -0.5172
    887  OP2       -1.2440   15.4770    7.7100 O.co2  54  C54        -0.4373
    888  P          0.5510   17.4230   13.8420 P.3    55  A55         0.2141
    889  C5'        2.7580   17.7410   15.2690 C.3    55  A55         0.1812
    890  O5'        1.8300   18.2620   14.3150 O.3    55  A55        -0.3114
    891  C4'        3.8890   18.7340   15.4350 C.3    55  A55         0.1773
    892  O4'        4.5740   18.8710   14.1690 O.3    55  A55        -0.3307
    893  C3'        3.4380   20.1530   15.7490 C.3    55  A55         0.1860
    894  O3'        3.2390   20.2990   17.1400 O.3    55  A55        -0.3112
    895  C2'        4.6590   20.9410   15.3280 C.3    55  A55         0.2309
    896  O2'        5.7290   20.7270   16.2300 O.3    55  A55        -0.2156
    897  C1'        5.0130   20.2240   14.0370 C.3    55  A55         0.2408
    898  N1         5.5350   23.5940   10.1630 N.ar   55  A55        -0.2040
    899  C2         6.2360   23.4300   11.2950 C.ar   55  A55         0.2016
    900  N3         6.0420   22.5410   12.2780 N.ar   55  A55        -0.2048
    901  C4         4.9930   21.7540   11.9970 C.ar   55  A55         0.1692
    902  C5         4.1800   21.8110   10.8840 C.ar   55  A55         0.1518
    903  C6         4.4830   22.7840    9.9180 C.ar   55  A55         0.1919
    904  N6         3.7700   22.9250    8.7960 N.pl3  55  A55        -0.1054
    905  N7         3.1870   20.8420   10.9360 N.ar   55  A55        -0.2193
    906  C8         3.4180   20.2230   12.0730 C.ar   55  A55         0.1816
    907  N9         4.4800   20.7270   12.7690 N.ar   55  A55        -0.2693
    908  OP1       -0.1250   16.7850   15.0120 O.3    55  A55        -0.4373
    909  OP2       -0.2140   18.3110   12.9530 O.co2  55  A55        -0.5172
    910  P          2.1700   21.3550   17.6630 P.3    56  A56         0.2141
    911  C5'        4.0320   23.1150   18.2530 C.3    56  A56         0.1812
    912  O5'        2.9320   22.7510   17.4420 O.3    56  A56        -0.3114
    913  C4'        4.6890   24.3620   17.6870 C.3    56  A56         0.1773
    914  O4'        5.2300   24.0550   16.3790 O.3    56  A56        -0.3307
    915  C3'        3.7800   25.5540   17.4270 C.3    56  A56         0.1860
    916  O3'        3.5470   26.3050   18.6170 O.3    56  A56        -0.3112
    917  C2'        4.6430   26.3350   16.4470 C.3    56  A56         0.2309
    918  O2'        5.7680   26.9360   17.0590 O.3    56  A56        -0.2156
    919  C1'        5.1190   25.2000   15.5540 C.3    56  A56         0.2408
    920  N1         3.9070   26.4470   10.7640 N.ar   56  A56        -0.2040
    921  C2         4.8870   26.8550   11.5770 C.ar   56  A56         0.2016
    922  N3         5.1400   26.4720   12.8320 N.ar   56  A56        -0.2048
    923  C4         4.2360   25.5670   13.2380 C.ar   56  A56         0.1692
    924  C5         3.1800   25.0480   12.5160 C.ar   56  A56         0.1518
    925  C6         3.0160   25.5270   11.2010 C.ar   56  A56         0.1919
    926  N6         2.0360   25.1100   10.3910 N.pl3  56  A56        -0.1054
    927  N7         2.4660   24.1350   13.2770 N.ar   56  A56        -0.2193
    928  C8         3.1030   24.1110   14.4280 C.ar   56  A56         0.1816
    929  N9         4.1880   24.9520   14.4610 N.ar   56  A56        -0.2693
    930  OP1        1.9650   21.0710   19.1140 O.3    56  A56        -0.4373
    931  OP2        0.9890   21.3890   16.7690 O.co2  56  A56        -0.5172
    932  P          2.2020   27.1630   18.7780 P.3    57  G57         0.2141
    933  C5'        3.3650   29.3480   17.9100 C.3    57  G57         0.1812
    934  O5'        2.3880   28.3470   17.7080 O.3    57  G57        -0.3114
    935  C4'        3.5590   30.2190   16.6770 C.3    57  G57         0.1773
    936  O4'        3.9410   29.4030   15.5350 O.3    57  G57        -0.3307
    937  C3'        2.3420   30.9860   16.1760 C.3    57  G57         0.1860
    938  O3'        2.1540   32.1770   16.9180 O.3    57  G57        -0.3112
    939  C2'        2.8250   31.3220   14.7730 C.3    57  G57         0.2309
    940  O2'        3.8360   32.3140   14.7930 O.3    57  G57        -0.2156
    941  C1'        3.4330   29.9890   14.3520 C.3    57  G57         0.2408
    942  N1         0.9680   28.8680   10.0730 N.ar   57  G57        -0.1709
    943  C2         1.9150   29.8430   10.3090 C.ar   57  G57         0.2606
    944  N2         2.2570   30.6350    9.2700 N.pl3  57  G57        -0.0859
    945  N3         2.4970   30.0350   11.4870 N.ar   57  G57        -0.1918
    946  C4         2.0430   29.1620   12.4250 C.ar   57  G57         0.1723
    947  C5         1.1080   28.1650   12.2930 C.ar   57  G57         0.1748
    948  C6         0.4950   27.9660   11.0330 C.ar   57  G57         0.3023
    949  O6        -0.3650   27.1310   10.7340 O.2    57  G57        -0.2633
    950  N7         0.9200   27.4970   13.5000 N.ar   57  G57        -0.2173
    951  C8         1.7360   28.0930   14.3250 C.ar   57  G57         0.1817
    952  N9         2.4490   29.1110   13.7360 N.ar   57  G57        -0.2693
    953  OP1        2.2430   27.7350   20.1410 O.3    57  G57        -0.4373
    954  OP2        1.0150   26.3910   18.3530 O.co2  57  G57        -0.5172
    955  P          0.7160   32.8710   16.9990 P.3    58  A58         0.2141
    956  C5'        1.2100   34.6070   15.0670 C.3    58  A58         0.1812
    957  O5'        0.4670   33.4940   15.5450 O.3    58  A58        -0.3114
    958  C4'        1.0040   34.8070   13.5760 C.3    58  A58         0.1773
    959  O4'        1.4040   33.5900   12.8860 O.3    58  A58        -0.3307
    960  C3'       -0.4290   35.0340   13.0920 C.3    58  A58         0.1860
    961  O3'       -0.9000   36.3880   13.2380 O.3    58  A58        -0.3112
    962  C2'       -0.2530   34.6770   11.6230 C.3    58  A58         0.2309
    963  O2'        0.4960   35.6430   10.9090 O.3    58  A58        -0.2156
    964  C1'        0.5590   33.3960   11.7660 C.3    58  A58         0.2408
    965  N1        -2.5020   30.0000    9.4700 N.ar   58  A58        -0.2040
    966  C2        -1.7960   31.0380    9.0040 C.ar   58  A58         0.2016
    967  N3        -1.0130   31.8820    9.6780 N.ar   58  A58        -0.2048
    968  C4        -0.9970   31.5790   10.9840 C.ar   58  A58         0.1692
    969  C5        -1.6680   30.5520   11.6150 C.ar   58  A58         0.1518
    970  C6        -2.4630   29.7220   10.7890 C.ar   58  A58         0.1919
    971  N6        -3.1800   28.6880   11.2350 N.pl3  58  A58        -0.1054
    972  N7        -1.4000   30.5630   12.9790 N.ar   58  A58        -0.2193
    973  C8        -0.5860   31.5790   13.1360 C.ar   58  A58         0.1816
    974  N9        -0.2990   32.2320   11.9720 N.ar   58  A58        -0.2693
    975  OP1        0.8520   33.9710   17.9790 O.3    58  A58        -0.4373
    976  OP2       -0.3140   31.8340   17.2110 O.co2  58  A58        -0.5172
    977  P         -2.4760   36.6470   13.4550 P.3    59  G59         0.2141
    978  C5'       -2.9130   37.1230   10.8920 C.3    59  G59         0.1812
    979  O5'       -3.1720   36.3410   12.0420 O.3    59  G59        -0.3114
    980  C4'       -3.3200   36.3440    9.6560 C.3    59  G59         0.1773
    981  O4'       -2.9270   34.9630    9.8320 O.3    59  G59        -0.3307
    982  C3'       -4.8100   36.2280    9.3740 C.3    59  G59         0.1860
    983  O3'       -5.2630   37.4000    8.7290 O.3    59  G59        -0.3112
    984  C2'       -4.8070   35.0630    8.3940 C.3    59  G59         0.2309
    985  O2'       -4.3020   35.4230    7.1250 O.3    59  G59        -0.2156
    986  C1'       -3.7880   34.1510    9.0540 C.3    59  G59         0.2408
    987  N1        -6.6580   29.9360    9.2560 N.ar   59  G59        -0.1709
    988  C2        -6.3520   30.7240    8.1690 C.ar   59  G59         0.2606
    989  N2        -6.8740   30.3440    6.9880 N.pl3  59  G59        -0.0859
    990  N3        -5.5970   31.8190    8.2370 N.ar   59  G59        -0.1918
    991  C4        -5.1570   32.0600    9.5010 C.ar   59  G59         0.1723
    992  C5        -5.4060   31.3350   10.6450 C.ar   59  G59         0.1748
    993  C6        -6.2120   30.1750   10.5610 C.ar   59  G59         0.3023
    994  O6        -6.5340   29.4070   11.4730 O.2    59  G59        -0.2633
    995  N7        -4.7740   31.9160   11.7420 N.ar   59  G59        -0.2173
    996  C8        -4.1570   32.9560   11.2540 C.ar   59  G59         0.1817
    997  N9        -4.3520   33.1080    9.9030 N.ar   59  G59        -0.2693
    998  OP1       -2.6320   38.0820   13.7820 O.2    59  G59        -0.5172
    999  OP2       -2.9930   35.6010   14.3680 O.co2  59  G59        -0.4373
   1000  P         -6.7520   37.9440    8.9540 P.3    60  C60         0.2141
   1001  C5'       -7.6630   36.6630    6.8180 C.3    60  C60         0.1812
   1002  O5'       -7.6960   36.8850    8.2260 O.3    60  C60        -0.3114
   1003  C4'       -8.4430   35.3990    6.5090 C.3    60  C60         0.1773
   1004  O4'       -7.8140   34.2900    7.1940 O.3    60  C60        -0.3307
   1005  C3'       -9.8600   35.3830    7.0610 C.3    60  C60         0.1860
   1006  O3'      -10.7550   35.9880    6.1540 O.3    60  C60        -0.3112
   1007  C2'      -10.1500   33.8950    7.1630 C.3    60  C60         0.2309
   1008  O2'      -10.4100   33.3200    5.9000 O.3    60  C60        -0.2156
   1009  C1'       -8.8070   33.3920    7.6630 C.3    60  C60         0.2420
   1010  N1        -8.6250   33.2250    9.1380 N.ar   60  C60        -0.2535
   1011  C2        -9.1410   32.0770    9.7490 C.ar   60  C60         0.3532
   1012  O2        -9.7640   31.2740    9.0480 O.2    60  C60        -0.2443
   1013  N3        -8.9600   31.8980   11.0810 N.ar   60  C60        -0.1739
   1014  C4        -8.2720   32.7950   11.7880 C.ar   60  C60         0.1759
   1015  N4        -8.1090   32.5710   13.0970 N.pl3  60  C60        -0.1070
   1016  C5        -7.7390   33.9780   11.1830 C.ar   60  C60         0.0566
   1017  C6        -7.9310   34.1430    9.8690 C.ar   60  C60         0.0850
   1018  OP1       -6.8130   39.2260    8.2040 O.2    60  C60        -0.5172
   1019  OP2       -7.0550   37.9560   10.4000 O.co2  60  C60        -0.4373
   1020  P        -12.0440   36.7180    6.7450 P.3    61  C61         0.2141
   1021  C5'      -13.4750   34.6840    5.9230 C.3    61  C61         0.1812
   1022  O5'      -13.0670   35.5170    6.9900 O.3    61  C61        -0.3114
   1023  C4'      -14.1370   33.4370    6.4810 C.3    61  C61         0.1773
   1024  O4'      -13.1850   32.6680    7.2540 O.3    61  C61        -0.3307
   1025  C3'      -15.2690   33.7000    7.4590 C.3    61  C61         0.1860
   1026  O3'      -16.4210   33.9130    6.7010 O.3    61  C61        -0.3112
   1027  C2'      -15.3480   32.3520    8.1610 C.3    61  C61         0.2309
   1028  O2'      -15.9200   31.3690    7.3190 O.3    61  C61        -0.2156
   1029  C1'      -13.8720   32.0320    8.3170 C.3    61  C61         0.2420
   1030  N1       -13.2080   32.4430    9.5760 N.ar   61  C61        -0.2535
   1031  C2       -13.3010   31.5880   10.6810 C.ar   61  C61         0.3532
   1032  O2       -13.9730   30.5610   10.5720 O.2    61  C61        -0.2443
   1033  N3       -12.6720   31.9190   11.8280 N.ar   61  C61        -0.1739
   1034  C4       -11.9740   33.0580   11.8890 C.ar   61  C61         0.1759
   1035  N4       -11.3610   33.3610   13.0370 N.pl3  61  C61        -0.1070
   1036  C5       -11.8650   33.9480   10.7710 C.ar   61  C61         0.0566
   1037  C6       -12.4860   33.6010    9.6370 C.ar   61  C61         0.0850
   1038  OP1      -12.5880   37.5720    5.6630 O.2    61  C61        -0.5172
   1039  OP2      -11.6810   37.2990    8.0590 O.co2  61  C61        -0.4373
   1040  P        -17.3460   35.1910    6.9440 P.3    62  U62         0.2141
   1041  C5'      -19.4470   35.2760    8.4930 C.3    62  U62         0.1812
   1042  O5'      -18.1370   34.7870    8.2630 O.3    62  U62        -0.3114
   1043  C4'      -19.5100   35.5760    9.9720 C.3    62  U62         0.1773
   1044  O4'      -18.5150   36.5670   10.2980 O.3    62  U62        -0.3307
   1045  C3'      -20.8000   36.1600   10.5200 C.3    62  U62         0.1860
   1046  O3'      -21.6070   35.0610   10.9270 O.3    62  U62        -0.3112
   1047  C2'      -20.3210   37.0070   11.7100 C.3    62  U62         0.2309
   1048  O2'      -20.7660   36.4800   12.9480 O.3    62  U62        -0.2156
   1049  C1'      -18.7940   36.8930   11.6370 C.3    62  U62         0.2420
   1050  N1       -18.0160   38.1140   11.9690 N.ar   62  U62        -0.2534
   1051  C2       -17.2150   38.0970   13.0900 C.ar   62  U62         0.3546
   1052  O2       -17.1240   37.1280   13.8270 O.2    62  U62        -0.2443
   1053  N3       -16.5260   39.2650   13.3210 N.ar   62  U62        -0.1530
   1054  C4       -16.5550   40.4200   12.5580 C.ar   62  U62         0.2846
   1055  O4       -15.8780   41.3920   12.8950 O.2    62  U62        -0.2650
   1056  C5       -17.4150   40.3530   11.4000 C.ar   62  U62         0.0814
   1057  C6       -18.0960   39.2250   11.1530 C.ar   62  U62         0.0870
   1058  OP1      -18.3160   35.1970    5.8230 O.2    62  U62        -0.5172
   1059  OP2      -16.4850   36.3510    7.2530 O.co2  62  U62        -0.4373
   1060  P        -22.9500   34.7000   10.1330 P.3    63  U63         0.2141
   1061  C5'      -22.6490   32.1050   10.1230 C.3    63  U63         0.1812
   1062  O5'      -23.2910   33.2360   10.6800 O.3    63  U63        -0.3114
   1063  C4'      -22.3870   31.1060   11.2300 C.3    63  U63         0.1773
   1064  O4'      -21.1790   31.5030   11.9320 O.3    63  U63        -0.3307
   1065  C3'      -23.4860   31.0300   12.2920 C.3    63  U63         0.1860
   1066  O3'      -23.7260   29.6710   12.6690 O.3    63  U63        -0.3112
   1067  C2'      -22.8800   31.7950   13.4670 C.3    63  U63         0.2309
   1068  O2'      -23.3690   31.3400   14.7120 O.3    63  U63        -0.2156
   1069  C1'      -21.4300   31.3610   13.3080 C.3    63  U63         0.2420
   1070  N1       -20.4040   32.0980   14.1220 N.ar   63  U63        -0.2534
   1071  C2       -20.0340   31.5240   15.3190 C.ar   63  U63         0.3546
   1072  O2       -20.5060   30.4860   15.7410 O.2    63  U63        -0.2443
   1073  N3       -19.0910   32.2090   16.0320 N.ar   63  U63        -0.1530
   1074  C4       -18.4850   33.3900   15.6780 C.ar   63  U63         0.2846
   1075  O4       -17.6570   33.8620   16.4540 O.2    63  U63        -0.2650
   1076  C5       -18.9100   33.9380   14.4100 C.ar   63  U63         0.0814
   1077  C6       -19.8350   33.2800   13.6890 C.ar   63  U63         0.0870
   1078  OP1      -22.6660   34.6140    8.6780 O.2    63  U63        -0.5172
   1079  OP2      -23.9950   35.6260   10.6390 O.co2  63  U63        -0.4373
   1080  P        -24.8940   28.7870   12.0140 P.3    64  A64         0.2141
   1081  C5'      -23.7500   27.6950   10.0440 C.3    64  A64         0.1812
   1082  O5'      -24.5300   28.7500   10.4700 O.3    64  A64        -0.3114
   1083  C4'      -23.4320   27.8130    8.5740 C.3    64  A64         0.1773
   1084  O4'      -22.6030   28.9780    8.3070 O.3    64  A64        -0.3307
   1085  C3'      -22.6340   26.5920    8.1700 C.3    64  A64         0.1860
   1086  O3'      -23.4810   25.7290    7.4080 O.3    64  A64        -0.3112
   1087  C2'      -21.4290   27.1580    7.4210 C.3    64  A64         0.2309
   1088  O2'      -21.6940   27.2860    6.0380 O.3    64  A64        -0.2156
   1089  C1'      -21.2750   28.5470    8.0490 C.3    64  A64         0.2408
   1090  N1       -17.9670   31.4570   10.7190 N.ar   64  A64        -0.2040
   1091  C2       -18.5060   31.5820    9.5000 C.ar   64  A64         0.2016
   1092  N3       -19.3580   30.7710    8.8720 N.ar   64  A64        -0.2048
   1093  C4       -19.6740   29.7160    9.6370 C.ar   64  A64         0.1692
   1094  C5       -19.2010   29.4490   10.9100 C.ar   64  A64         0.1518
   1095  C6       -18.2950   30.3830   11.4650 C.ar   64  A64         0.1919
   1096  N6       -17.7490   30.2710   12.6850 N.pl3  64  A64        -0.1054
   1097  N7       -19.7400   28.2620   11.3810 N.ar   64  A64        -0.2193
   1098  C8       -20.5190   27.8520   10.4020 C.ar   64  A64         0.1816
   1099  N9       -20.5170   28.6750    9.3070 N.ar   64  A64        -0.2693
   1100  OP1      -26.1770   29.5140   12.1430 O.2    64  A64        -0.5172
   1101  OP2      -24.7290   27.4170   12.5600 O.co2  64  A64        -0.4373
   1102  P        -23.4080   24.1630    7.7160 P.3    65  A65         0.2141
   1103  C5'      -21.9510   24.0270    5.5610 C.3    65  A65         0.1812
   1104  O5'      -22.0560   23.7700    6.9560 O.3    65  A65        -0.3114
   1105  C4'      -20.5060   24.0010    5.1010 C.3    65  A65         0.1773
   1106  O4'      -19.7860   25.0770    5.7620 O.3    65  A65        -0.3307
   1107  C3'      -19.7290   22.7220    5.4090 C.3    65  A65         0.1860
   1108  O3'      -18.7560   22.5210    4.3920 O.3    65  A65        -0.3112
   1109  C2'      -19.0500   23.0960    6.7200 C.3    65  A65         0.2309
   1110  O2'      -17.9090   22.3110    7.0080 O.3    65  A65        -0.2156
   1111  C1'      -18.6340   24.5090    6.3450 C.3    65  A65         0.2408
   1112  N1       -16.1700   28.7580    7.8580 N.ar   65  A65        -0.2040
   1113  C2       -16.4880   28.2930    6.6410 C.ar   65  A65         0.2016
   1114  N3       -17.1340   27.1700    6.3110 N.ar   65  A65        -0.2048
   1115  C4       -17.4780   26.4840    7.4100 C.ar   65  A65         0.1692
   1116  C5       -17.2200   26.8310    8.7200 C.ar   65  A65         0.1518
   1117  C6       -16.5290   28.0300    8.9400 C.ar   65  A65         0.1919
   1118  N6       -16.2080   28.4620   10.1640 N.pl3  65  A65        -0.1054
   1119  N7       -17.7230   25.8740    9.5880 N.ar   65  A65        -0.2193
   1120  C8       -18.2700   24.9790    8.8000 C.ar   65  A65         0.1816
   1121  N9       -18.1620   25.2980    7.4770 N.ar   65  A65        -0.2693
   1122  OP1      -24.5420   23.5010    7.0310 O.2    65  A65        -0.5172
   1123  OP2      -23.1880   23.9640    9.1660 O.co2  65  A65        -0.4373
   1124  P        -18.4560   21.0680    3.7900 P.3    66  A66         0.2141
   1125  C5'      -15.8740   21.4620    4.2020 C.3    66  A66         0.1812
   1126  O5'      -16.9500   21.2370    3.2840 O.3    66  A66        -0.3114
   1127  C4'      -15.1100   22.7110    3.8150 C.3    66  A66         0.1773
   1128  O4'      -15.7600   23.8700    4.3920 O.3    66  A66        -0.3307
   1129  C3'      -13.6910   22.8170    4.3510 C.3    66  A66         0.1860
   1130  O3'      -12.7880   22.0270    3.5730 O.3    66  A66        -0.3112
   1131  C2'      -13.4650   24.3210    4.1990 C.3    66  A66         0.2309
   1132  O2'      -13.2660   24.7250    2.8540 O.3    66  A66        -0.2156
   1133  C1'      -14.7900   24.8390    4.7610 C.3    66  A66         0.2408
   1134  N1       -12.7070   27.4220    8.6970 N.ar   66  A66        -0.2040
   1135  C2       -12.6760   27.6180    7.3710 C.ar   66  A66         0.2016
   1136  N3       -13.2580   26.8990    6.4090 N.ar   66  A66        -0.2048
   1137  C4       -13.9430   25.8670    6.9130 C.ar   66  A66         0.1692
   1138  C5       -14.0660   25.5400    8.2510 C.ar   66  A66         0.1518
   1139  C6       -13.4120   26.3820    9.1800 C.ar   66  A66         0.1919
   1140  N6       -13.4460   26.1790   10.5060 N.pl3  66  A66        -0.1054
   1141  N7       -14.8510   24.4080    8.3990 N.ar   66  A66        -0.2193
   1142  C8       -15.1720   24.0740    7.1650 C.ar   66  A66         0.1816
   1143  N9       -14.6680   24.9230    6.2180 N.ar   66  A66        -0.2693
   1144  OP1      -19.3300   20.9070    2.6030 O.2    66  A66        -0.5172
   1145  OP2      -18.4920   20.0520    4.8670 O.co2  66  A66        -0.4373
   1146  P        -11.8110   21.0160    4.3230 P.3    67  C67         0.2141
   1147  C5'       -9.7480   22.4990    5.0500 C.3    67  C67         0.1812
   1148  O5'      -11.0310   21.9680    5.3500 O.3    67  C67        -0.3114
   1149  C4'       -9.8510   23.9600    4.6790 C.3    67  C67         0.1773
   1150  O4'      -10.4400   24.6900    5.7850 O.3    67  C67        -0.3307
   1151  C3'       -8.5090   24.6290    4.4570 C.3    67  C67         0.1860
   1152  O3'       -8.0760   24.3880    3.1190 O.3    67  C67        -0.3112
   1153  C2'       -8.8510   26.0950    4.7020 C.3    67  C67         0.2309
   1154  O2'       -9.4960   26.6890    3.5930 O.3    67  C67        -0.2156
   1155  C1'       -9.8380   25.9720    5.8630 C.3    67  C67         0.2420
   1156  N1        -9.1970   26.1190    7.1930 N.ar   67  C67        -0.2535
   1157  C2        -8.7170   27.3750    7.5700 C.ar   67  C67         0.3532
   1158  O2        -8.8400   28.3210    6.7740 O.2    67  C67        -0.2443
   1159  N3        -8.1330   27.5120    8.7900 N.ar   67  C67        -0.1739
   1160  C4        -8.0250   26.4600    9.6090 C.ar   67  C67         0.1759
   1161  N4        -7.4370   26.6500   10.7990 N.pl3  67  C67        -0.1070
   1162  C5        -8.5120   25.1670    9.2370 C.ar   67  C67         0.0566
   1163  C6        -9.0880   25.0470    8.0340 C.ar   67  C67         0.0850
   1164  OP1      -10.8630   20.5080    3.3040 O.2    67  C67        -0.5172
   1165  OP2      -12.6080   20.0740    5.1400 O.co2  67  C67        -0.4373
   1166  P         -6.5210   24.1940    2.7680 P.3    68  U68         0.2141
   1167  C5'       -6.3210   26.6120    1.8080 C.3    68  U68         0.1812
   1168  O5'       -5.9330   25.6730    2.7820 O.3    68  U68        -0.3114
   1169  C4'       -5.6170   27.9180    2.1130 C.3    68  U68         0.1773
   1170  O4'       -6.0810   28.4240    3.3860 O.3    68  U68        -0.3307
   1171  C3'       -4.1140   27.8020    2.3160 C.3    68  U68         0.1860
   1172  O3'       -3.4530   27.7930    1.0710 O.3    68  U68        -0.3112
   1173  C2'       -3.8340   29.1030    3.0460 C.3    68  U68         0.2309
   1174  O2'       -3.9390   30.2190    2.1800 O.3    68  U68        -0.2156
   1175  C1'       -5.0090   29.1150    4.0120 C.3    68  U68         0.2420
   1176  N1        -4.7740   28.5110    5.3680 N.ar   68  U68        -0.2534
   1177  C2        -4.0310   29.2180    6.2880 C.ar   68  U68         0.3546
   1178  O2        -3.5300   30.2970    6.0390 O.2    68  U68        -0.2443
   1179  N3        -3.8930   28.6110    7.5170 N.ar   68  U68        -0.1530
   1180  C4        -4.4160   27.3900    7.9000 C.ar   68  U68         0.2846
   1181  O4        -4.2170   26.9620    9.0340 O.2    68  U68        -0.2650
   1182  C5        -5.1860   26.7140    6.8830 C.ar   68  U68         0.0814
   1183  C6        -5.3370   27.2900    5.6850 C.ar   68  U68         0.0870
   1184  OP1       -6.4650   23.6820    1.3780 O.2    68  U68        -0.5172
   1185  OP2       -5.8520   23.4400    3.8580 O.co2  68  U68        -0.4373
   1186  P         -2.0420   27.0520    0.9240 P.3    69  C69         0.2141
   1187  C5'       -0.7990   29.3480    0.9640 C.3    69  C69         0.1812
   1188  O5'       -0.9810   28.0700    1.5470 O.3    69  C69        -0.3114
   1189  C4'       -0.1180   30.2730    1.9550 C.3    69  C69         0.1773
   1190  O4'       -0.9140   30.3610    3.1660 O.3    69  C69        -0.3307
   1191  C3'        1.2610   29.8410    2.4420 C.3    69  C69         0.1860
   1192  O3'        2.2620   30.2520    1.5170 O.3    69  C69        -0.3112
   1193  C2'        1.3670   30.6490    3.7240 C.3    69  C69         0.2309
   1194  O2'        1.6150   32.0110    3.4360 O.3    69  C69        -0.2156
   1195  C1'       -0.0480   30.5200    4.2720 C.3    69  C69         0.2420
   1196  N1        -0.2800   29.3960    5.2230 N.ar   69  C69        -0.2535
   1197  C2         0.1060   29.5640    6.5570 C.ar   69  C69         0.3532
   1198  O2         0.6420   30.6270    6.8890 O.2    69  C69        -0.2443
   1199  N3        -0.1150   28.5600    7.4430 N.ar   69  C69        -0.1739
   1200  C4        -0.7010   27.4330    7.0380 C.ar   69  C69         0.1759
   1201  N4        -0.8980   26.4720    7.9490 N.pl3  69  C69        -0.1070
   1202  C5        -1.0950   27.2390    5.6750 C.ar   69  C69         0.0566
   1203  C6        -0.8770   28.2400    4.8080 C.ar   69  C69         0.0850
   1204  OP1       -1.8110   26.9310   -0.5350 O.2    69  C69        -0.5172
   1205  OP2       -2.0530   25.8380    1.7790 O.co2  69  C69        -0.4373
   1206  P          3.7110   29.5730    1.4870 P.3    70  U70         0.2141
   1207  C5'        4.7910   31.4180    3.0530 C.3    70  U70         0.1812
   1208  O5'        4.3730   30.0650    2.8560 O.3    70  U70        -0.3114
   1209  C4'        5.3870   31.5620    4.4430 C.3    70  U70         0.1773
   1210  O4'        4.3870   31.2440    5.4340 O.3    70  U70        -0.3307
   1211  C3'        6.5070   30.5900    4.7810 C.3    70  U70         0.1860
   1212  O3'        7.7250   31.0510    4.2590 O.3    70  U70        -0.3112
   1213  C2'        6.5150   30.6650    6.2990 C.3    70  U70         0.2309
   1214  O2'        7.0820   31.8830    6.7690 O.3    70  U70        -0.2156
   1215  C1'        5.0220   30.6990    6.5780 C.3    70  U70         0.2420
   1216  N1         4.3250   29.4090    6.8760 N.ar   70  U70        -0.2534
   1217  C2         4.4740   28.8110    8.1030 C.ar   70  U70         0.3546
   1218  O2         5.1950   29.2660    8.9700 O.2    70  U70        -0.2443
   1219  N3         3.7490   27.6480    8.2680 N.ar   70  U70        -0.1530
   1220  C4         2.9080   27.0570    7.3410 C.ar   70  U70         0.2846
   1221  O4         2.3070   26.0230    7.6170 O.2    70  U70        -0.2650
   1222  C5         2.8100   27.7420    6.0830 C.ar   70  U70         0.0814
   1223  C6         3.4980   28.8750    5.9110 C.ar   70  U70         0.0870
   1224  OP1        4.4450   30.1970    0.3580 O.2    70  U70        -0.5172
   1225  OP2        3.5750   28.0950    1.5340 O.co2  70  U70        -0.4373
   1226  P          8.8200   30.0190    3.7280 P.3    71  U71         0.2141
   1227  C5'       10.1350   30.2390    6.0090 C.3    71  U71         0.1812
   1228  O5'        9.4640   29.4200    5.0640 O.3    71  U71        -0.3114
   1229  C4'       10.3490   29.4760    7.2960 C.3    71  U71         0.1773
   1230  O4'        9.0790   29.3250    7.9770 O.3    71  U71        -0.3307
   1231  C3'       10.8250   28.0400    7.1360 C.3    71  U71         0.1860
   1232  O3'       12.2210   27.9930    6.8600 O.3    71  U71        -0.3112
   1233  C2'       10.4620   27.5050    8.5190 C.3    71  U71         0.2309
   1234  O2'       11.2810   28.0160    9.5490 O.3    71  U71        -0.2156
   1235  C1'        9.0660   28.0940    8.6670 C.3    71  U71         0.2420
   1236  N1         7.9860   27.2200    8.1100 N.ar   71  U71        -0.2534
   1237  C2         7.4940   26.2400    8.9370 C.ar   71  U71         0.3546
   1238  O2         7.9190   26.0840   10.0610 O.2    71  U71        -0.2443
   1239  N3         6.5000   25.4570    8.4040 N.ar   71  U71        -0.1530
   1240  C4         5.9730   25.5460    7.1360 C.ar   71  U71         0.2846
   1241  O4         5.0830   24.7680    6.7880 O.2    71  U71        -0.2650
   1242  C5         6.5380   26.6000    6.3230 C.ar   71  U71         0.0814
   1243  C6         7.5090   27.3800    6.8290 C.ar   71  U71         0.0870
   1244  OP1        9.8410   30.8390    3.0260 O.3    71  U71        -0.4373
   1245  OP2        8.1460   28.9130    3.0040 O.co2  71  U71        -0.5172
   1246  P         12.8640   26.7640    6.0590 P.3    72  G72         0.2141
   1247  C5'       13.5820   25.8530    8.3970 C.3    72  G72         0.1812
   1248  O5'       12.8890   25.6270    7.1890 O.3    72  G72        -0.3114
   1249  C4'       13.2560   24.7620    9.3890 C.3    72  G72         0.1773
   1250  O4'       11.8490   24.8520    9.7180 O.3    72  G72        -0.3307
   1251  C3'       13.4480   23.3450    8.8710 C.3    72  G72         0.1860
   1252  O3'       14.8170   22.9670    9.0290 O.3    72  G72        -0.3112
   1253  C2'       12.5200   22.6000    9.8270 C.3    72  G72         0.2309
   1254  O2'       13.1040   22.3900   11.0980 O.3    72  G72        -0.2156
   1255  C1'       11.3310   23.5550    9.9420 C.3    72  G72         0.2408
   1256  N1         7.0710   20.9520    8.9590 N.ar   72  G72        -0.1709
   1257  C2         7.8640   20.9320   10.0790 C.ar   72  G72         0.2606
   1258  N2         7.4780   20.1070   11.0710 N.pl3  72  G72        -0.0859
   1259  N3         8.9590   21.6750   10.2200 N.ar   72  G72        -0.1918
   1260  C4         9.1960   22.4370    9.1280 C.ar   72  G72         0.1723
   1261  C5         8.4670   22.5200    7.9620 C.ar   72  G72         0.1748
   1262  C6         7.3030   21.7320    7.8280 C.ar   72  G72         0.3023
   1263  O6         6.5300   21.6730    6.8690 O.2    72  G72        -0.2633
   1264  N7         9.0550   23.4150    7.0780 N.ar   72  G72        -0.2173
   1265  C8        10.1090   23.8450    7.7240 C.ar   72  G72         0.1817
   1266  N9        10.2610   23.2950    8.9670 N.ar   72  G72        -0.2693
   1267  OP1       14.2560   27.1450    5.7300 O.3    72  G72        -0.4373
   1268  OP2       11.9690   26.3050    4.9810 O.co2  72  G72        -0.5172
   1269  P         15.4630   21.7830    8.1690 P.3    73  A73         0.2141
   1270  C5'       15.3010   19.2170    8.6270 C.3    73  A73         0.1812
   1271  O5'       14.9400   20.5270    9.0100 O.3    73  A73        -0.3114
   1272  C4'       14.4050   18.2440    9.3690 C.3    73  A73         0.1773
   1273  O4'       13.0260   18.4600    8.9800 O.3    73  A73        -0.3307
   1274  C3'       14.6730   16.7820    9.0520 C.3    73  A73         0.1860
   1275  O3'       15.7040   16.3010    9.9020 O.3    73  A73        -0.3112
   1276  C2'       13.3340   16.1530    9.3970 C.3    73  A73         0.2309
   1277  O2'       13.1400   16.0820   10.7980 O.3    73  A73        -0.2156
   1278  C1'       12.3870   17.1980    8.8290 C.3    73  A73         0.2408
   1279  N1         9.4360   14.5890    5.4920 N.ar   73  A73        -0.2040
   1280  C2         9.6090   14.4660    6.8120 C.ar   73  A73         0.2016
   1281  N3        10.3940   15.1790    7.6220 N.ar   73  A73        -0.2048
   1282  C4        11.0790   16.1100    6.9380 C.ar   73  A73         0.1692
   1283  C5        11.0150   16.3460    5.5790 C.ar   73  A73         0.1518
   1284  C6        10.1410   15.5360    4.8300 C.ar   73  A73         0.1919
   1285  N6         9.9950   15.6710    3.5040 N.pl3  73  A73        -0.1054
   1286  N7        11.8610   17.3870    5.2200 N.ar   73  A73        -0.2193
   1287  C8        12.4150   17.7560    6.3560 C.ar   73  A73         0.1816
   1288  N9        11.9890   17.0310    7.4340 N.ar   73  A73        -0.2693
   1289  OP1       16.9390   21.8650    8.2820 O.3    73  A73        -0.4373
   1290  OP2       14.8660   21.7600    6.8210 O.co2  73  A73        -0.5172
   1291  P         16.7260   15.2030    9.3350 P.3    74  C74         0.2141
   1292  C5'       15.0720   13.2900   10.1710 C.3    74  C74         0.1812
   1293  O5'       15.7800   13.9280    9.1100 O.3    74  C74        -0.3114
   1294  C4'       14.0770   12.2790    9.6210 C.3    74  C74         0.1773
   1295  O4'       13.0470   12.9510    8.8630 O.3    74  C74        -0.3307
   1296  C3'       14.6520   11.2750    8.6360 C.3    74  C74         0.1860
   1297  O3'       15.1850   10.2020    9.3680 O.3    74  C74        -0.3112
   1298  C2'       13.4130   10.8390    7.8690 C.3    74  C74         0.2309
   1299  O2'       12.5910    9.9460    8.5990 O.3    74  C74        -0.2156
   1300  C1'       12.6830   12.1690    7.7410 C.3    74  C74         0.2420
   1301  N1        12.9600   12.9360    6.4910 N.ar   74  C74        -0.2535
   1302  C2        12.2600   12.5860    5.3360 C.ar   74  C74         0.3532
   1303  O2        11.4500   11.6530    5.3970 O.2    74  C74        -0.2443
   1304  N3        12.4760   13.2760    4.1950 N.ar   74  C74        -0.1739
   1305  C4        13.3550   14.2740    4.1720 C.ar   74  C74         0.1759
   1306  N4        13.5130   14.9140    3.0090 N.pl3  74  C74        -0.1070
   1307  C5        14.0880   14.6500    5.3420 C.ar   74  C74         0.0566
   1308  C6        13.8630   13.9600    6.4690 C.ar   74  C74         0.0850
   1309  OP1       17.7090   14.9430   10.4160 O.3    74  C74        -0.4373
   1310  OP2       17.2080   15.6260    8.0050 O.co2  74  C74        -0.5172
   1311  P         16.4390    9.3840    8.8170 P.3    75  U75         0.2141
   1312  C5'       14.8260    7.4500    8.0180 C.3    75  U75         0.1812
   1313  O5'       15.7970    8.4310    7.6990 O.3    75  U75        -0.3114
   1314  C4'       14.1590    6.9930    6.7370 C.3    75  U75         0.1773
   1315  O4'       13.4450    8.1230    6.1730 O.3    75  U75        -0.3307
   1316  C3'       15.1370    6.6030    5.6410 C.3    75  U75         0.1860
   1317  O3'       15.6230    5.2590    5.8150 O.3    75  U75        -0.3112
   1318  C2'       14.2390    6.7430    4.4140 C.3    75  U75         0.2309
   1319  O2'       13.3030    5.6950    4.3440 O.3    75  U75        -0.2156
   1320  C1'       13.5260    8.0440    4.7590 C.3    75  U75         0.2420
   1321  N1        14.1780    9.2730    4.2460 N.ar   75  U75        -0.2534
   1322  C2        13.8880    9.6430    2.9620 C.ar   75  U75         0.3546
   1323  O2        13.1480    8.9730    2.2580 O.2    75  U75        -0.2443
   1324  N3        14.4910   10.8060    2.5390 N.ar   75  U75        -0.1530
   1325  C4        15.3530   11.6080    3.2690 C.ar   75  U75         0.2846
   1326  O4        15.8220   12.6270    2.7600 O.2    75  U75        -0.2650
   1327  C5        15.6070   11.1570    4.6130 C.ar   75  U75         0.0814
   1328  C6        15.0250   10.0210    5.0410 C.ar   75  U75         0.0870
   1329  OP1       16.8950    8.5430    9.9520 O.3    75  U75        -0.4373
   1330  OP2       17.4070   10.2830    8.1510 O.co2  75  U75        -0.5172
   1331  P         17.0220    4.8210    5.1710 P.3    76  A76         0.2141
   1332  C5'       15.7540    3.6990    3.1720 C.3    76  A76         0.1812
   1333  O5'       16.7110    4.6720    3.6100 O.3    76  A76        -0.3114
   1334  C4'       15.5180    3.8640    1.6840 C.3    76  A76         0.1773
   1335  O4'       14.8940    5.1480    1.4390 O.3    76  A76        -0.3307
   1336  C3'       16.7900    3.9410    0.8520 C.3    76  A76         0.1860
   1337  O3'       17.2870    2.6340    0.5910 O.3    76  A76        -0.3112
   1338  C2'       16.2610    4.6010   -0.4080 C.3    76  A76         0.2309
   1339  O2'       15.4790    3.6800   -1.1420 O.3    76  A76        -0.2156
   1340  C1'       15.3620    5.6700    0.2090 C.3    76  A76         0.2408
   1341  N1        16.5240   10.3480   -1.5810 N.ar   76  A76        -0.2040
   1342  C2        15.9270    9.2940   -2.1560 C.ar   76  A76         0.2016
   1343  N3        15.6540    8.1050   -1.6250 N.ar   76  A76        -0.2048
   1344  C4        16.0840    8.0330   -0.3540 C.ar   76  A76         0.1692
   1345  C5        16.7140    9.0210    0.3670 C.ar   76  A76         0.1518
   1346  C6        16.9390   10.2430   -0.3000 C.ar   76  A76         0.1919
   1347  N6        17.5330   11.2900    0.2710 N.pl3  76  A76        -0.1054
   1348  N7        17.0040    8.5830    1.6520 N.ar   76  A76        -0.2193
   1349  C8        16.5410    7.3590    1.6810 C.ar   76  A76         0.1816
   1350  N9        15.9790    6.9580    0.4990 N.ar   76  A76        -0.2693
   1351  OP1       17.3170    3.4780    5.7460 O.3    76  A76        -0.4373
   1352  OP2       18.0060    5.9190    5.3050 O.co2  76  A76        -0.5172
   1353  P         18.8560    2.4290    0.3740 P.3    77  U77         0.2141
   1354  C5'       18.5530    2.4550   -2.2330 C.3    77  U77         0.1812
   1355  O5'       19.1580    3.0180   -1.0770 O.3    77  U77        -0.3114
   1356  C4'       18.7910    3.3810   -3.4130 C.3    77  U77         0.1773
   1357  O4'       18.1000    4.6410   -3.2150 O.3    77  U77        -0.3307
   1358  C3'       20.2400    3.8040   -3.5930 C.3    77  U77         0.1860
   1359  O3'       20.9760    2.7880   -4.2450 O.3    77  U77        -0.3112
   1360  C2'       20.0680    5.0320   -4.4740 C.3    77  U77         0.2309
   1361  O2'       19.7310    4.6920   -5.8020 O.3    77  U77        -0.2156
   1362  C1'       18.8700    5.6820   -3.7910 C.3    77  U77         0.2420
   1363  N1        19.2520    6.6730   -2.7460 N.ar   77  U77        -0.2534
   1364  C2        19.5350    7.9530   -3.1570 C.ar   77  U77         0.3546
   1365  O2        19.4850    8.2870   -4.3270 O.2    77  U77        -0.2443
   1366  N3        19.8660    8.8290   -2.1520 N.ar   77  U77        -0.1530
   1367  C4        19.9470    8.5570   -0.8010 C.ar   77  U77         0.2846
   1368  O4        20.2630    9.4510   -0.0160 O.2    77  U77        -0.2650
   1369  C5        19.6410    7.1950   -0.4480 C.ar   77  U77         0.0814
   1370  C6        19.3090    6.3220   -1.4110 C.ar   77  U77         0.0870
   1371  OP1       19.0580    0.9540    0.3820 O.2    77  U77        -0.5172
   1372  OP2       19.5930    3.2730    1.3470 O.co2  77  U77        -0.4373
   1373  P         22.5520    2.6930   -3.9740 P.3    78  G78         0.2141
   1374  C5'       23.1210    4.0090   -6.1620 C.3    78  G78         0.1812
   1375  O5'       23.1200    3.9820   -4.7390 O.3    78  G78        -0.3114
   1376  C4'       23.5530    5.3640   -6.6860 C.3    78  G78         0.1773
   1377  O4'       22.6850    6.3840   -6.1420 O.3    78  G78        -0.3307
   1378  C3'       24.9400    5.8280   -6.2680 C.3    78  G78         0.1860
   1379  O3'       25.9400    5.2510   -7.0990 O.3    78  G78        -0.3112
   1380  C2'       24.8190    7.3270   -6.5040 C.3    78  G78         0.2309
   1381  O2'       24.8950    7.6550   -7.8750 O.3    78  G78        -0.2156
   1382  C1'       23.4070    7.5890   -5.9880 C.3    78  G78         0.2408
   1383  N1        24.0820   11.3370   -2.6370 N.ar   78  G78        -0.1709
   1384  C2        24.2280   11.3560   -4.0060 C.ar   78  G78         0.2606
   1385  N2        24.6020   12.5230   -4.5550 N.pl3  78  G78        -0.0859
   1386  N3        24.0210   10.3050   -4.7860 N.ar   78  G78        -0.1918
   1387  C4        23.6510    9.2160   -4.0690 C.ar   78  G78         0.1723
   1388  C5        23.4770    9.0990   -2.7100 C.ar   78  G78         0.1748
   1389  C6        23.6980   10.2250   -1.8900 C.ar   78  G78         0.3023
   1390  O6        23.5910   10.3040   -0.6580 O.2    78  G78        -0.2633
   1391  N7        23.0920    7.8110   -2.3700 N.ar   78  G78        -0.2173
   1392  C8        23.0430    7.1790   -3.5100 C.ar   78  G78         0.1817
   1393  N9        23.3650    7.9750   -4.5830 N.ar   78  G78        -0.2693
   1394  OP1       23.0130    1.4520   -4.6430 O.2    78  G78        -0.5172
   1395  OP2       22.8090    2.8990   -2.5270 O.co2  78  G78        -0.4373
   1396  P         27.4190    5.0190   -6.5260 P.3    79  G79         0.2141
   1397  C5'       28.2790    7.1310   -7.7840 C.3    79  G79         0.1812
   1398  O5'       28.0410    6.4900   -6.5410 O.3    79  G79        -0.3114
   1399  C4'       28.6320    8.5870   -7.5560 C.3    79  G79         0.1773
   1400  O4'       27.5400    9.2400   -6.8610 O.3    79  G79        -0.3307
   1401  C3'       29.8370    8.8240   -6.6570 C.3    79  G79         0.1860
   1402  O3'       31.0490    8.7140   -7.3980 O.3    79  G79        -0.3112
   1403  C2'       29.5730   10.2560   -6.2080 C.3    79  G79         0.2309
   1404  O2'       29.8530   11.2070   -7.2190 O.3    79  G79        -0.2156
   1405  C1'       28.0700   10.1940   -5.9550 C.3    79  G79         0.2408
   1406  N1        27.3780   11.7230   -1.1490 N.ar   79  G79        -0.1709
   1407  C2        27.7480   12.4540   -2.2540 C.ar   79  G79         0.2606
   1408  N2        27.9610   13.7630   -2.0540 N.pl3  79  G79        -0.0859
   1409  N3        27.8980   11.9420   -3.4690 N.ar   79  G79        -0.1918
   1410  C4        27.6470   10.6110   -3.4890 C.ar   79  G79         0.1723
   1411  C5        27.2760    9.7940   -2.4450 C.ar   79  G79         0.1748
   1412  C6        27.1160   10.3550   -1.1520 C.ar   79  G79         0.3023
   1413  O6        26.7870    9.7910   -0.0950 O.2    79  G79        -0.2633
   1414  N7        27.1150    8.4850   -2.8860 N.ar   79  G79        -0.2173
   1415  C8        27.3840    8.5340   -4.1620 C.ar   79  G79         0.1817
   1416  N9        27.7180    9.7940   -4.5950 N.ar   79  G79        -0.2693
   1417  OP1       28.1360    4.1760   -7.5100 O.2    79  G79        -0.5172
   1418  OP2       27.3260    4.5840   -5.1150 O.co2  79  G79        -0.4373
   1419  P         32.4140    8.2970   -6.6680 P.3    80  A80         0.2141
   1420  C5'       33.0350   10.8310   -6.4360 C.3    80  A80         0.1812
   1421  O5'       32.7680    9.5910   -5.7910 O.3    80  A80        -0.3114
   1422  C4'       33.1590   11.9540   -5.4210 C.3    80  A80         0.1773
   1423  O4'       31.8640   12.2220   -4.8210 O.3    80  A80        -0.3307
   1424  C3'       34.0580   11.6620   -4.2260 C.3    80  A80         0.1860
   1425  O3'       35.4390   11.8430   -4.5410 O.3    80  A80        -0.3112
   1426  C2'       33.5400   12.7080   -3.2430 C.3    80  A80         0.2309
   1427  O2'       33.9340   14.0280   -3.5730 O.3    80  A80        -0.2156
   1428  C1'       32.0390   12.5270   -3.4470 C.3    80  A80         0.2408
   1429  N1        29.9950   11.2360    1.0850 N.ar   80  A80        -0.2040
   1430  C2        30.4180   12.4070    0.5920 C.ar   80  A80         0.2016
   1431  N3        30.9410   12.6720   -0.6040 N.ar   80  A80        -0.2048
   1432  C4        31.0160   11.5550   -1.3450 C.ar   80  A80         0.1692
   1433  C5        30.6220   10.2800   -0.9780 C.ar   80  A80         0.1518
   1434  C6        30.0800   10.1310    0.3160 C.ar   80  A80         0.1919
   1435  N6        29.6550    8.9630    0.8140 N.pl3  80  A80        -0.1054
   1436  N7        30.8530    9.3800   -2.0080 N.ar   80  A80        -0.2193
   1437  C8        31.3740   10.1200   -2.9610 C.ar   80  A80         0.1816
   1438  N9        31.4970   11.4430   -2.6280 N.ar   80  A80        -0.2693
   1439  OP1       33.4360    8.1450   -7.7280 O.2    80  A80        -0.5172
   1440  OP2       32.1390    7.1690   -5.7460 O.co2  80  A80        -0.4373
   1441  P         36.5590   11.0130   -3.7470 P.3    81  G81         0.2141
   1442  C5'       36.7630   13.0020   -2.0660 C.3    81  G81         0.1812
   1443  O5'       36.4930   11.6220   -2.2680 O.3    81  G81        -0.3114
   1444  C4'       36.3320   13.4470   -0.6810 C.3    81  G81         0.1773
   1445  O4'       34.9000   13.2790   -0.5240 O.3    81  G81        -0.3307
   1446  C3'       36.9040   12.6400    0.4730 C.3    81  G81         0.1860
   1447  O3'       38.2520   13.0120    0.7380 O.3    81  G81        -0.3112
   1448  C2'       35.9450   13.0690    1.5790 C.3    81  G81         0.2309
   1449  O2'       36.1350   14.4020    2.0060 O.3    81  G81        -0.2156
   1450  C1'       34.6240   12.9550    0.8300 C.3    81  G81         0.2408
   1451  N1        32.1210    9.6310    3.7240 N.ar   81  G81        -0.1709
   1452  C2        32.4880   10.9290    3.9980 C.ar   81  G81         0.2606
   1453  N2        32.1440   11.4090    5.2020 N.pl3  81  G81        -0.0859
   1454  N3        33.1450   11.7070    3.1500 N.ar   81  G81        -0.1918
   1455  C4        33.4130   11.0650    1.9870 C.ar   81  G81         0.1723
   1456  C5        33.0930    9.7790    1.6190 C.ar   81  G81         0.1748
   1457  C6        32.3890    8.9590    2.5330 C.ar   81  G81         0.3023
   1458  O6        32.0150    7.7860    2.3850 O.2    81  G81        -0.2633
   1459  N7        33.5500    9.5060    0.3340 N.ar   81  G81        -0.2173
   1460  C8        34.1280   10.6140   -0.0420 C.ar   81  G81         0.1817
   1461  N9        34.0780   11.6040    0.9110 N.ar   81  G81        -0.2693
   1462  OP1       37.8630   11.3620   -4.3530 O.2    81  G81        -0.5172
   1463  OP2       36.1380    9.5940   -3.6730 O.co2  81  G81        -0.4373
   1464  P         39.3640   11.8940    1.0330 P.3    82  U82         0.2141
   1465  C5'       38.7790   12.3250    3.5430 C.3    82  U82         0.1812
   1466  O5'       38.9680   11.3810    2.4960 O.3    82  U82        -0.3114
   1467  C4'       37.9470   11.7240    4.6590 C.3    82  U82         0.1773
   1468  O4'       36.6170   11.3990    4.1790 O.3    82  U82        -0.3307
   1469  C3'       38.4590   10.3960    5.1910 C.3    82  U82         0.1860
   1470  O3'       39.5520   10.5950    6.0790 O.3    82  U82        -0.3112
   1471  C2'       37.2090    9.8950    5.9060 C.3    82  U82         0.2309
   1472  O2'       36.9910   10.5520    7.1400 O.3    82  U82        -0.2156
   1473  C1'       36.1250   10.2800    4.8990 C.3    82  U82         0.2420
   1474  N1        35.7780    9.1790    3.9410 N.ar   82  U82        -0.2534
   1475  C2        34.9690    8.1470    4.3740 C.ar   82  U82         0.3546
   1476  O2        34.5180    8.0860    5.5060 O.2    82  U82        -0.2443
   1477  N3        34.7020    7.1810    3.4330 N.ar   82  U82        -0.1530
   1478  C4        35.1550    7.1420    2.1260 C.ar   82  U82         0.2846
   1479  O4        34.8320    6.2080    1.3960 O.2    82  U82        -0.2650
   1480  C5        35.9940    8.2510    1.7470 C.ar   82  U82         0.0814
   1481  C6        36.2670    9.2050    2.6480 C.ar   82  U82         0.0870
   1482  OP1       40.6720   12.5850    1.1090 O.3    82  U82        -0.4373
   1483  OP2       39.1750   10.7700    0.0840 O.co2  82  U82        -0.5172
   1484  P         40.6300    9.4260    6.2760 P.3    83  C83         0.2141
   1485  C5'       40.5020    7.2570    7.7300 C.3    83  C83         0.1813
   1486  O5'       39.9960    8.5580    7.4620 O.3    83  C83        -0.3114
   1487  C4'       39.7510    6.6150    8.8820 C.3    83  C83         0.1801
   1488  O4'       38.3380    6.9370    8.7700 O.3    83  C83        -0.3306
   1489  C3'       39.8470    5.0930    8.9220 C.3    83  C83         0.2161
   1490  O3'       40.9190    4.6770    9.7770 O.3    83  C83        -0.2175
   1491  C2'       38.4720    4.6780    9.4490 C.3    83  C83         0.2338
   1492  O2'       38.4020    4.6710   10.8630 O.3    83  C83        -0.2155
   1493  C1'       37.5580    5.7600    8.8690 C.3    83  C83         0.2421
   1494  N1        37.0150    5.4270    7.5120 N.ar   83  C83        -0.2535
   1495  C2        35.9690    4.5040    7.3870 C.ar   83  C83         0.3532
   1496  O2        35.5040    3.9760    8.4040 O.2    83  C83        -0.2443
   1497  N3        35.4910    4.2100    6.1500 N.ar   83  C83        -0.1739
   1498  C4        36.0170    4.7970    5.0730 C.ar   83  C83         0.1759
   1499  N4        35.5160    4.4760    3.8740 N.pl3  83  C83        -0.1070
   1500  C5        37.0830    5.7400    5.1790 C.ar   83  C83         0.0566
   1501  C6        37.5440    6.0220    6.4030 C.ar   83  C83         0.0850
   1502  OP1       41.8830   10.0550    6.7550 O.3    83  C83        -0.4373
   1503  OP2       40.6390    8.5820    5.0580 O.co2  83  C83        -0.5172
@<TRIPOS>BOND
     1   761   760    2
     2   759   760   ar
     3   759   757   ar
     4   760   762   ar
     5   758   757    2
     6   757   756   ar
     7   762   763   ar
     8   756   763   ar
     9   756   755    1
    10   755   750    1
    11   755   753    1
    12   750   749    1
    13   744   726    2
    14   765   746    2
    15   748   747    1
    16   748   746    1
    17   749   747    1
    18   749   751    1
    19   753   754    1
    20   753   751    1
    21   189   169    2
    22   724   703    2
    23   752   751    1
    24   752   766    1
    25   746   764    1
    26   746   732    1
    27   726   745    1
    28   726   709    1
    29   726   728    1
    30   784   766    2
    31   785   766    1
    32   155   169    1
    33   155   154    1
    34   766   768    1
    35   709   708    1
    36   727   728    1
    37   727   729    1
    38   704   705    1
    39   704   706    1
    40   150   152    1
    41   150   151    1
    42   169   190    1
    43   169   171    1
    44   209   191    2
    45   152   154    1
    46   152   153    1
    47   731   732    1
    48   731   729    1
    49   731   733    1
    50   157   156    1
    51   167   149    2
    52   703   687    1
    53   703   705    1
    54   703   725    1
    55   687   686    1
    56   170   171    1
    57   170   172    1
    58   689   688    1
    59   729   730    1
    60   706   708    1
    61   706   707    1
    62   154   156    1
    63   210   191    1
    64   135   134    1
    65  1381  1380    1
    66  1397  1399    1
    67  1397  1398    1
    68  1439  1419    2
    69   708   710    1
    70  1399  1400    1
    71  1399  1401    1
    72   191   175    1
    73   191   193    1
    74  1417  1396    2
    75   733   734    1
    76   733   735    1
    77   151   149    1
    78   153   158    1
    79   133   149    1
    80   133   132    1
    81   156   158    1
    82  1402  1419    1
    83  1402  1401    1
    84   768   767    1
    85   149   168    1
    86  1404  1403    1
    87   172   174    1
    88   172   173    1
    89  1379  1396    1
    90  1379  1378    1
    91   686   688    1
    92   686   684    1
    93   175   174    1
    94   688   690    1
    95   711   710    1
    96   684   682    1
    97   684   685    1
    98  1400  1405    1
    99   158   159    1
   100   767   769    1
   101   707   712    1
   102  1376  1378    1
   103  1376  1374    1
   104  1376  1377    1
   105  1419  1421    1
   106  1419  1440    1
   107  1401  1403    1
   108   682   683    1
   109   730   735    1
   110   134   132    1
   111   134   136    1
   112  1398  1396    1
   113  1396  1418    1
   114  1380  1378    1
   115  1380  1382    1
   116   710   712    1
   117  1420  1421    1
   118  1420  1422    1
   119   132   130    1
   120   174   176    1
   121   130   128    1
   122   130   131    1
   123   193   192    1
   124   735   736    1
   125  1403  1405    1
   126   173   178    1
   127  1374  1375    1
   128  1377  1382    1
   129   192   194    1
   130  1382  1393    1
   131  1405  1416    1
   132   701   681    2
   133   685   690    1
   134  1361  1360    1
   135   690   700    1
   136   712   723    1
   137   743   736   ar
   138   743   742   ar
   139   782   783   ar
   140   782   780   ar
   141   136   131    1
   142   136   146    1
   143   128   129    1
   144  1422  1423    1
   145  1422  1424    1
   146   783   776   ar
   147   683   681    1
   148   159   166   ar
   149   159   160   ar
   150   228   229   ar
   151   228   225   ar
   152   736   737   ar
   153   769   770    1
   154   769   771    1
   155   177   176    1
   156   229   230   ar
   157   770   775    1
   158   176   178    1
   159   283   282    1
   160   666   665    1
   161   178   188    1
   162   742   740   ar
   163   161   160    2
   164   166   165   ar
   165   781   780    2
   166   139   138   ar
   167   139   140   ar
   168   681   664    1
   169   681   702    1
   170  1423  1428    1
   171  1386  1387   ar
   172  1386  1384   ar
   173   722   723   ar
   174   722   721   ar
   175   303   302    1
   176   780   779   ar
   177   231   211    2
   178  1375  1373    1
   179   723   717   ar
   180   194   196    1
   181   194   195    1
   182  1394  1373    2
   183  1416  1415   ar
   184  1416  1410   ar
   185  1393  1387   ar
   186  1393  1392   ar
   187  1385  1384    1
   188   771   773    1
   189   771   772    1
   190  1425  1424    1
   191  1425  1441    1
   192   693   694   ar
   193   693   692   ar
   194   160   162   ar
   195   664   663    1
   196   700   694   ar
   197   700   699   ar
   198  1360  1362    1
   199  1360  1358    1
   200  1462  1441    2
   201   776   775    1
   202   776   777   ar
   203   227   226    1
   204  1365  1364    2
   205   146   140   ar
   206   146   145   ar
   207   298   296    1
   208   298   299    1
   209   298   300    1
   210   773   775    1
   211   773   774    1
   212   115   114    1
   213  1359  1373    1
   214  1359  1358    1
   215  1424  1426    1
   216   138   137   ar
   217   804   786    2
   218   129   127    1
   219  1415  1414   ar
   220   296   297    1
   221   737   738    2
   222   737   739   ar
   223   225   226   ar
   224   225   224   ar
   225   215   220    1
   226   215   214    1
   227  1387  1388   ar
   228   147   127    2
   229   187   188   ar
   230   187   186   ar
   231   196   198    1
   232   196   197    1
   233   299   304    1
   234   140   141   ar
   235  1384  1383   ar
   236  1373  1395    1
   237   208   207   ar
   238   208   201   ar
   239   230   220    1
   240   230   224   ar
   241   694   695   ar
   242   207   205   ar
   243   195   200    1
   244   188   182   ar
   245   665   663    1
   246   665   667    1
   247  1362  1357    1
   248  1362  1363    1
   249  1441  1463    1
   250  1441  1443    1
   251   301   300    1
   252   301   315    1
   253   779   777   ar
   254   692   691   ar
   255   740   739   ar
   256   740   741    1
   257   282   284    1
   258   282   280    1
   259   721   718   ar
   260   805   786    1
   261   670   669    1
   262  1358  1356    1
   263   220   218    1
   264   226   221   ar
   265   165   163   ar
   266  1427  1426    1
   267   699   698   ar
   268   302   304    1
   269   302   300    1
   270  1392  1391   ar
   271   304   305    1
   272  1410  1409   ar
   273  1410  1411   ar
   274   287   286    2
   275  1409  1407   ar
   276   336   315    2
   277   777   778    2
   278  1428  1426    1
   279  1428  1438    1
   280   284   279    1
   281   284   285    1
   282  1356  1357    1
   283  1356  1354    1
   284   316   318    1
   285   316   317    1
   286   663   661    1
   287   213   211    1
   288   213   212    1
   289   717   716   ar
   290   717   718   ar
   291   211   197    1
   292   211   232    1
   293   198   200    1
   294   198   199    1
   295   772   786    1
   296   786   788    1
   297   212   214    1
   298   127   113    1
   299   127   148    1
   300   279   278    1
   301   224   223   ar
   302   278   280    1
   303   278   276    1
   304   162   163   ar
   305  1364  1363   ar
   306  1364  1366   ar
   307   145   144   ar
   308   281   280    1
   309   281   295    1
   310   119   118    2
   311   114   112    1
   312   114   116    1
   313   214   216    1
   314  1437  1438   ar
   315  1437  1436   ar
   316   113   112    1
   317   137   142   ar
   318   200   201    1
   319   186   183   ar
   320  1414  1411   ar
   321   716   714   ar
   322   318   319    1
   323   318   320    1
   324   201   202   ar
   325   671   669   ar
   326   671   672   ar
   327   661   662    1
   328   661   659    1
   329   297   295    1
   330  1363  1370   ar
   331   313   295    2
   332   718   719   ar
   333   315   317    1
   334   315   337    1
   335  1388  1391   ar
   336  1388  1389   ar
   337   695   698   ar
   338   695   696   ar
   339   141   144   ar
   340   141   142   ar
   341   205   206    2
   342   205   204   ar
   343   667   662    1
   344   667   678    1
   345   669   668   ar
   346  1383  1389   ar
   347   267   266    2
   348  1438  1432   ar
   349   163   164    2
   350   182   181   ar
   351   182   183   ar
   352   263   262    1
   353   691   696   ar
   354   319   324    1
   355  1411  1412   ar
   356   286   285   ar
   357   286   288   ar
   358   221   222   ar
   359   295   314    1
   360  1443  1442    1
   361  1407  1408    1
   362  1407  1406   ar
   363   285   292   ar
   364  1354  1355    1
   365   276   277    1
   366   112   110    1
   367   307   306    2
   368  1342  1343   ar
   369  1342  1341   ar
   370  1366  1367   ar
   371   116   117    1
   372   116   111    1
   373   305   306   ar
   374   305   312   ar
   375   142   143    1
   376   218   219    1
   377   218   216    1
   378   181   180   ar
   379  1442  1444    1
   380  1436  1433   ar
   381   183   184   ar
   382   118   117   ar
   383   118   120   ar
   384   321   320    1
   385   321   338    1
   386   323   322    1
   387   223   222   ar
   388   696   697    1
   389  1389  1390    2
   390   788   787    1
   391   659   660    1
   392   672   678   ar
   393   672   673   ar
   394   216   217    1
   395   678   677   ar
   396  1343  1344   ar
   397   320   322    1
   398  1341  1346   ar
   399   714   715    1
   400   714   713   ar
   401   202   204   ar
   402   202   203    2
   403   306   308   ar
   404   358   338    2
   405   668   674   ar
   406   110   111    1
   407   110   108    1
   408   312   311   ar
   409   262   264    1
   410   262   260    1
   411   266   268   ar
   412   266   265   ar
   413  1370  1369   ar
   414   117   124   ar
   415   324   322    1
   416   324   335    1
   417  1432  1433   ar
   418  1432  1431   ar
   419   719   713   ar
   420   719   720    2
   421   288   289   ar
   422   120   121   ar
   423   264   265    1
   424   264   259    1
   425  1412  1406   ar
   426  1412  1413    2
   427  1339  1338    1
   428  1355  1353    1
   429   292   291   ar
   430  1433  1434   ar
   431   647   646    1
   432   277   275    1
   433   268   269   ar
   434   338   359    1
   435   338   340    1
   436   787   789    1
   437  1367  1369   ar
   438  1367  1368    2
   439   660   658    1
   440   180   179   ar
   441  1444  1445    1
   442  1444  1446    1
   443   265   272   ar
   444   184   179   ar
   445   184   185    1
   446   217   233    1
   447   673   674   ar
   448   673   676   ar
   449  1431  1430   ar
   450  1204  1186    2
   451  1445  1450    1
   452   677   676   ar
   453   674   675    2
   454  1338  1340    1
   455  1338  1336    1
   456   259   258    1
   457  1344  1345   ar
   458  1344  1350   ar
   459   802   803   ar
   460   802   800   ar
   461   308   309   ar
   462  1346  1347    1
   463  1346  1345   ar
   464   679   658    2
   465   311   309   ar
   466   108   109    1
   467   335   334   ar
   468   335   329   ar
   469   339   340    1
   470   339   341    1
   471   289   291   ar
   472   289   290    1
   473   803   796   ar
   474   124   123   ar
   475   334   333   ar
   476   260   261    1
   477   260   258    1
   478   261   275    1
   479   121   123   ar
   480   121   122    1
   481  1460  1459   ar
   482  1460  1461   ar
   483  1483  1464    2
   484   254   233    2
   485   258   256    1
   486   790   789    1
   487   790   795    1
   488  1340  1350    1
   489  1340  1335    1
   490   646   648   ar
   491   646   645   ar
   492   842   841    1
   493   643   642    1
   494  1434  1435    1
   495  1434  1429   ar
   496   309   310    1
   497  1459  1456   ar
   498    99    98    2
   499   275   293    2
   500   275   294    1
   501  1224  1206    2
   502   658   641    1
   503   658   680    1
   504  1345  1348   ar
   505  1353  1371    2
   506  1353  1337    1
   507  1353  1372    1
   508   269   270    2
   509   269   271   ar
   510   789   791    1
   511  1446  1447    1
   512  1446  1448    1
   513  1350  1349   ar
   514   801   800    1
   515  1337  1336    1
   516  1430  1429   ar
   517   821   820    1
   518   233   253    1
   519   233   235    1
   520   272   271   ar
   521   109   107    1
   522   800   799   ar
   523   648   649   ar
   524  1447  1464    1
   525  1450  1461    1
   526  1450  1448    1
   527  1336  1334    1
   528   645   651   ar
   529  1461  1455   ar
   530  1186  1172    1
   531  1186  1188    1
   532  1186  1205    1
   533   329   328   ar
   534   329   330   ar
   535  1187  1188    1
   536  1187  1189    1
   537   341   342    1
   538   341   343    1
   539   642   640    1
   540   642   644    1
   541   836   841   ar
   542   836   837   ar
   543   333   330   ar
   544   796   795    1
   545   796   797   ar
   546  1464  1482    1
   547  1464  1466    1
   548   641   640    1
   549  1172  1171    1
   550   234   235    1
   551   234   236    1
   552   100    98   ar
   553   100   101   ar
   554   328   326   ar
   555    98    97   ar
   556   841   840   ar
   557    23     1    1
   558    95    94    1
   559   795   793    1
   560   342   347    1
   561  1184  1166    2
   562  1479  1478    2
   563  1335  1334    1
   564  1206  1192    1
   565  1206  1225    1
   566  1206  1208    1
   567  1192  1191    1
   568   256   257    1
   569  1448  1449    1
   570   791   792    1
   571   791   793    1
   572  1456  1455   ar
   573  1456  1457   ar
   574  1348  1349   ar
   575   330   331   ar
   576  1334  1332    1
   577   820   822   ar
   578   820   819   ar
   579  1480  1478   ar
   580  1480  1481   ar
   581   822   823   ar
   582   640   638    1
   583  1167  1169    1
   584  1167  1168    1
   585   825   806    2
   586   799   797   ar
   587    94    96    1
   588    94    92    1
   589   649   655   ar
   590   649   650   ar
   591  1189  1191    1
   592  1189  1190    1
   593   860   859    2
   594    22     1    1
   595   102   101    2
   596  1455  1454   ar
   597   797   798    2
   598   837   838   ar
   599   651   650   ar
   600   651   652    2
   601   861   859   ar
   602   861   862   ar
   603     1     3    1
   604  1169  1171    1
   605  1169  1170    1
   606  1478  1477   ar
   607   101   103   ar
   608   644   655    1
   609   644   639    1
   610   107   125    2
   611   107    93    1
   612   107   126    1
   613  1174  1173    1
   614  1323  1322    2
   615   344   343    1
   616   344   360    1
   617   236   237    1
   618   236   238    1
   619   863   862    1
   620   343   345    1
   621  1171  1173    1
   622   792   806    1
   623   257   255    1
   624  1458  1457    2
   625    97    96    1
   626    97   104   ar
   627   326   327    1
   628   326   325   ar
   629   793   794    1
   630  1191  1193    1
   631  1466  1465    1
   632  1457  1451   ar
   633  1324  1322   ar
   634  1324  1325   ar
   635    96    91    1
   636   655   654   ar
   637   650   653   ar
   638   840   843   ar
   639   840   839   ar
   640  1144  1124    2
   641   859   858   ar
   642  1481  1474   ar
   643   356   357   ar
   644   356   355   ar
   645   347   357    1
   646   347   345    1
   647   819   817   ar
   648  1326  1325    2
   649    93    92    1
   650  1166  1168    1
   651  1166  1152    1
   652  1166  1185    1
   653   862   864   ar
   654   237   242    1
   655  1132  1131    1
   656  1208  1207    1
   657   638   639    1
   658   638   636    1
   659   806   824    1
   660   806   808    1
   661   331   325   ar
   662   331   332    2
   663   823   816   ar
   664   380   360    2
   665  1322  1321   ar
   666  1245  1226    2
   667    92    90    1
   668  1306  1305    1
   669  1244  1226    1
   670  1173  1175    1
   671  1207  1209    1
   672  1152  1151    1
   673  1454  1452   ar
   674   239   238    1
   675   239   255    1
   676  1190  1195    1
   677  1332  1333    1
   678    82    81    2
   679   843   844   ar
   680   357   351   ar
   681   360   381    1
   682   360   362    1
   683  1325  1327   ar
   684  1126  1124    1
   685  1126  1125    1
   686   838   839   ar
   687  1164  1146    2
   688   345   346    1
   689   103   104   ar
   690  1170  1175    1
   691   355   352   ar
   692  1477  1475   ar
   693  1194  1193    1
   694   238   240    1
   695  1285  1284    1
   696   839   845   ar
   697  1465  1467    1
   698  1130  1146    1
   699  1130  1129    1
   700    80    81   ar
   701    80    78   ar
   702  1154  1153    1
   703  1333  1331    1
   704     3     2    1
   705   654   653   ar
   706   255   273    2
   707   255   274    1
   708  1451  1452   ar
   709  1193  1195    1
   710  1226  1212    1
   711  1226  1228    1
   712  1124  1108    1
   713  1124  1145    1
   714  1127  1125    1
   715  1127  1129    1
   716  1127  1128    1
   717    19    20   ar
   718    19    16   ar
   719  1499  1498    1
   720    79    78    2
   721   817   816   ar
   722   817   818    2
   723    91    90    1
   724    18    17    2
   725  1474  1475   ar
   726  1474  1473    1
   727   858   857    1
   728   858   865   ar
   729   808   807    1
   730    62    61    1
   731    81    83   ar
   732  1452  1453    1
   733  1175  1176    1
   734   816   815    1
   735   636   637    1
   736    90    88    1
   737  1305  1304   ar
   738  1305  1307   ar
   739  1468  1467    1
   740  1468  1473    1
   741  1304  1302   ar
   742  1131  1129    1
   743  1131  1133    1
   744   864   865   ar
   745  1321  1320    1
   746  1321  1328   ar
   747   242   240    1
   748   242   252    1
   749  1212  1211    1
   750   251   252   ar
   751   251   250   ar
   752  1195  1196    1
   753  1146  1165    1
   754  1146  1148    1
   755  1319  1318    1
   756    78    77   ar
   757   351   352   ar
   758   351   350   ar
   759  1475  1476    2
   760  1128  1133    1
   761  1108  1107    1
   762    20    21   ar
   763  1318  1320    1
   764  1318  1316    1
   765  1209  1211    1
   766  1209  1210    1
   767  1151  1149    1
   768  1151  1153    1
   769   352   353   ar
   770   241   240    1
   771   844   845   ar
   772   857   855    1
   773   857   852    1
   774    41    40    2
   775  1327  1328   ar
   776   637   635    1
   777   856   855    1
   778     2     4    1
   779  1467  1469    1
   780   362   361    1
   781  1149  1147    1
   782  1149  1150    1
   783  1153  1155    1
   784   845   835    1
   785  1320  1315    1
   786  1133  1143    1
   787  1211  1213    1
   788  1203  1196   ar
   789  1203  1202   ar
   790  1284  1279   ar
   791  1284  1283   ar
   792   855   853    1
   793   252   246   ar
   794  1473  1471    1
   795    16    17   ar
   796    16    15   ar
   797    17    11   ar
   798  1268  1246    2
   799  1147  1148    1
   800  1503  1484    2
   801  1228  1227    1
   802  1498  1500   ar
   803  1498  1497   ar
   804   250   247   ar
   805  1105  1107    1
   806  1105  1103    1
   807  1105  1106    1
   808   810   815    1
   809   810   809    1
   810   807   809    1
   811  1331  1352    2
   812  1331  1351    1
   813  1331  1317    1
   814  1500  1501   ar
   815  1469  1471    1
   816  1469  1470    1
   817   350   349   ar
   818  1286  1283   ar
   819  1286  1287   ar
   820  1196  1197   ar
   821    61    60   ar
   822    61    63   ar
   823   815   813    1
   824    46    24    2
   825  1302  1303    2
   826  1302  1301   ar
   827  1307  1308   ar
   828  1176  1183   ar
   829  1176  1177   ar
   830    83    84   ar
   831   627   626    2
   832  1107  1109    1
   833  1210  1215    1
   834  1279  1280   ar
   835    88    89    1
   836   353   354    1
   837   353   348   ar
   838  1103  1104    1
   839  1283  1282   ar
   840   628   626   ar
   841   628   629   ar
   842    60    58   ar
   843  1316  1317    1
   844  1316  1314    1
   845  1038  1020    2
   846    77    84   ar
   847    77    76    1
   848  1202  1200   ar
   849  1183  1182   ar
   850    89    87    1
   851  1267  1246    1
   852  1106  1111    1
   853   630   629    1
   854    21    15   ar
   855    21    10    1
   856  1150  1155    1
   857   361   363    1
   858   852   851    1
   859    40    39   ar
   860    40    34   ar
   861  1058  1040    2
   862  1155  1156    1
   863    42    39   ar
   864    42    43   ar
   865  1008  1007    1
   866  1471  1472    1
   867  1223  1222   ar
   868  1223  1216   ar
   869  1021  1023    1
   870  1021  1022    1
   871   809   811    1
   872   626   625   ar
   873     4     5    1
   874     4     6    1
   875     5    10    1
   876   835   833    1
   877   835   830    1
   878   635   656    2
   879   635   657    1
   880   635   621    1
   881  1227  1229    1
   882  1088  1087    1
   883  1178  1177    2
   884  1246  1232    1
   885  1246  1248    1
   886  1470  1484    1
   887  1222  1220   ar
   888    15    14   ar
   889  1497  1495   ar
   890  1006  1020    1
   891  1006  1005    1
   892  1315  1314    1
   893   349   348   ar
   894   246   247   ar
   895   246   245   ar
   896    63    64   ar
   897    11    12   ar
   898   629   631   ar
   899  1143  1137   ar
   900  1143  1142   ar
   901   811   813    1
   902   811   812    1
   903  1484  1502    1
   904  1484  1486    1
   905  1177  1179   ar
   906   247   248   ar
   907  1213  1215    1
   908  1213  1214    1
   909  1114  1113   ar
   910  1114  1115   ar
   911   853   851    1
   912   853   854    1
   913  1242  1243   ar
   914  1242  1240   ar
   915  1111  1109    1
   916  1111  1121    1
   917    74    75    1
   918    74    76    1
   919    74    72    1
   920  1287  1288   ar
   921     6     7    1
   922     6     8    1
   923  1501  1494   ar
   924   364   363    1
   925   364   369    1
   926  1136  1137   ar
   927  1136  1135   ar
   928   813   814    1
   929    39    38   ar
   930  1308  1301   ar
   931  1023  1024    1
   932  1023  1025    1
   933  1301  1300    1
   934   623   622    1
   935  1003  1001    1
   936  1003  1005    1
   937  1003  1004    1
   938   847   826    2
   939  1197  1198    2
   940  1197  1199   ar
   941  1215  1216    1
   942    76    71    1
   943   378   377   ar
   944   378   379   ar
   945   622   620    1
   946   622   624    1
   947  1113  1112   ar
   948  1026  1040    1
   949  1026  1025    1
   950    10     8    1
   951  1109  1110    1
   952    24     7    1
   953    24    45    1
   954    24    26    1
   955   833   834    1
   956   833   831    1
   957  1314  1312    1
   958    34    35   ar
   959  1020  1022    1
   960  1020  1039    1
   961   883   882    1
   962  1158  1157    2
   963  1241  1240    2
   964   377   374   ar
   965  1280  1281   ar
   966  1001  1002    1
   967  1290  1269    2
   968  1243  1236   ar
   969   363   365    1
   970  1232  1231    1
   971    58    59    2
   972    58    57   ar
   973   830   829    1
   974  1263  1262    2
   975   851   849    1
   976  1216  1217   ar
   977  1182  1180   ar
   978  1137  1138   ar
   979   854   868    1
   980    43    44   ar
   981  1282  1288   ar
   982  1282  1281   ar
   983  1040  1059    1
   984  1040  1042    1
   985  1104  1102    1
   986   989   988    1
   987   106    87    2
   988  1122  1102    2
   989  1200  1199   ar
   990  1200  1201    1
   991   625   624    1
   992   625   632   ar
   993  1005  1007    1
   994  1264  1265   ar
   995  1264  1261   ar
   996   621   620    1
   997   985   984    1
   998  1231  1229    1
   999  1231  1233    1
  1000  1240  1239   ar
  1001   245   244   ar
  1002  1007  1009    1
  1003  1142  1141   ar
  1004    87    73    1
  1005    87   105    1
  1006  1248  1247    1
  1007  1156  1157   ar
  1008  1156  1163   ar
  1009  1004  1009    1
  1010  1024  1029    1
  1011  1229  1230    1
  1012  1028  1027    1
  1013   631   632   ar
  1014  1220  1221    2
  1015  1220  1219   ar
  1016    12    14   ar
  1017    12    13    1
  1018  1135  1134   ar
  1019  1495  1494   ar
  1020  1495  1496    2
  1021     8     9    1
  1022  1086  1102    1
  1023  1086  1085    1
  1024    72    73    1
  1025    72    70    1
  1026  1115  1121   ar
  1027  1115  1116   ar
  1028  1087  1089    1
  1029  1087  1085    1
  1030   620   618    1
  1031  1288  1278    1
  1032    64    57   ar
  1033   624   619    1
  1034  1025  1027    1
  1035  1486  1485    1
  1036  1121  1120   ar
  1037   379   369    1
  1038   379   373   ar
  1039   812   826    1
  1040   884   882   ar
  1041   884   885   ar
  1042   886   868    2
  1043  1494  1493    1
  1044  1179  1180   ar
  1045   828   826    1
  1046   828   827    1
  1047   369   367    1
  1048   248   249    1
  1049   248   243   ar
  1050  1157  1159   ar
  1051   882   881   ar
  1052   831   829    1
  1053   831   832    1
  1054  1009  1010    1
  1055   826   846    1
  1056    26    25    1
  1057  1313  1312    1
  1058  1313  1311    1
  1059   887   868    1
  1060  1102  1123    1
  1061  1265  1266   ar
  1062  1485  1487    1
  1063  1300  1298    1
  1064  1300  1295    1
  1065   868   870    1
  1066    57    56    1
  1067    38    44   ar
  1068    38    37   ar
  1069  1262  1261   ar
  1070  1262  1256   ar
  1071   610   609    2
  1072  1112  1117   ar
  1073  1298  1299    1
  1074  1298  1296    1
  1075   850   849    1
  1076   850   848    1
  1077  1180  1181    2
  1078   374   373   ar
  1079   374   375   ar
  1080    71    70    1
  1081  1261  1260   ar
  1082  1230  1235    1
  1083  1310  1291    2
  1084  1163  1162   ar
  1085  1089  1084    1
  1086  1089  1099    1
  1087   829   827    1
  1088    35    37   ar
  1089    35    36    1
  1090  1217  1219   ar
  1091  1217  1218    2
  1092  1236  1235    1
  1093  1236  1237   ar
  1094    44    33    1
  1095  1330  1311    2
  1096  1027  1029    1
  1097  1269  1289    1
  1098  1269  1271    1
  1099  1269  1252    1
  1100   988   990   ar
  1101   988   987   ar
  1102  1085  1083    1
  1103  1018  1000    2
  1104    66    47    2
  1105   365   367    1
  1106   365   366    1
  1107  1002  1000    1
  1108   990   991   ar
  1109  1138  1141   ar
  1110  1138  1139   ar
  1111  1042  1041    1
  1112   244   243   ar
  1113  1084  1083    1
  1114  1029  1030    1
  1115   373   372   ar
  1116   376   375    1
  1117   984   986    1
  1118   984   982    1
  1119  1247  1249    1
  1120  1239  1237   ar
  1121   885   878   ar
  1122   867   848    2
  1123  1041  1043    1
  1124  1233  1235    1
  1125  1233  1234    1
  1126    70    68    1
  1127  1083  1081    1
  1128   397   396    2
  1129   608   609   ar
  1130   608   606   ar
  1131  1270  1271    1
  1132  1270  1272    1
  1133   375   370   ar
  1134  1296  1297    1
  1135  1296  1294    1
  1136   881   879   ar
  1137  1078  1060    2
  1138  1134  1139   ar
  1139   609   611   ar
  1140  1116  1117   ar
  1141  1116  1119   ar
  1142   983  1000    1
  1143   983   982    1
  1144  1488  1493    1
  1145  1488  1487    1
  1146   367   368    1
  1147  1159  1160   ar
  1148   904   903    1
  1149   619   618    1
  1150  1120  1119   ar
  1151   618   616    1
  1152  1311  1297    1
  1153  1311  1329    1
  1154  1278  1273    1
  1155  1278  1276    1
  1156   832   848    1
  1157  1295  1294    1
  1158  1493  1491    1
  1159  1251  1252    1
  1160  1251  1249    1
  1161  1251  1253    1
  1162  1092  1091   ar
  1163  1092  1093   ar
  1164  1487  1489    1
  1165    86    67    2
  1166  1489  1491    1
  1167  1489  1490    1
  1168  1237  1238    2
  1169  1117  1118    1
  1170  1000  1019    1
  1171  1256  1257   ar
  1172   848   866    1
  1173   366   382    1
  1174    69    68    1
  1175    69    67    1
  1176  1266  1260   ar
  1177  1266  1255    1
  1178  1273  1272    1
  1179   966   965   ar
  1180   966   967   ar
  1181  1012  1011    2
  1182  1274  1272    1
  1183  1274  1276    1
  1184  1274  1275    1
  1185   986   981    1
  1186   986   997    1
  1187    25    27    1
  1188  1293  1291    1
  1189  1293  1292    1
  1190  1260  1259   ar
  1191  1010  1011   ar
  1192  1010  1017   ar
  1193  1139  1140    1
  1194    56    54    1
  1195    56    51    1
  1196  1162  1160   ar
  1197   987   993   ar
  1198   944   943    1
  1199   870   869    1
  1200  1099  1093   ar
  1201  1099  1098   ar
  1202   401   382    2
  1203  1291  1275    1
  1204  1291  1309    1
  1205   372   371   ar
  1206   398   396   ar
  1207   398   399   ar
  1208   982   980    1
  1209    28    33    1
  1210    28    27    1
  1211    54    52    1
  1212    54    55    1
  1213  1249  1250    1
  1214   607   606    2
  1215  1276  1277    1
  1216   396   395   ar
  1217   878   879   ar
  1218   878   877    1
  1219    33    31    1
  1220  1491  1492    1
  1221   965   970   ar
  1222  1091  1090   ar
  1223   991   997   ar
  1224   991   992   ar
  1225    29    27    1
  1226    29    31    1
  1227    29    30    1
  1228   606   605   ar
  1229   879   880    2
  1230  1030  1037   ar
  1231  1030  1031   ar
  1232  1160  1161    1
  1233  1294  1292    1
  1234  1093  1094   ar
  1235  1037  1036   ar
  1236    47    49    1
  1237    47    30    1
  1238    47    65    1
  1239   980   981    1
  1240   980   978    1
  1241   967   968   ar
  1242   370   371   ar
  1243   617   616    1
  1244   617   615    1
  1245    49    48    1
  1246  1250  1255    1
  1247  1011  1013   ar
  1248   419   418    2
  1249  1253  1255    1
  1250  1253  1254    1
  1251    67    53    1
  1252    67    85    1
  1253    52    53    1
  1254    52    50    1
  1255  1017  1016   ar
  1256   611   612   ar
  1257   997   996   ar
  1258   903   898   ar
  1259   903   902   ar
  1260  1043  1044    1
  1261  1043  1045    1
  1262    31    32    1
  1263   382   400    1
  1264   382   384    1
  1265   872   877    1
  1266   872   871    1
  1267  1081  1082    1
  1268    51    50    1
  1269   942   943   ar
  1270   942   948   ar
  1271   869   871    1
  1272  1257  1259   ar
  1273  1257  1258    1
  1274  1061  1062    1
  1275  1061  1063    1
  1276  1060  1079    1
  1277  1060  1062    1
  1278  1060  1046    1
  1279   898   899   ar
  1280   634   615    2
  1281   399   392   ar
  1282  1044  1049    1
  1283   943   945   ar
  1284   590   589    2
  1285   926   925    1
  1286  1098  1097   ar
  1287   544   543    1
  1288   877   875    1
  1289  1082  1080    1
  1290   395   393   ar
  1291  1045  1046    1
  1292  1045  1047    1
  1293   993   992   ar
  1294   993   994    2
  1295  1032  1031    2
  1296   605   612   ar
  1297   605   604    1
  1298   441   440    1
  1299   992   995   ar
  1300  1031  1033   ar
  1301  1090  1095   ar
  1302   949   948    2
  1303    50    48    1
  1304   920   925   ar
  1305   920   921   ar
  1306  1036  1034   ar
  1307   970   971    1
  1308   970   969   ar
  1309   570   569    2
  1310   615   633    1
  1311   615   601    1
  1312   902   905   ar
  1313   902   901   ar
  1314   871   873    1
  1315   978   979    1
  1316   963   962    1
  1317  1094  1097   ar
  1318  1094  1095   ar
  1319   418   412   ar
  1320   418   417   ar
  1321   905   906   ar
  1322   968   969   ar
  1323   968   974   ar
  1324   384   383    1
  1325   948   947   ar
  1326  1013  1014   ar
  1327  1057  1056   ar
  1328  1057  1050   ar
  1329  1016  1014   ar
  1330   925   924   ar
  1331  1063  1064    1
  1332  1063  1065    1
  1333   412   413   ar
  1334   602   604    1
  1335   602   600    1
  1336   602   603    1
  1337   996   995   ar
  1338   483   482    1
  1339   899   900   ar
  1340   392   393   ar
  1341   392   391    1
  1342  1056  1054   ar
  1343   393   394    2
  1344   589   588   ar
  1345   589   591   ar
  1346  1095  1096    1
  1347   945   946   ar
  1348   543   545   ar
  1349   543   542   ar
  1350   540   539    1
  1351   921   922   ar
  1352   969   972   ar
  1353   962   964    1
  1354   962   960    1
  1355  1049  1047    1
  1356  1049  1050    1
  1357   604   599    1
  1358   588   586   ar
  1359  1047  1048    1
  1360   600   601    1
  1361   600   598    1
  1362   873   875    1
  1363   873   874    1
  1364   964   974    1
  1365   964   959    1
  1366   462   461    2
  1367  1014  1015    1
  1368  1033  1034   ar
  1369   875   876    1
  1370   386   391    1
  1371   386   385    1
  1372   440   435   ar
  1373   440   439   ar
  1374  1034  1035    1
  1375   545   546   ar
  1376  1064  1069    1
  1377   569   571   ar
  1378   569   568   ar
  1379   383   385    1
  1380  1050  1051   ar
  1381   974   973   ar
  1382   417   420   ar
  1383   417   416   ar
  1384   901   900   ar
  1385   901   907   ar
  1386  1080  1100    2
  1387  1080  1101    1
  1388  1080  1066    1
  1389   979   977    1
  1390   906   907   ar
  1391   420   421   ar
  1392   435   436   ar
  1393   477   482   ar
  1394   477   478   ar
  1395   542   548   ar
  1396   482   481   ar
  1397  1065  1066    1
  1398  1065  1067    1
  1399   571   572   ar
  1400   947   946   ar
  1401   947   950   ar
  1402   460   461   ar
  1403   460   458   ar
  1404   391   389    1
  1405   574   555    2
  1406   413   414    1
  1407   413   415   ar
  1408   946   952   ar
  1409   924   923   ar
  1410   924   927   ar
  1411  1054  1055    2
  1412  1054  1053   ar
  1413   591   592   ar
  1414   461   463   ar
  1415   539   541    1
  1416   539   537    1
  1417   385   387    1
  1418   907   897    1
  1419   586   587    2
  1420   586   585   ar
  1421   599   598    1
  1422   521   520    1
  1423   922   923   ar
  1424   459   458    2
  1425   959   958    1
  1426   909   888    2
  1427   439   442   ar
  1428   439   438   ar
  1429   972   973   ar
  1430   568   566   ar
  1431   874   888    1
  1432   442   443   ar
  1433   598   596    1
  1434   546   552   ar
  1435   546   547   ar
  1436  1051  1053   ar
  1437  1051  1052    2
  1438   960   961    1
  1439   960   958    1
  1440   416   415   ar
  1441   416   422   ar
  1442   478   479   ar
  1443   458   457   ar
  1444   961   977    1
  1445   923   929   ar
  1446   541   552    1
  1447   541   536    1
  1448   421   422   ar
  1449   927   928   ar
  1450  1069  1067    1
  1451  1069  1070    1
  1452   436   437   ar
  1453   481   484   ar
  1454   481   480   ar
  1455   387   389    1
  1456   387   388    1
  1457   538   555    1
  1458   538   537    1
  1459   977   998    2
  1460   977   999    1
  1461   548   547   ar
  1462   548   549    2
  1463  1067  1068    1
  1464   950   951   ar
  1465   572   565   ar
  1466   958   956    1
  1467   555   573    1
  1468   555   557    1
  1469   389   390    1
  1470   596   597    1
  1471  1077  1070   ar
  1472  1077  1076   ar
  1473   552   551   ar
  1474   952   951   ar
  1475   952   941    1
  1476   592   585   ar
  1477   484   485   ar
  1478   888   890    1
  1479   888   908    1
  1480   585   584    1
  1481   547   550   ar
  1482   537   535    1
  1483   519   520   ar
  1484   519   525   ar
  1485   520   522   ar
  1486   422   411    1
  1487   897   892    1
  1488   897   895    1
  1489   424   402    2
  1490   463   464   ar
  1491  1070  1071   ar
  1492   892   891    1
  1493   438   437   ar
  1494   438   444   ar
  1495   536   535    1
  1496   479   480   ar
  1497   566   565   ar
  1498   566   567    2
  1499   890   889    1
  1500   480   486   ar
  1501   941   939    1
  1502   941   936    1
  1503   443   444   ar
  1504   535   533    1
  1505  1076  1074   ar
  1506   928   929   ar
  1507   929   919    1
  1508   565   564    1
  1509   457   464   ar
  1510   457   456    1
  1511   388   402    1
  1512   557   556    1
  1513   939   940    1
  1514   939   937    1
  1515   526   525    2
  1516   551   550   ar
  1517   522   523   ar
  1518   525   524   ar
  1519   597   595    1
  1520   485   486   ar
  1521   614   595    2
  1522   956   957    1
  1523   444   434    1
  1524   584   582    1
  1525   584   579    1
  1526   402   404    1
  1527   402   423    1
  1528   889   891    1
  1529   582   580    1
  1530   582   583    1
  1531   411   406    1
  1532   411   409    1
  1533   486   476    1
  1534  1071  1072    2
  1535  1071  1073   ar
  1536   895   893    1
  1537   895   896    1
  1538   455   454    1
  1539   891   893    1
  1540   594   575    2
  1541   936   935    1
  1542   957   955    1
  1543   919   914    1
  1544   919   917    1
  1545   456   454    1
  1546   456   451    1
  1547   406   405    1
  1548   404   403    1
  1549  1074  1073   ar
  1550  1074  1075    2
  1551   893   894    1
  1552   533   534    1
  1553   595   581    1
  1554   595   613    1
  1555   523   524   ar
  1556   523   529   ar
  1557   580   581    1
  1558   580   578    1
  1559   564   559    1
  1560   564   562    1
  1561   524   527   ar
  1562   559   558    1
  1563   556   558    1
  1564   454   452    1
  1565   937   935    1
  1566   937   938    1
  1567   579   578    1
  1568   560   562    1
  1569   560   558    1
  1570   560   561    1
  1571   914   913    1
  1572   917   918    1
  1573   917   915    1
  1574   409   407    1
  1575   409   410    1
  1576   577   575    1
  1577   577   576    1
  1578   476   471    1
  1579   476   474    1
  1580   434   429    1
  1581   434   432    1
  1582   534   532    1
  1583   562   563    1
  1584   451   450    1
  1585   935   933    1
  1586   403   405    1
  1587   931   910    2
  1588   575   561    1
  1589   575   593    1
  1590   405   407    1
  1591   407   408    1
  1592   471   470    1
  1593   517   516    1
  1594   938   955    1
  1595   578   576    1
  1596   955   976    2
  1597   955   975    1
  1598   429   428    1
  1599   529   518    1
  1600   529   528   ar
  1601   516   518    1
  1602   516   514    1
  1603   894   910    1
  1604   527   528   ar
  1605   432   430    1
  1606   432   433    1
  1607   446   425    2
  1608   518   513    1
  1609   915   913    1
  1610   915   916    1
  1611   912   910    1
  1612   912   911    1
  1613   452   453    1
  1614   452   450    1
  1615   453   467    1
  1616   910   930    1
  1617   913   911    1
  1618   934   933    1
  1619   934   932    1
  1620   474   475    1
  1621   474   472    1
  1622   430   428    1
  1623   430   431    1
  1624   450   448    1
  1625   466   447    2
  1626   426   428    1
  1627   426   427    1
  1628   532   553    2
  1629   532   554    1
  1630   532   515    1
  1631   408   425    1
  1632   449   448    1
  1633   449   447    1
  1634   470   468    1
  1635   470   472    1
  1636   954   932    2
  1637   427   425    1
  1638   514   515    1
  1639   514   512    1
  1640   425   445    1
  1641   469   468    1
  1642   469   467    1
  1643   916   932    1
  1644   488   467    2
  1645   932   953    1
  1646   513   512    1
  1647   467   487    1
  1648   472   473    1
  1649   447   431    1
  1650   447   465    1
  1651   473   489    1
  1652   512   510    1
  1653   511   510    1
  1654   511   509    1
  1655   489   508    2
  1656   489   491    1
  1657   489   507    1
  1658   531   509    2
  1659   491   490    1
  1660   490   492    1
  1661   509   530    1
  1662   509   495    1
  1663   494   492    1
  1664   494   495    1
  1665   494   496    1
  1666   492   493    1
  1667   496   497    1
  1668   496   498    1
  1669   493   498    1
  1670   498   499    1
  1671   506   499   ar
  1672   506   505   ar
  1673   499   500   ar
  1674   505   503   ar
  1675   500   501    2
  1676   500   502   ar
  1677   503   502   ar
  1678   503   504    2
